13

C	-0.379454	0.094164	-1.461173
C	0.0	0.0	0.0
F	-1.70934	0.334952	-1.667228
H	1.095677	0.0	0.0
H	0.211331	0.872092	-1.945458
N	-0.044528	-1.187994	-2.170451
O	1.038465	-1.221768	-2.748927
O	-0.874658	-2.090668	-2.105431
C	-0.522344	-1.171912	0.675616
N	-0.910999	-2.141283	1.214003
C	-0.430019	1.212786	0.671232
N	-0.757473	2.209637	1.197767
H	2.467883	0.0	0.0
