13

C	-0.371256	0.1153	-1.460582
C	0.0	0.0	0.0
F	-1.709364	0.303795	-1.674332
H	1.095624	0.0	0.0
H	0.19292	0.925151	-1.924156
N	0.014446	-1.135857	-2.20825
O	-0.720797	-2.109068	-2.068623
O	1.022545	-1.072171	-2.904641
C	-0.529318	-1.17608	0.663761
N	-0.940238	-2.127425	1.220426
C	-0.435527	1.206765	0.682873
N	-0.75388	2.203922	1.219088
H	2.472506	0.0	0.0
