13

C	-0.260042	0.020811	-1.491255
C	0.0	0.0	0.0
F	0.015718	1.2476	-1.989763
H	1.097618	0.0	0.0
H	0.350976	-0.735796	-1.988929
N	-1.698445	-0.294168	-1.824718
O	-2.493293	0.638269	-1.886859
O	-1.958006	-1.48739	-1.976365
C	-0.427714	-1.235395	0.622908
N	-0.696297	-2.251462	1.151549
C	-0.526999	1.165437	0.677517
N	-0.886839	2.123591	1.257532
H	2.440829	0.0	0.0
