15

C	0.0	0.0	0.0
C	-0.522037	0.082608	-1.423721
Br	1.953735	0.0	0.0
H	-1.602455	0.229797	-1.246437
H	-0.234852	0.957531	0.474002
N	-0.575053	-1.148513	0.638009
H	-1.602624	-0.96848	0.524025
H	-0.382831	-1.106315	1.63385
N	-0.238126	-1.167873	-2.139078
H	-1.02957	-1.359986	-2.747183
H	-0.23485	-1.906986	-1.439596
N	-0.003938	1.257885	-2.105318
H	-0.623706	1.464303	-2.881144
H	0.895698	1.000094	-2.501951
H	-3.141167	0.0	0.0
