15

C	0.0	0.0	0.0
C	-0.560262	0.012909	-1.439254
Br	2.039845	0.0	0.0
H	0.276476	-0.012008	-2.143088
H	-0.180001	0.957685	0.479836
N	-0.476762	-1.064717	0.7486
H	-0.064103	-1.169425	1.661209
H	-0.536382	-1.915114	0.206986
N	-1.260273	1.287038	-1.600062
H	-2.126849	1.181666	-1.052067
H	-1.550095	1.353076	-2.572272
N	-1.358921	-1.197087	-1.635638
H	-1.596925	-1.252974	-2.620462
H	-2.237496	-1.02556	-1.113391
H	-3.535353	0.0	0.0
