13
Coordinates from ORCA-job run
  C   0.70134520124210     -0.80996494454382     -0.01824363841101
  C   -0.68715771790366     -0.39975266371077     -0.45544383689613
  Cl  1.41044157650283     -2.01210986457389     -1.09997852190349
  H   -1.31276841295457     -1.29605772970226     -0.43281478652717
  H   0.73397290371851     -1.20292545430512      0.99596610688570
  H   -0.62863299873750     -0.06313981980556     -1.49309266674524
  N   1.57880384818197      0.41649654122299      0.00788571051047
  O   1.76208546788786      0.99749594954387     -1.05393980444782
  O   1.98361272815839      0.76650025029675      1.11411820845816
  C   -1.26836089081440      0.69041148881234      0.44056085483090
  H   -2.30319261055038      0.89216714842347      0.15886621054629
  H   -1.25727908927983      0.39462966396954      1.49235485296956
  H   -0.71287000545133      1.62524943437244      0.34476131072979
