13
Coordinates from ORCA-job run
  C   0.73332233072955     -0.80842140692609     -0.20601616837991
  C   -0.58142202881007     -0.51621978244768      0.49903807471494
  Cl  0.51886119437622     -1.28720217982691     -1.88489194661823
  H   -0.35232138139808     -0.39394458726086      1.56145374765584
  H   1.29983615398466     -1.58837655869443      0.29972650351185
  H   -1.20450957416555     -1.40862729237812      0.39710140253021
  N   1.60051604647123      0.43036831893460     -0.09908714529013
  O   1.71207357185420      1.18207306281085     -1.05570058858692
  O   2.07178151770531      0.59720967892787      1.02300854813438
  C   -1.30604812697991      0.71283063963658     -0.03641917273383
  H   -2.27352185837307      0.81545283195750      0.45810787456551
  H   -1.48042986057450      0.63892242738413     -1.11051029510501
  H   -0.73913798481999      1.62593484788256      0.15418916560130
