13
Coordinates from ORCA-job run
  C   0.62774558452742     -0.57487569349209     -0.16458812707537
  C   -0.32095011492436      0.56897437169802      0.12237449418545
  Cl  0.48380713173387     -1.17309164406399     -1.82144594447517
  H   -0.13374482521682      1.35590140597826     -0.61156067949033
  H   0.49888289345178     -1.41772272585325      0.51174452130635
  H   -0.05317515002686      0.96539750225363      1.10846844523699
  N   2.04224769321589     -0.10242312712263      0.06337750982001
  O   2.44813059448767      0.81361162647029     -0.64019823796706
  O   2.65238624900167     -0.64859615415946      0.97956437598293
  C   -1.78084862275715      0.13243607626056      0.11225455579331
  H   -1.95928765181353     -0.66500644420100      0.83781261628303
  H   -2.08126346450529     -0.22735324644116     -0.87232458747276
  H   -2.42593031717431      0.97274805267283      0.37452105787260
