17

C	-0.423291	-0.074343	-1.480931
C	0.0	0.0	0.0
Br	0.078272	1.670104	-2.296118
H	1.109388	0.0	0.0
C	0.352512	-1.137655	-2.2556
H	0.027878	-2.126716	-1.939028
H	1.411085	-1.003205	-2.013898
H	0.18996	-1.021782	-3.32855
C	-1.872545	-0.162549	-1.656164
N	-3.041025	-0.193904	-1.790334
N	-0.405291	-1.247533	0.705973
O	-0.066239	-1.335924	1.882734
O	-0.982978	-2.151123	0.078474
N	-0.426911	1.124094	0.764268
H	0.354796	1.76169	0.860614
H	-1.219179	1.602848	0.35817
H	2.601844	0.0	0.0
