17

C	-0.438792	-0.036467	-1.442053
C	0.0	0.0	0.0
Br	-2.454547	-0.012662	-1.572214
H	1.107706	0.0	0.0
C	0.096505	1.20151	-2.147269
H	-0.152928	1.178122	-3.209224
H	1.184904	1.193532	-2.01223
H	-0.31206	2.089336	-1.671557
C	-0.006773	-1.212212	-2.194483
N	0.36772	-2.043659	-2.93641
N	-0.40132	-1.188871	0.759033
O	-0.472734	-2.270881	0.163179
O	-0.539898	-1.061649	1.9855
N	-0.3288	1.227673	0.652614
H	-1.142831	1.107178	1.242404
H	0.460378	1.461273	1.251976
H	2.469584	0.0	0.0
