17

C	-0.455418	0.140325	-1.435313
C	0.0	0.0	0.0
Br	-2.465217	0.225391	-1.523481
H	1.095873	0.0	0.0
C	0.107626	1.442104	-1.995303
H	-0.157192	1.552015	-3.047925
H	1.19666	1.390586	-1.876805
H	-0.273647	2.27691	-1.411409
C	-0.064857	-0.945354	-2.333457
N	0.253256	-1.686658	-3.190264
N	-0.40077	-1.276585	0.613272
O	-0.466122	-2.277735	-0.109384
O	-0.540507	-1.296709	1.845498
N	-0.334057	1.139969	0.794556
H	0.470467	1.328333	1.386193
H	-1.126365	0.94582	1.390028
H	2.497155	0.0	0.0
