17

C	-0.478537	-0.122313	-1.461802
C	0.0	0.0	0.0
Br	-0.011021	1.581508	-2.357399
H	1.100323	0.0	0.0
C	0.193789	-1.225036	-2.276503
H	1.270445	-1.146457	-2.110047
H	-0.037679	-1.091656	-3.334812
H	-0.146053	-2.202461	-1.942515
C	-1.936512	-0.213052	-1.50998
N	-3.105518	-0.343147	-1.514527
N	-0.351346	-1.226112	0.764973
O	-0.001833	-2.318757	0.303033
O	-0.865523	-1.096069	1.886578
N	-0.46964	1.182496	0.641156
H	0.290443	1.535563	1.213252
H	-1.246672	0.965188	1.249333
H	2.568474	0.0	0.0
