17

C	-0.412821	-0.146119	-1.440608
C	0.0	0.0	0.0
Br	-2.423227	-0.075214	-1.624856
H	1.111448	0.0	0.0
C	0.183161	1.006349	-2.236609
H	-0.207339	1.948018	-1.856866
H	-0.034924	0.89071	-3.300245
H	1.266917	0.977307	-2.059666
C	-0.002603	-1.395713	-2.074486
N	0.365845	-2.306105	-2.718287
N	-0.426519	-1.123863	0.850133
O	-0.596435	-2.236812	0.336832
O	-0.499599	-0.907462	2.067538
N	-0.335915	1.276317	0.537918
H	-1.272159	1.27237	0.922356
H	0.325228	1.483196	1.279634
H	2.481177	0.0	0.0
