17

C	0.0	0.0	0.0
C	-0.535123	-0.0955	-1.437955
Cl	1.863878	0.0	0.0
H	-1.624294	-0.057931	-1.287665
C	-0.315547	1.299192	0.608009
N	-0.539903	2.341139	1.099519
N	-0.512149	-1.048576	0.75106
H	-0.225246	-1.07905	1.713078
H	-0.44846	-1.924319	0.253938
N	-0.19753	-1.426977	-1.939056
H	-0.918266	-1.72776	-2.580187
H	0.683666	-1.396849	-2.436424
C	-0.096017	1.054553	-2.331146
H	-0.394376	2.017344	-1.908205
H	0.988948	1.055377	-2.475147
H	-0.580028	0.950714	-3.30583
Cl	-3.927156	0.0	0.0
