17

C	0.0	0.0	0.0
C	-0.38478	-0.130253	-1.536037
Cl	1.796492	0.0	0.0
H	0.451652	0.34648	-2.056955
C	-0.329845	1.37229	0.443591
N	-0.557283	2.476357	0.778149
N	-0.570692	-1.029241	0.808355
H	-1.579897	-1.022028	0.62718
H	-0.446483	-0.80496	1.790195
N	-1.578785	0.54126	-1.977172
H	-1.501424	1.53941	-1.817254
H	-2.40898	0.233557	-1.465211
C	-0.438176	-1.600632	-1.926935
H	-1.323226	-2.073496	-1.498983
H	-0.513711	-1.656911	-3.014395
H	0.445405	-2.145599	-1.5893
Cl	-3.976277	0.0	0.0
