17

C	0.0	0.0	0.0
C	-0.584785	0.018116	-1.415423
Cl	1.862823	0.0	0.0
H	-1.663758	0.100037	-1.205079
C	-0.302565	1.248586	0.717105
N	-0.489325	2.242393	1.314364
N	-0.501428	-1.102289	0.685447
H	-0.139464	-1.229438	1.617253
H	-0.474393	-1.927332	0.102477
N	-0.345458	-1.291539	-2.015817
H	-1.150421	-1.555254	-2.569597
H	0.473186	-1.262775	-2.613432
C	-0.113048	1.194281	-2.254034
H	-0.656472	1.197143	-3.202471
H	0.959413	1.12429	-2.462751
H	-0.307347	2.145347	-1.752329
Cl	-3.88711	0.0	0.0
