17

C	0.0	0.0	0.0
C	-0.535071	-0.094301	-1.437577
Cl	1.863613	0.0	0.0
H	-1.625004	-0.054091	-1.287495
C	-0.315667	1.298812	0.608538
N	-0.539945	2.340657	1.101034
N	-0.510992	-1.048718	0.751693
H	-0.223635	-1.078825	1.713804
H	-0.44879	-1.924194	0.253809
N	-0.198833	-1.426796	-1.93807
H	-0.927221	-1.734491	-2.570604
H	0.678173	-1.393985	-2.445576
C	-0.090251	1.053376	-2.331158
H	0.995296	1.04935	-2.471423
H	-0.384121	2.018918	-1.910573
H	-0.571566	0.950779	-3.307453
Cl	-3.924866	0.0	0.0
