17

C	0.0	0.0	0.0
C	-0.3921	-0.159808	-1.527577
Cl	1.85494	0.0	0.0
H	0.489219	0.189269	-2.072302
C	-0.290929	1.382634	0.43103
N	-0.45654	2.496289	0.773154
N	-0.549165	-1.005126	0.844094
H	-1.556157	-1.031379	0.655091
H	-0.43545	-0.749214	1.821477
N	-1.507447	0.623729	-1.993042
H	-1.328062	1.61246	-1.871554
H	-2.360904	0.40547	-1.475423
C	-0.62859	-1.62721	-1.847225
H	0.14921	-2.273307	-1.437711
H	-0.674772	-1.745353	-2.931332
H	-1.592829	-1.939986	-1.442483
Cl	-3.925171	0.0	0.0
