14

C	-0.482625	0.01964	-1.447614
C	0.0	0.0	0.0
Cl	0.107619	-1.450945	-2.309687
H	1.093485	0.0	0.0
H	-0.356198	-0.936601	0.442115
C	-1.949517	0.004193	-1.527082
N	-3.125246	-0.006246	-1.535099
C	-0.002883	1.201115	-2.177771
N	0.353941	2.134802	-2.795298
C	-0.48935	1.211308	0.781181
H	-1.579989	1.273296	0.860093
H	-0.11277	2.135592	0.334393
H	-0.069499	1.155583	1.788863
H	2.846302	0.0	0.0
