14

C	-0.485535	0.022103	-1.448591
C	0.0	0.0	0.0
Cl	0.158506	-1.390935	-2.372837
H	1.093557	0.0	0.0
H	-0.323853	0.948864	0.446971
C	-1.951353	-0.054474	-1.525757
N	-3.125845	-0.113049	-1.532131
C	-0.057081	1.246827	-2.138183
N	0.261259	2.217336	-2.718639
C	-0.521278	-1.182329	0.797075
H	-0.202711	-2.123346	0.34387
H	-0.074591	-1.141336	1.793894
H	-1.611408	-1.192591	0.903665
H	2.847311	0.0	0.0
