14

C	-0.485323	0.029218	-1.446308
C	0.0	0.0	0.0
Cl	0.10252	-1.432705	-2.319879
H	1.093482	0.0	0.0
H	-0.353752	-0.940719	0.435619
C	-1.952111	0.013259	-1.521586
N	-3.1275	0.002059	-1.517292
C	-0.007199	1.217931	-2.168535
N	0.336732	2.16743	-2.768261
C	-0.485973	1.203011	0.791426
H	-0.064098	1.141414	1.797
H	-0.110311	2.13192	0.351302
H	-1.575818	1.267944	0.873652
H	2.844481	0.0	0.0
