15

C	0.0	0.0	0.0
C	-0.520248	0.066257	-1.429573
F	1.40845	0.0	0.0
H	-1.617181	0.04747	-1.307557
H	-0.33057	0.893121	0.533873
N	-0.485923	-1.147265	0.65379
H	-0.050319	-1.992974	0.31488
H	-0.443661	-1.083967	1.65746
C	-0.105531	-1.137256	-2.152269
N	0.248991	-2.100579	-2.724111
C	-0.063928	1.328728	-2.161043
H	1.026249	1.374043	-2.21718
H	-0.430648	2.206102	-1.621687
H	-0.474358	1.35953	-3.172249
Cl	-3.762373	0.0	0.0
