15

C	0.0	0.0	0.0
C	-0.242079	-0.005652	-1.536756
F	1.380057	0.0	0.0
H	0.407634	-0.825415	-1.862248
H	-0.319439	0.9445	0.455697
N	-0.549018	-1.171375	0.596958
H	-1.553413	-1.142832	0.406261
H	-0.462272	-1.099886	1.604926
C	0.351728	1.226448	-2.077301
N	0.798205	2.212693	-2.530855
C	-1.622805	-0.211761	-2.150501
H	-2.318608	0.574437	-1.879925
H	-1.493427	-0.252051	-3.237415
H	-2.065141	-1.146751	-1.81495
Cl	-3.937914	0.0	0.0
