15

C	0.0	0.0	0.0
C	-0.5006	0.11933	-1.434958
F	1.408499	0.0	0.0
H	-1.599041	0.077428	-1.343659
H	-0.330732	0.872519	0.56626
N	-0.482954	-1.173652	0.607156
H	-0.053903	-2.004622	0.226769
H	-0.437387	-1.153318	1.612263
C	-0.041521	-1.040269	-2.201184
N	0.325676	-1.979911	-2.802513
C	-0.047812	1.420883	-2.096859
H	1.041918	1.489599	-2.11233
H	-0.421178	1.486447	-3.120556
H	-0.450811	2.267258	-1.535129
Cl	-3.801987	0.0	0.0
