15

C	0.0	0.0	0.0
C	-0.435461	0.108823	-1.462945
F	1.408875	0.0	0.0
H	-1.535256	0.130542	-1.435875
H	-0.347894	0.870516	0.558916
N	-0.47044	-1.1875	0.58444
H	-0.373579	-1.196483	1.587756
H	-0.031992	-1.999023	0.170403
C	-0.006322	-1.094996	-2.178284
N	0.372369	-2.049412	-2.749335
C	0.146296	1.351371	-2.139233
H	-0.190776	2.245222	-1.609863
H	-0.187593	1.423219	-3.175946
H	1.237296	1.322081	-2.122956
Cl	-3.697595	0.0	0.0
