15

C	0.0	0.0	0.0
C	-0.450763	-0.204551	-1.454598
F	1.389312	0.0	0.0
H	-1.548489	-0.23989	-1.410405
H	-0.342809	0.987819	0.318051
N	-0.468598	-0.962619	0.943229
H	-0.337887	-1.896637	0.566406
H	-1.475167	-0.810962	1.029692
C	0.038718	-1.493972	-1.942227
N	0.422099	-2.53228	-2.33696
C	0.003018	0.935098	-2.368334
H	1.090492	1.024315	-2.368849
H	-0.431958	1.870498	-2.008244
H	-0.341767	0.776269	-3.393005
Cl	-3.550539	0.0	0.0
