13
Coordinates from ORCA-job run
  C   0.71181434533353     -0.47202828004691      0.72511159014326
  C   -0.08373282392166      0.08720094445750     -0.44999417452054
  Br  2.01451704672541     -1.77168587809650      0.09907788642630
  H   0.58747295824841      0.37599170857623     -1.26689840081345
  H   0.02926667068824     -0.99610520464971      1.39516596097750
  C   1.39106191271812      0.60991091506126      1.42082688063797
  N   1.90234453497113      1.52128731395696      1.95807882437160
  N   -1.00979432682542      1.09208192159754      0.00754974636538
  H   -0.51377686815032      1.85444635649898      0.45445882578438
  H   -1.51727553331444      1.46986759311933     -0.78504700676004
  N   -0.94377492886124     -1.00966083611421     -1.03665070085072
  O   -1.31395417234750     -1.92002823420764     -0.30635100244182
  O   -1.25516881526426     -0.84327832015283     -2.21332842931981
