13
Coordinates from ORCA-job run
  C   1.00316472443381      0.30420246019922      0.56503069482613
  C   -0.25179825920517      0.54968073929530     -0.28009383979431
  Br  1.20333103169304      1.70260293553631      1.89794370477727
  H   -0.19340098066853      1.54772489095393     -0.71812356045527
  H   1.88544560034029      0.35817235277006     -0.07297892487140
  C   0.93095344551056     -1.00042127503046      1.20848143160203
  N   0.82525064395626     -2.06292293798867      1.69934363702903
  N   -1.44403518153658      0.36944804513084      0.43719867410212
  H   -2.25284863349858      0.66736901274991     -0.08910882350178
  H   -1.57287715451297     -0.58966407697726      0.73454363679185
  N   -0.08862447524411     -0.39541171815224     -1.50329578310595
  O   -0.92112132560677     -1.28243363658822     -1.65066712045601
  O   0.87656056433876     -0.16934679189871     -2.22727372694371
