13
Coordinates from ORCA-job run
  C   0.99919028873709      0.23264531638698      0.55792317480149
  C   -0.19298816807488      0.43394222098903     -0.37476405541266
  Br  1.09384592063492      1.74634194260649      1.79053070872916
  H   -0.04104835676192      1.37131943511432     -0.93269434605237
  H   1.92572495334398      0.25655776632121     -0.01283506163663
  C   0.90413971481605     -1.01558908101653      1.29972337394279
  N   0.86154982824269     -2.03214098940059      1.88634855707955
  N   -1.43468144388872      0.28924321570297      0.31819567654684
  H   -1.53786198101948      1.02210330813287      1.00787244432799
  H   -2.20809582877869      0.32324592825306     -0.33262092008967
  N   -0.13767950780045     -0.63495376017070     -1.45605975454886
  O   0.97024179501397     -1.06234889783351     -1.76526275341408
  O   -1.20133721446455     -0.93036640508559     -1.98535704427355
