13
Coordinates from ORCA-job run
  C   0.99556225055203      0.40491683065173      0.46331379004191
  C   -0.30143164172867      0.39459373636534     -0.34262191568021
  Br  0.94245417258774      1.90320853639830      1.71728493657424
  H   -0.37527602627056      1.34756260563759     -0.88989285855433
  H   1.84035749380426      0.59914071381575     -0.19512027244895
  C   1.19915269807090     -0.84530087319131      1.17935337854258
  N   1.36936076200320     -1.86397330289441      1.73854662193291
  N   -1.42193803490741      0.02627160230362      0.46476186064724
  H   -2.25008189308993     -0.07547746934649     -0.10683864986824
  H   -1.58473621735405      0.72588195876408      1.17715201531209
  N   -0.16671440633336     -0.64014505371357     -1.44998825984527
  O   -1.20897117040196     -1.11851510757513     -1.87854868344489
  O   0.96226201306781     -0.85816417721551     -1.87840196320909
