16

C	-0.560294	-0.03738	-1.412948
C	0.0	0.0	0.0
Br	-0.094912	-1.815632	-2.203227
H	1.096938	0.0	0.0
H	-0.325584	0.972473	0.400642
N	-2.005817	0.056331	-1.48153
H	-2.242977	1.029938	-1.307869
H	-2.354152	-0.485922	-0.692177
C	0.109967	1.013761	-2.270785
H	-0.14041	2.005123	-1.872313
H	1.19392	0.891108	-2.215983
H	-0.23936	0.948545	-3.30315
N	-0.61441	-1.046095	0.834823
H	-0.112448	-1.904852	0.627788
H	-0.382031	-0.826717	1.798001
H	3.087594	0.0	0.0
