16

C	-0.513815	0.060528	-1.438212
C	0.0	0.0	0.0
Br	-0.306739	-1.762898	-2.222782
H	1.096092	0.0	0.0
H	-0.397509	-0.889906	0.493264
N	-1.923024	0.371044	-1.442971
H	-2.197522	0.686445	-2.367532
H	-2.012871	1.146916	-0.788868
C	0.354611	0.990577	-2.271485
H	0.039708	0.995414	-3.319882
H	0.238857	1.998592	-1.863609
H	1.404407	0.70461	-2.187445
N	-0.43262	1.236772	0.698674
H	0.419254	1.745154	0.92512
H	-0.865124	0.988928	1.580694
H	3.025353	0.0	0.0
