16

C	-0.451847	-0.044452	-1.45869
C	0.0	0.0	0.0
Br	-0.109927	1.758361	-2.222579
H	1.093454	0.0	0.0
H	-0.39113	0.882115	0.520504
N	0.330197	-0.990325	-2.232797
H	1.311446	-0.788199	-2.02616
H	0.147203	-1.888451	-1.787174
C	-1.931927	-0.327464	-1.635976
H	-2.535385	0.429179	-1.127666
H	-2.185592	-0.339441	-2.697376
H	-2.147029	-1.306639	-1.199023
N	-0.384762	-1.27597	0.633909
H	0.42566	-1.604266	1.147777
H	-1.137098	-1.13946	1.295137
H	2.989636	0.0	0.0
