16

C	-0.544764	0.062543	-1.428383
C	0.0	0.0	0.0
Br	-0.280723	-1.723778	-2.236644
H	1.094075	0.0	0.0
H	-0.380965	-0.894458	0.50497
N	-1.975184	0.343257	-1.520006
H	-2.469767	-0.405978	-1.04188
H	-2.086724	1.175006	-0.940141
C	0.231815	1.075784	-2.243692
H	0.05772	2.062917	-1.802758
H	1.300262	0.857357	-2.181715
H	-0.116858	1.081243	-3.277908
N	-0.429816	1.23944	0.691274
H	-0.933949	1.004904	1.535012
H	0.420252	1.712213	0.981583
H	3.014432	0.0	0.0
