16

C	-0.269743	0.066583	-1.485349
C	0.0	0.0	0.0
Br	-2.266874	0.342686	-1.788393
H	1.104471	0.0	0.0
H	-0.328493	0.940849	0.466906
N	0.406512	1.188508	-2.095591
H	1.404112	1.008334	-1.928093
H	0.190954	2.018707	-1.551263
C	0.132213	-1.209431	-2.181642
H	-0.4207	-2.054006	-1.777651
H	1.198543	-1.360025	-1.974457
H	-0.026946	-1.114139	-3.256418
N	-0.497611	-1.200319	0.653724
H	-1.340904	-1.007199	1.175472
H	0.209406	-1.514581	1.304044
H	2.936402	0.0	0.0
