16

C	-0.275819	0.067166	-1.480907
C	0.0	0.0	0.0
Br	-2.294395	0.378651	-1.792475
H	1.103526	0.0	0.0
H	-0.32816	0.94032	0.459926
N	0.422043	1.211499	-1.983309
H	1.358449	1.188557	-1.563663
H	0.51922	1.147107	-2.990098
C	0.042712	-1.236653	-2.182237
H	1.107589	-1.426752	-1.999663
H	-0.136512	-1.15147	-3.258041
H	-0.541031	-2.057732	-1.770365
N	-0.499898	-1.204352	0.644769
H	0.181097	-1.489559	1.337945
H	-1.374629	-1.013215	1.115796
H	2.920894	0.0	0.0
