11

C	-0.461954	-0.091349	-1.461482
C	0.0	0.0	0.0
Cl	-0.048741	1.381601	-2.361042
H	1.096122	0.0	0.0
H	-1.541179	-0.233545	-1.52769
H	0.063109	-0.926136	-1.925538
C	-0.451932	-1.206858	0.696116
N	-0.819559	-2.199658	1.204877
C	-0.519725	1.187326	0.675006
N	-0.960889	2.135768	1.208416
Br	3.349439	0.0	0.0
