11

C	-0.462156	-0.073982	-1.46244
C	0.0	0.0	0.0
Cl	-0.049769	1.410458	-2.34415
H	1.096023	0.0	0.0
H	0.063971	-0.90274	-1.936548
H	-1.541659	-0.216138	-1.530018
C	-0.452981	-1.21487	0.681405
N	-0.824274	-2.213938	1.175001
C	-0.519229	1.179631	0.689317
N	-0.959085	2.122321	1.233984
Br	3.349645	0.0	0.0
