11

C	-0.462983	-0.079206	-1.461644
C	0.0	0.0	0.0
Cl	-0.043588	1.398457	-2.350776
H	1.096063	0.0	0.0
H	-1.543013	-0.216199	-1.528484
H	0.058252	-0.912941	-1.932212
C	-0.452062	-1.211472	0.687673
N	-0.811397	-2.207777	1.195433
C	-0.517877	1.182798	0.684686
N	-0.957124	2.126252	1.228626
Br	3.349866	0.0	0.0
