13

C	0.0	0.0	0.0
C	-0.442439	0.093347	-1.462651
F	1.381804	0.0	0.0
H	-1.478006	-0.227255	-1.568556
H	-0.339022	-0.980397	0.347256
H	0.22339	-0.509935	-2.08742
N	-0.481114	0.978988	0.91501
H	-1.491444	0.853251	0.97422
H	-0.290724	1.901154	0.543485
N	-0.378834	1.465036	-2.046257
O	0.428375	2.269994	-1.574219
O	-1.11231	1.696115	-3.003804
Br	-3.682113	0.0	0.0
