16
Coordinates from ORCA-job run
  C   0.72283838584358     -0.48996525517116      0.19222584029854
  C   -0.66282223261333      0.02739864167847      0.63856719006586
  F   0.61752098782200     -1.87588762769380      0.11399191051564
  H   -0.85905654356838     -0.43160841869078      1.61459907687246
  C   1.71463970622157     -0.18373685496337      1.23949540541727
  N   2.50436274593219      0.06610752112011      2.07200235688922
  C   1.18617558576374      0.03371531628674     -1.15208596689714
  H   0.48551074676045     -0.27420470357204     -1.92846651131823
  H   2.16617620180334     -0.38619992597926     -1.38225191953078
  H   1.26118943626022      1.12228698910543     -1.13750434433008
  C   -1.78183664904178     -0.36081026931586     -0.33248279775245
  H   -1.69263619862844      0.17182448726984     -1.27967313028869
  H   -1.75338766178123     -1.43477815666957     -0.51707096829673
  H   -2.74830323220508     -0.10798857681365      0.10603916440626
  C   -0.60252441457505      1.47767995960629      0.82195152210011
  N   -0.55884686399381      2.64616687380258      0.93066317184873
