16
Coordinates from ORCA-job run
  C   0.65718772637824     -0.29099803048467     -0.25011958832395
  C   -0.64809760144665      0.30955802112125      0.31141796185860
  F   0.34903349876174     -0.94921628681748     -1.43391912641010
  H   -0.40252463777489      0.77209499284443      1.27525968019280
  C   1.15662731143231     -1.29662406852452      0.70710308648757
  N   1.56197978076782     -2.07193386208588      1.49009887718716
  C   1.72968023646092      0.73996618549095     -0.54338190662535
  H   2.61654550588068      0.23956754313746     -0.93415064459005
  H   1.35896614210280      1.44186121741175     -1.29167363103351
  H   1.99973048552004      1.28465417821131      0.36350946158407
  C   -1.73914356361119     -0.74743658626065      0.51080612510426
  H   -1.97793983714425     -1.22731958103775     -0.43793505012382
  H   -2.64338787801248     -0.28119677230996      0.90408850106016
  H   -1.40467748573830     -1.50690243224059      1.21970262986292
  C   -1.11435065848140      1.36948044953461     -0.58579893273425
  N   -1.49962902509539      2.21544503200975     -1.30300744349652
