16
Coordinates from ORCA-job run
  C   0.72258743889631     -0.49708762518015      0.17794101305033
  C   -0.64499985707810      0.03955653264533      0.65591899862089
  F   0.59904708498220     -1.88258793633514      0.11363702978306
  H   -0.82182049394324     -0.41238938205983      1.63894860531967
  C   1.74415264738593     -0.19597559807844      1.19737508151506
  N   2.55751812298395      0.04738415411903      2.00890824446130
  C   1.15583493189109      0.00997087366736     -1.18255791253522
  H   0.43085756053815     -0.29717216211231     -1.93652710100757
  H   1.24275661954573      1.09766106077335     -1.18013087513504
  H   2.12453984806448     -0.42261409842658     -1.43551376881658
  C   -1.79238045150812     -0.33877505686954     -0.28559277621752
  H   -2.74544030975688     -0.08300038794454      0.17975677864738
  H   -1.77483275689628     -1.41200632942567     -0.47539444215039
  H   -1.72604400995243      0.19798773420045     -1.23220459571697
  C   -0.56307780893288      1.48997118325416      0.83000174741740
  N   -0.50769856621992      2.65907703777252      0.92643397276420
