16
Coordinates from ORCA-job run
  C   0.78257089962588     -0.37083824923771      0.24348367764627
  C   -0.74056118976555     -0.28143590627829      0.44453745345743
  F   1.25787532482843     -1.31114292476502      1.14913369494502
  H   -1.12556759656241     -1.28821241929766      0.24240082340497
  C   1.41094984011982      0.92491217098826      0.55853477220577
  N   1.89775066085600      1.97392532664577      0.76213744985162
  C   1.17528237327397     -0.82861394165176     -1.14891178629381
  H   0.93398042851319     -0.07856809523348     -1.90208592829892
  H   2.25113434838698     -1.00751044977646     -1.16772112737715
  H   0.65886625168421     -1.76251867339999     -1.38133376550097
  C   -1.41382985459450      0.73514543143280     -0.48171796049317
  H   -1.29121411120898      0.44887225519634     -1.52682392527423
  H   -0.99431630177053      1.73196062270648     -0.33195889064124
  H   -2.48194881059327      0.78074123720570     -0.26580000940629
  C   -1.03158405339224      0.02977720017595      1.84673992835437
  N   -1.29038820940100      0.30450641528905      2.95838559342030
