16
Coordinates from ORCA-job run
  C   0.73406416245699     -0.48692040719041      0.15400561777304
  C   -0.63675900035599      0.00756952889642      0.66613147309910
  F   0.63782156502603     -1.87249526172340      0.05274722913211
  H   -0.79101401016643     -0.47607322996175      1.63783319348583
  C   1.76629973148481     -0.19263186192269      1.16451483271954
  N   2.59025385875755      0.04766276327937      1.96615845202390
  C   1.13655164646222      0.06638984349831     -1.19819502014760
  H   1.19791217299750      1.15557181538258     -1.16750678663631
  H   0.40871624193664     -0.23783181507438     -1.95072180227108
  H   2.11166413754293     -0.33621902893762     -1.47499064308784
  C   -1.78928589558640     -0.36745083748460     -0.27024117387013
  H   -1.75611219846372     -1.43555829420200     -0.48536737561830
  H   -1.74376923620857      0.19158561694421     -1.20509603476779
  H   -2.74062497411534     -0.13861585496293      0.21227928917290
  C   -0.58140725331411      1.45348523089089      0.88236787048550
  N   -0.54531094845412      2.61953179256802      1.01708087850711
