15

C	0.0	0.0	0.0
C	-0.505641	0.327643	-1.408515
Cl	1.785172	0.0	0.0
H	-1.596907	0.43118	-1.301905
H	-0.293263	-1.032186	0.222898
N	-0.48851	0.986995	0.920053
H	-1.508534	0.973893	0.832378
H	-0.264612	0.704081	1.868274
C	-0.23064	-0.790091	-2.413839
H	-0.771577	-1.686851	-2.105435
H	0.835644	-1.012389	-2.480412
H	-0.589133	-0.501355	-3.402998
C	0.035057	1.602405	-1.874731
N	0.443321	2.621416	-2.291213
Br	-3.725987	0.0	0.0
