15

C	0.0	0.0	0.0
C	-0.344346	-0.48665	-1.422831
Cl	1.831473	0.0	0.0
H	0.213986	0.172998	-2.096609
H	-0.266231	-0.762101	0.741023
N	-0.529616	1.310071	0.228485
H	-1.547175	1.24265	0.17738
H	-0.298639	1.606451	1.17017
C	-1.825819	-0.45528	-1.791003
H	-1.952897	-0.861496	-2.797684
H	-2.211756	0.562429	-1.78657
H	-2.447722	-1.022779	-1.101651
C	0.179881	-1.843363	-1.614573
N	0.558302	-2.940992	-1.789851
Br	-4.681893	0.0	0.0
