15

C	0.0	0.0	0.0
C	-0.352747	0.734843	-1.356167
Cl	1.844142	0.0	0.0
H	0.58812	0.997412	-1.846809
H	-0.288955	-1.046746	-0.067864
N	-0.504071	0.524614	1.216223
H	-1.50756	0.31609	1.233621
H	-0.390916	1.530942	1.244719
C	-1.1413	2.033654	-1.193936
H	-0.550511	2.751479	-0.616869
H	-2.098776	1.846687	-0.709512
H	-1.320475	2.473673	-2.177947
C	-0.974536	-0.21217	-2.283637
N	-1.322328	-0.987188	-3.094603
Br	-3.74138	0.0	0.0
