15

C	0.0	0.0	0.0
C	-0.362063	0.519664	-1.449832
Cl	1.844597	0.0	0.0
H	0.573486	0.668612	-1.995004
H	-0.280434	-1.047865	0.090015
N	-0.516319	0.697123	1.120856
H	-0.430902	1.697382	0.991358
H	-1.514786	0.468857	1.166509
C	-1.11391	1.849959	-1.472256
H	-2.063849	1.754385	-0.949091
H	-1.310586	2.137741	-2.50777
H	-0.499063	2.63377	-1.020218
C	-1.043502	-0.529415	-2.213542
N	-1.437786	-1.382794	-2.918117
Br	-3.726347	0.0	0.0
