15

C	0.0	0.0	0.0
C	-0.33185	-0.171072	-1.50521
Cl	1.783431	0.0	0.0
H	0.26563	0.594188	-2.012744
H	-0.290954	-0.899212	0.554917
N	-0.54938	1.232508	0.489869
H	-1.566112	1.163457	0.412806
H	-0.337313	1.321743	1.477859
C	-1.792115	-0.01453	-1.915365
H	-1.87878	-0.195813	-2.9901
H	-2.459557	-0.691418	-1.387083
H	-2.148194	0.993737	-1.710762
C	0.17194	-1.471512	-1.962166
N	0.540825	-2.51272	-2.360301
Br	-4.593511	0.0	0.0
