14

C	-0.651031	-0.17243	-1.496317
C	0.042673	-0.160139	-0.111616
Br	0.478672	0.959786	-2.780555
H	1.120348	-0.268705	-0.234223
H	-0.360121	-1.046281	0.400843
C	-0.646494	-1.49374	-2.120842
N	-0.647819	-2.57954	-2.571836
N	-1.954455	0.33185	-1.346922
H	-2.379288	0.585895	-2.228274
H	-1.837546	1.135449	-0.71898
N	-0.252729	1.08643	0.557289
H	-0.667109	0.874512	1.456808
H	0.758866	1.48609	0.742105
F	2.166618	1.543602	0.890145
