14

C	-0.648423	-0.08307	-1.502778
C	0.044647	-0.152593	-0.119494
Br	0.479765	1.125675	-2.716781
H	1.12753	-0.25288	-0.248964
H	-0.356438	-1.068669	0.338775
C	-0.641869	-1.364575	-2.205275
N	-0.641543	-2.421325	-2.720673
N	-1.952671	0.409471	-1.324073
H	-2.377834	0.714588	-2.188914
H	-1.837334	1.174515	-0.649473
N	-0.252163	1.051321	0.622545
H	-0.6665	0.785461	1.507651
H	0.758843	1.440512	0.831714
F	2.165802	1.491488	0.986016
