13
Coordinates from ORCA-job run
  C   -0.20677395398012      0.01506402581588      0.53632310593785
  C   1.14784806783577     -0.33974584863493     -0.10722688107376
  Br  -0.93953723564210     -1.59559213802010      1.38584266363103
  H   1.81955456615346     -0.75834899141573      0.64611561924868
  H   1.60171677980251      0.58313304555195     -0.48552856507858
  C   -1.21207580339569      0.54911488328810     -0.47763239409769
  H   -1.41062567335052     -0.20689646082668     -1.23859714923792
  H   -0.80357112780993      1.44397538488055     -0.95647444582568
  H   -2.14806248266721      0.80993688455267      0.01642796503051
  C   0.03580319800820      0.99550931672053      1.59202600633360
  N   0.25415378561543      1.81284476773762      2.40825292713616
  C   0.99634425954576     -1.28364661554702     -1.21083800420766
  N   0.86422561988443     -2.02634825410284     -2.10969084779656
