13
Coordinates from ORCA-job run
  C   -0.24000707304054      0.03079040068083      0.52126239853496
  C   1.13155174853744     -0.40653734618765     -0.02825357134561
  Br  -1.12066476132981     -1.52837626432447      1.32489001302706
  H   1.72694028950985     -0.85560711349651      0.77048068762738
  H   1.66202119164388      0.48526512568278     -0.38107601455048
  C   -1.14215732442542      0.61452453546071     -0.56034782399159
  H   -0.65174483515341      1.48133395906784     -1.01262129091032
  H   -2.09271059387011      0.93168717023563     -0.13193289891150
  H   -1.33163573038286     -0.13384220553098     -1.33074325126854
  C   -0.01427497695439      1.00409367784039      1.58712093240735
  N   0.18908987725222      1.81655001919667      2.41208602497825
  C   0.99933465281502     -1.35060725420636     -1.13447677040027
  N   0.88425753539812     -2.09127470441889     -2.03738843519671
