13
Coordinates from ORCA-job run
  C   -0.33421148166225     -0.11078489448927      0.52621844611164
  C   0.64334466855112     -1.04042639384624     -0.21842682396147
  Br  -1.51811895347241     -1.26849703596922      1.58457731109628
  H   1.20954206770253     -1.63876798112202      0.49965436541403
  H   0.06622424433534     -1.72541106366606     -0.84604955773088
  C   -1.17712245724568      0.72721547650248     -0.42774923114166
  H   -1.88940439950707      1.33677826522752      0.12843574348904
  H   -1.72678325222697      0.07113745496303     -1.10551438489630
  H   -0.52658587580107      1.38459960120840     -1.01004830132736
  C   0.39907655230784      0.73789137407475      1.46178611771263
  N   1.00708392415727      1.43217891306078      2.19008018356406
  C   1.56313866606861     -0.26949854326988     -1.05362604030748
  N   2.28281629679274      0.36558482732572     -1.72933782802251
