16

C	0.0	0.0	0.0
C	-0.533043	0.124686	-1.4234
F	1.40236	0.0	0.0
H	-1.630293	0.142787	-1.298968
C	-0.373258	1.21034	0.760798
N	-0.551696	2.153804	1.435824
C	-0.471039	-1.255004	0.701522
H	-1.562786	-1.254703	0.734983
H	-0.105831	-2.1291	0.157552
H	-0.063101	-1.271276	1.71418
C	-0.158414	-1.067728	-2.205714
N	0.140466	-1.989343	-2.870932
N	-0.081385	1.368079	-2.027974
H	-0.689015	1.615579	-2.796833
H	0.865657	1.272939	-2.371514
Cl	-3.648361	0.0	0.0
