16

C	0.0	0.0	0.0
C	-0.575671	0.219287	-1.408948
F	1.378908	0.0	0.0
H	-1.615555	-0.138878	-1.35152
C	-0.393894	1.121114	0.878078
N	-0.592666	2.028047	1.596238
C	-0.457822	-1.327806	0.573017
H	0.004287	-1.472726	1.551405
H	-0.13027	-2.129669	-0.094487
H	-1.545045	-1.328335	0.659299
C	0.175538	-0.606117	-2.356493
N	0.751408	-1.263779	-3.140396
N	-0.495903	1.63266	-1.798182
H	-1.283128	2.088463	-1.341832
H	-0.670437	1.699786	-2.795212
Cl	-3.614521	0.0	0.0
