16

C	0.0	0.0	0.0
C	-0.238766	0.004861	-1.537572
F	1.395465	0.0	0.0
H	0.275218	0.923842	-1.863062
C	-0.404293	1.281136	0.601167
N	-0.566148	2.334234	1.094637
C	-0.501367	-1.202462	0.751664
H	-0.152371	-2.098121	0.238854
H	-0.105331	-1.172894	1.769805
H	-1.593028	-1.166824	0.767462
C	-1.570572	0.08328	-2.154154
N	-2.305704	0.138217	-3.072939
N	0.406556	-1.202023	-2.078045
H	0.159716	-1.288819	-3.055701
H	1.409305	-1.088635	-2.004834
Cl	-3.548246	0.0	0.0
