12
Coordinates from ORCA-job run
  C   0.77443358459980     -0.50842597989129      0.25085399251970
  C   -0.50836741693970     -0.13641148991539      0.04082110654906
  H   0.99263585992167     -1.38779618293361      0.85474860270209
  N   1.81826465282592      0.23580119334620     -0.39848449799513
  H   2.33342607660001     -0.35334367508979     -1.04138468687270
  H   2.48118134010107      0.59797054328032      0.27577900439037
  N   -1.59168163563751     -0.77475710861394      0.65628513648905
  H   -1.49123456119734     -0.90235184555564      1.64911584546396
  H   -2.48823468400294     -0.39774969396770      0.39675861925660
  N   -0.86001625927486      0.83567300145801     -0.90071476523676
  H   -1.45386322663753      1.55544689857173     -0.50884158064385
  H   -0.00754373035859      1.23594433931110     -1.27593677662240
