12
Coordinates from ORCA-job run
  C   0.90454185094616     -0.21113701611925     -0.46225491147247
  C   -0.38459229646543      0.03293002159085     -0.15360828971634
  H   1.22459341176799     -0.21429512882954     -1.50160574673489
  N   1.87350952632262     -0.61849736287658      0.47381855849980
  H   2.72545137816585     -0.07883786377604      0.41095948189623
  H   1.47989486789791     -0.55066428766464      1.40406367219114
  N   -0.77982508674983      0.08754981270599      1.21764678172564
  H   -1.65191771582461     -0.41540551648252      1.33108722850948
  H   -0.92293168043580      1.04299402825706      1.52405886977682
  N   -1.43812161238766      0.07737101883369     -1.10567855899270
  H   -1.92020169382679      0.96911900580383     -1.09680719729146
  H   -1.10840094941042     -0.12012671144284     -2.04167988839126
