12
Coordinates from ORCA-job run
  C   0.89700289779037     -0.03888725604609     -0.33953773986322
  C   -0.45236523844021      0.01391199048394     -0.27180244510003
  H   1.40006726856866      0.12581773487973     -1.29104192038043
  N   1.62892136094783     -0.38266872235558      0.84828049192139
  H   2.14239539666996     -1.24586176723154      0.71814013693238
  H   2.30174169232600      0.33645973780891      1.08353965634721
  N   -1.16113582982233     -0.40638642158229      0.85803918930877
  H   -1.81904845466077      0.29127794481901      1.18169754299608
  H   -0.49134588112158     -0.63464548690449      1.58404366537551
  N   -1.25158495447663      0.37434851150319     -1.36270878371574
  H   -2.23922956761853      0.35953787658965     -1.16936914141541
  H   -0.95541869016276      1.20809585803556     -1.84128065240651
