12
Coordinates from ORCA-job run
  C   0.79419087251593     -0.37871357221603      0.38303814719834
  C   -0.49838445201171     -0.16737639374260      0.04720483501466
  H   1.04135420119523     -1.09156648300654      1.16808963989021
  N   1.81578999692471      0.30335945707628     -0.36258535032991
  H   2.40813239707704      0.85209749829564      0.24836745145616
  H   2.41140518963745     -0.35841302375370     -0.84540762782814
  N   -1.56527790127161     -0.75578437231496      0.73583748468511
  H   -1.51197255876334     -0.67600552258089      1.73717624204249
  H   -2.47138786247880     -0.51710973782287      0.36835184071075
  N   -0.86592449506705      0.55719246997930     -1.09101141972729
  H   -1.53323506838689      1.28922419954566     -0.88326542785845
  H   -0.02469031937098      0.94309548054070     -1.50479581525390
