12
Coordinates from ORCA-job run
  C   0.74760188883490     -0.50332029320478      0.19015177408987
  C   -0.51968204035147     -0.04357581365681      0.09496202345770
  H   0.95485958588569     -1.43263703718688      0.72030520751808
  N   1.80207001955840      0.26532204530844     -0.40899908168545
  H   2.31938295738232     -0.28911956258323     -1.08002648185439
  H   2.45957569883938      0.58836892476881      0.28988382875619
  N   -1.65721770410719     -0.76095240107362      0.48976911685688
  H   -1.42436122725656     -1.63095458555947      0.94635597058722
  H   -2.26133889928716     -0.19859846628744      1.07437524546944
  N   -0.83030102764753      1.21652635483472     -0.41471251177419
  H   -1.59420180172103      1.17027255193996     -1.07562524700937
  H   0.00361254987024      1.61766828270029     -0.82643984441199
