12
Coordinates from ORCA-job run
  C   0.78542440064966     -0.52717424817880      0.15862584573434
  C   -0.50602709886574     -0.14691755611312      0.03309219946330
  H   1.02714032620305     -1.47992730700300      0.62710246509566
  N   1.80552112674829      0.31501206356838     -0.40263899517843
  H   2.47991459947657      0.58840789063186      0.30141772566266
  H   2.31188545049953     -0.17151916852092     -1.13248378792855
  N   -1.56759697235611     -0.88116456127670      0.57419369522696
  H   -2.47378305205707     -0.47911935445367      0.40003211849841
  H   -1.43753140497012     -1.15860705563248      1.53237955078631
  N   -0.89061201934837      0.94348564490742     -0.75310331902588
  H   -0.05216028230897      1.40526465535954     -1.08674508125216
  H   -1.48317507367072      1.59225899671148     -0.25087241708263
