12
Coordinates from ORCA-job run
  C   0.85892708726173     -0.20626487440229     -0.37404136390743
  C   -0.46284813862341      0.04948371590508     -0.24878544036843
  H   1.31613393886829     -0.22649148802412     -1.36206344961377
  N   1.61168489140619     -0.51890883020925      0.80938438067330
  H   1.99061315292302     -1.45670377978077      0.75698228679991
  H   2.39240364215615      0.11586929708037      0.92244539007380
  N   -1.14815134429548     -0.13330347132950      0.95617574894180
  H   -1.68265166740345      0.68312534533014      1.22455952445175
  H   -0.47196676308339     -0.37286968126129      1.67237516928501
  N   -1.27338852893954      0.39607253796070     -1.33586607395667
  H   -0.89258678788633      1.11465931967771     -1.92801050610318
  H   -2.23716948238378      0.55533190905323     -1.09315566627610
