12
Coordinates from ORCA-job run
  C   0.82941547462308     -0.25017312398846     -0.41276576570319
  C   -0.47696315338587      0.04162899620424     -0.22207782100761
  H   1.22270187798969     -0.34395581039147     -1.42372144334381
  N   1.65139867446687     -0.49683771183941      0.73989007048609
  H   2.44880708925813      0.12688171862935      0.75867439568514
  H   2.00999425624374     -1.44401087641845      0.72976118992698
  N   -1.08667653961837     -0.04546499199243      1.03311357967144
  H   -0.36998085681706     -0.25049621749854      1.72006923898578
  H   -1.58932316248313      0.79815802026402      1.27778635626594
  N   -1.34906849313157      0.33243316778536     -1.27791341848319
  H   -2.29356251195792      0.52309695185355     -0.98672254987869
  H   -0.99674265518760      1.00773987739223     -1.93509383260489
