12
Coordinates from ORCA-job run
  C   0.80295725389990     -0.56992298200167      0.32789688930154
  C   -0.40173965594781     -0.00745288540603      0.10647144017362
  H   0.87526453740805     -1.50066534838387      0.88576978447088
  N   2.02814364873940      0.04601714475157      0.01052708291650
  H   2.65188793559160     -0.56692147672862     -0.49568659095075
  H   1.84408787922619      0.88480529368436     -0.52567409154904
  N   -0.48634687349434      1.18639379490574     -0.67244446046653
  H   -1.12929551355127      1.82926566716530     -0.22564269375471
  H   -0.82633782803570      0.99623886591453     -1.60804348708278
  N   -1.60424395048162     -0.42208848286856      0.73907019853349
  H   -1.44403611546137     -1.17757175601414      1.39293860418784
  H   -2.31034131789303     -0.70009783501860      0.06681732421995
