12
Coordinates from ORCA-job run
  C   0.78553863531786     -0.63546600877326      0.17022391469377
  C   -0.45782468710655     -0.11093783264358      0.09389430228651
  H   0.90754423344086     -1.64823620717040      0.54598491095217
  N   1.97684551921733      0.01581676652570     -0.28055047438506
  H   1.85557220054880      0.47137449314672     -1.17478817863002
  H   2.35427523107238      0.67705299596376      0.38504555148741
  N   -1.63616589605066     -0.85146272195278      0.28412327175078
  H   -2.23836104482962     -0.41545105634236      0.97033840917376
  H   -1.44643151010315     -1.81264660056188      0.52935572039409
  N   -0.74394824622363      1.22839215594358     -0.19560424231729
  H   0.08497447539069      1.76146204502548     -0.40913098320690
  H   -1.44401891067431      1.32010197083901     -0.91889220219924
