12
Coordinates from ORCA-job run
  C   0.80840821907888     -0.42023470580930      0.30129806584891
  C   -0.49597173916859     -0.17612309061085      0.04209542510785
  H   1.08580842888283     -1.22968674059888      0.97466777541835
  N   1.80085450721029      0.36128687678423     -0.38334872617364
  H   2.38043839762453     -0.22626091201215     -0.97032041407176
  H   2.41308251359135      0.82981500744257      0.27299721633570
  N   -1.53591747603970     -0.85825519284221      0.68408813402881
  H   -2.45509916639350     -0.57782028725577      0.38476143211746
  H   -1.44637699499272     -0.91068300412854      1.68470212038895
  N   -0.90612762514902      0.69049023803683     -0.97600584924129
  H   -1.56674211484470      1.38400514699765     -0.64897679738817
  H   -0.08135694979966      1.13346666399642     -1.36495838237115
