12
Coordinates from ORCA-job run
  C   0.87688791522040     -0.07695914449384     -0.38135247661601
  C   -0.46431506124937      0.03292194522949     -0.24940873087614
  H   1.33996735739524      0.06557998069528     -1.35645420155755
  N   1.65009468549946     -0.45087544183467      0.77074768555450
  H   2.36525029425329      0.23804840181526      0.96860425310219
  H   2.11805811157478     -1.33603242750762      0.61801292340526
  N   -1.13445178515622     -0.35553306451521      0.91481142693417
  H   -0.44073421458616     -0.60946022985149      1.60906394339056
  H   -1.74810560516945      0.36825124873071      1.26670883323061
  N   -1.29930647939741      0.42461690983208     -1.30213185526269
  H   -2.27553756746705      0.45824759488496     -1.05932409798236
  H   -0.98880765091751      1.24219422701504     -1.79927770332254
