12
Coordinates from ORCA-job run
  C   0.85060170052412     -0.07969662265769     -0.34312436682316
  C   -0.48296280021686      0.08696680548268     -0.20053284884284
  H   1.30723703832217     -0.02345027502717     -1.33112033996110
  N   1.64139376004375     -0.32102991209437      0.83078228839764
  H   2.15824671741738     -1.18782800996488      0.74839947344904
  H   2.31394254968763      0.42179781846708      0.97566720544696
  N   -1.10272352665388      0.19792879983140      1.04343065974930
  H   -1.92668205828460     -0.38553856253180      1.09968444112363
  H   -0.42989220041852     -0.02613184173356      1.76654511615362
  N   -1.39181284448499      0.16922976945796     -1.26451420464794
  H   -0.93165687197641      0.18217861625429     -2.16323405081417
  H   -2.00569146395980      0.96657341451605     -1.16298337323100
