12
Coordinates from ORCA-job run
  C   0.75186925830033     -0.46157895789820      0.26396453583529
  C   -0.52320948349235     -0.06636530417495      0.05367026274258
  H   0.95825677556195     -1.36559065352905      0.83656262037075
  N   1.81541547177491      0.34208425256011     -0.26958344987531
  H   2.41143718257378     -0.20288265182243     -0.88032321612520
  H   2.39709634366954      0.71434563907322      0.47079411747349
  N   -0.84906621215861      1.16410553786497     -0.51540966757543
  H   -0.00363601342110      1.59440922016423     -0.87041065497730
  H   -1.55311384688343      1.06447435632302     -1.23440502004818
  N   -1.65484170848601     -0.82766609199673      0.37660711195553
  H   -1.41988868307985     -1.67436459703152      0.87411547560216
  H   -2.32931908435916     -0.28097074953267      0.89541788462163
