12
Coordinates from ORCA-job run
  C   0.97066843291517     -0.25367830269342     -0.43874050361565
  C   -0.31878856008703      0.07734447192076     -0.23712142181140
  H   1.33705198089305     -0.33640985363009     -1.45624912079078
  N   1.85308796563818     -0.60508940818286      0.58063200235944
  H   1.50150130275445     -0.28691280983227      1.47511167864949
  H   2.80147797092311     -0.30617966303759      0.41186272185975
  N   -0.79507181060831      0.12404669135283      1.11898941546234
  H   -1.42098911965499      0.90948714005457      1.25084401841921
  H   -1.30334239842294     -0.72014766831077      1.36140818316861
  N   -1.16261616452624      0.34169272676388     -1.36172663638670
  H   -1.47728527062217      1.30551103483664     -1.36329121042127
  H   -1.98669432920227     -0.24866435924169     -1.33971912689303
