12
Coordinates from ORCA-job run
  C   0.86410646861058     -0.60406249983976      0.29624198670587
  C   -0.37401432198730     -0.10849165002037      0.11079686598409
  H   0.98493113700552     -1.50117989174622      0.89372155540609
  N   2.00605688898495     -0.09808053965256     -0.32118357327807
  H   1.83563074520307      0.84041433510138     -0.66048755259580
  H   2.83247843906866     -0.15476269783263      0.25421936776782
  N   -1.49130885806187     -0.75419178795667      0.72835709548387
  H   -1.93461746114162     -0.14594361491510      1.40767592149569
  H   -2.19089207232858     -1.00150253921473      0.03732386812119
  N   -0.51421181770938      1.04787828401210     -0.73252820630460
  H   -1.19862533823581      1.68868648590995     -0.34911161262111
  H   -0.82053380940821      0.79023611615464     -1.66502571616503
