12
Coordinates from ORCA-job run
  C   0.77550467465454     -0.53665391670980      0.17689533334949
  C   -0.50484286890767     -0.15194338723581     -0.02566157190460
  H   0.98803394689329     -1.52706493840247      0.57623822610915
  N   1.82943987046622      0.35994138773088     -0.21082239553205
  H   2.40326914216063     -0.05195672811230     -0.93668504779490
  H   2.43700687815553      0.56810609198402      0.57195363809378
  N   -1.60006554477650     -0.93810873266482      0.34999081368169
  H   -2.49288056239733     -0.52772736388164      0.13198490691095
  H   -1.55162597294554     -1.30199423282635      1.28656299132678
  N   -0.83324532195549      1.00567080404370     -0.73793415955641
  H   0.02569138651999      1.50001487647359     -0.95133758471333
  H   -1.47528562786768      1.60171613960101     -0.23118514997054
