12
Coordinates from ORCA-job run
  C   1.02626055497685      0.00314001530868     -0.37990299968124
  C   -0.30968434488104      0.09803425844161     -0.24312347682704
  H   1.46906107313172      0.20047278168519     -1.35006455927835
  N   1.90162609059830     -0.23162709118065      0.67914629459081
  H   1.40083446604598     -0.62354190959356      1.46708130518964
  H   2.70378326007451     -0.78596019169693      0.42103237386235
  N   -1.11398362013185      0.41673527230962     -1.38240280848115
  H   -1.72518234666798     -0.35471589199145     -1.62529110414412
  H   -1.69825192384095      1.22397233880495     -1.19568864623925
  N   -0.86633215740289     -0.10651742977670      1.06621568636362
  H   -1.04907320848675      0.77522297890487      1.53364827821429
  H   -1.74005784341590     -0.61521513121564      1.00934965643042
