12
Coordinates from ORCA-job run
  C   0.86202958663537      0.04140788707984     -0.32132629484097
  C   -0.48058384763095      0.12054714978673     -0.18881027500873
  H   1.33892931538011      0.33504269969590     -1.25625616399601
  N   1.63224488944698     -0.45144451571756      0.78580625996906
  H   2.11531632135510     -1.30694568753161      0.54105030946001
  H   2.33217035527922      0.22279438349139      1.07002888811192
  N   -1.16379914202633     -0.40099665590835      0.90902237874718
  H   -0.48978895044297     -0.67639357638326      1.61317025104076
  H   -1.84098909649008      0.25716040939198      1.27068357454645
  N   -1.33711520969320      0.72409136415142     -1.11978321906578
  H   -2.11591452684852      0.12017454724667     -1.34723935501713
  H   -0.85249969496474      1.01556199469684     -1.95634635394678
