12
Coordinates from ORCA-job run
  C   0.78448012295843     -0.48459607045280      0.26560812457742
  C   -0.50547531989455     -0.14424395274312      0.04559468643942
  H   1.01858327311866     -1.34027502150629      0.89694906012386
  N   1.81359830565714      0.25947060501287     -0.40696130382660
  H   2.34079375923324     -0.33989718952369     -1.03047773954413
  H   2.46920831576015      0.65464310387957      0.25586305973351
  N   -1.57578792838694     -0.78420996638943      0.68072111702555
  H   -2.48039193401926     -0.43551146381051      0.41041357237422
  H   -1.47270292613366     -0.88457402427877      1.67624045617334
  N   -0.87669658860044      0.79101287186345     -0.92561880995883
  H   -1.48352857083401      1.51121088476977     -0.55492287846538
  H   -0.03208050885876      1.19597022317896     -1.31340934465238
