12
Coordinates from ORCA-job run
  C   0.80008505461599     -0.44482710624167      0.28800531881733
  C   -0.47197393810139      0.01049869324735      0.23539533269727
  H   1.06943632285127     -1.21709310907398      1.00678156276888
  N   1.78152599633805      0.16383741519687     -0.56717461833689
  H   2.50614963815480      0.61235122552092     -0.01972714725092
  H   2.23230780000096     -0.52772642448137     -1.15356074302239
  N   -0.82952463757375      1.14701474228356     -0.49692995286604
  H   -1.60928951516813      0.97503161573029     -1.11881684149435
  H   -0.01598031545506      1.45689991614389     -1.01642543160186
  N   -1.50526620640979     -0.54070894618464      1.00155408962922
  H   -1.55964001690863     -1.54463729992737      0.97093645681610
  H   -2.39683018234432     -0.09264072221384      0.86996197384366
