12
Coordinates from ORCA-job run
  C   0.78388578522392     -0.50899124772357      0.21698174996534
  C   -0.47858407133837     -0.02481713165643      0.22116738352758
  H   1.02081026240245     -1.41185741424869      0.77757545823314
  N   1.79940202484366      0.23213037034011     -0.47899706603924
  H   2.25555717516034     -0.34203374918127     -1.17717019826591
  H   2.51472926810324      0.55195748369666      0.16273634796739
  N   -1.54265139782947     -0.69066906382423      0.84036820667461
  H   -1.60908113353542     -1.66938516449946      0.61750562402775
  H   -2.42381419095106     -0.20954178319031      0.76838972527310
  N   -0.79565365879931      1.23909549561187     -0.28609327152769
  H   -1.56089782214273      1.20862448518822     -0.94773376993289
  H   0.03729775886275      1.62548771948711     -0.71573018990317
