12
Coordinates from ORCA-job run
  C   0.87633351410213     -0.15152618704883     -0.36059686717323
  C   -0.40051991490105      0.26857243982326     -0.21425011538238
  H   1.36806330559153     -0.06629078469851     -1.32832658781728
  N   1.57435892948864     -0.63787742529876      0.79750815471079
  H   1.91904091337592     -1.57795681146995      0.64711240872038
  H   2.37446801824146     -0.05319049447346      1.00672089772159
  N   -1.00613722413364      0.39544676835715      1.03966803782797
  H   -0.36791959054127      0.03121419603350      1.73795104547826
  H   -1.89949585953193     -0.07783661386560      1.08633850651571
  N   -1.17474255421330      0.72546668499087     -1.28694853119600
  H   -1.15865924982290      0.12976484799220     -2.09739019100190
  H   -2.10379028765559      1.01321337965814     -1.02778675840392
