12
Coordinates from ORCA-job run
  C   0.87674584812029     -0.60148752749251      0.26007377856795
  C   -0.37000322521129     -0.11304142378659      0.12044660826541
  H   1.02290453251254     -1.50485169203562      0.84217557374941
  N   1.99488098631823     -0.07843169629942     -0.38724472956046
  H   1.80677798840563      0.86467527969718     -0.70405260353642
  H   2.83896793994328     -0.13614359385051      0.16195647743694
  N   -0.54649495325195      1.05005776974177     -0.70609817576051
  H   -0.86221329333374      0.79838012192122     -1.63695430168236
  H   -1.23547283662824      1.67356950720410     -0.30338769953424
  N   -1.46146513337214     -0.77068745156266      0.77041152057448
  H   -1.87625158815104     -0.17668884781193      1.47948876566649
  H   -2.18837626535155     -1.00635044572505      0.10418478581332
