12
Coordinates from ORCA-job run
  C   0.92741782864418     -0.05447323981477     -0.46212532306001
  C   -0.37990560679780      0.06182204511507     -0.15594567443958
  H   1.28320217683791      0.22145157189027     -1.45211607680934
  N   1.87945568045848     -0.66149338736957      0.37789280423248
  H   2.71476480969413     -0.10318400712806      0.48477412466511
  H   1.45328999756644     -0.84022071783423      1.27872283843268
  N   -1.40304316479947      0.32330240589874     -1.10658563367079
  H   -1.92334091730932      1.16373481580228     -0.88107600725422
  H   -1.03373635036762      0.39731460789725     -2.04589594873743
  N   -0.81979658154290     -0.25888339979666      1.16487383368085
  H   -1.65762005469804     -0.82583661756414      1.10594613964189
  H   -1.04268781768599      0.57746592290383      1.69253492331836
