12
Coordinates from ORCA-job run
  C   0.75358028929846     -0.44014131526113      0.29420713161441
  C   -0.52265328772293     -0.08594977026880      0.02542789399618
  H   0.96467091214428     -1.36809918379748      0.82528795112006
  N   1.81204918991596      0.42410592474573     -0.14678133433140
  H   2.41044276602210     -0.04494604961336     -0.81540932509301
  H   2.39257607435261      0.71350108497268      0.63071668804602
  N   -0.85099183791211      0.99121374242008     -0.79669148633920
  H   -1.56976464016861      1.56857822253909     -0.38124537645674
  H   -0.00980964555687      1.51902066954823     -0.99615526860330
  N   -1.65311064266551     -0.74517899062087      0.52743841102299
  H   -2.31351935271861     -0.95454933041643     -0.20943544831932
  H   -1.41446982498878     -1.57955500424773      1.04364016334330
