12
Coordinates from ORCA-job run
  C   0.79639328568028     -0.58734749301644      0.31132826661492
  C   -0.40321143132614     -0.00983934107545      0.10113015129106
  H   0.85820938512975     -1.54166308400530      0.82922440344100
  N   2.02779358193006      0.03557234542601      0.03523764241608
  H   2.65583185208200     -0.55884061634088     -0.48731604028523
  H   1.85471806050402      0.89719240273339     -0.46717053925306
  N   -0.47286833879711      1.21731527776553     -0.62617592895143
  H   -1.11654196498728      1.84403359372054     -0.15801218566961
  H   -0.80534646032147      1.06924167669048     -1.57201451966464
  N   -1.61493560481147     -0.44605526140816      0.70052304083470
  H   -2.31377656701427     -0.69212165689251      0.00861033707868
  H   -1.46626579806838     -1.22848784359720      1.32463537214754
