12
Coordinates from ORCA-job run
  C   0.82616134446998     -0.14825864439460     -0.37902521999433
  C   -0.48472921015920      0.11493383854863     -0.18187916592344
  H   1.24131151916508     -0.14324516668914     -1.38666674458025
  N   1.65116487216751     -0.41574677316870      0.76543079545365
  H   2.10481908899132     -1.31723447874766      0.68335632192460
  H   2.37734405882818      0.28313137992909      0.86213899712859
  N   -1.03701483381510      0.29625103083679      1.08547926079342
  H   -1.89594471731688     -0.22650811342056      1.19313731725056
  H   -0.34848014619215      0.04018543302367      1.78277466850641
  N   -1.43386321905449      0.23797449780276     -1.20580686460121
  H   -1.98638478942557      1.07789731861857     -1.09547951067890
  H   -1.01638396765868      0.20061967766116     -2.12445985527909
