12
Coordinates from ORCA-job run
  C   0.89906304539745      0.06879243588666     -0.32789980303000
  C   -0.43482091455227      0.23675257024156     -0.18363419885250
  H   1.39607360741795      0.42431178739386     -1.22909647750831
  N   1.63718247089563     -0.51543341822137      0.75764815067032
  H   2.14215679783273     -1.33878101581916      0.45394135816043
  H   2.31845060823964      0.13868887949848      1.12331752960327
  N   -1.08902040312298      0.01157867712053      1.03138939230656
  H   -1.88827657945268     -0.60128786029923      0.93238522014253
  H   -0.41713616126907     -0.37417353445349      1.68521449716112
  N   -1.24484371387591      0.76401545104365     -1.19640247652770
  H   -2.21688500877709      0.83694168430645     -0.94526912432585
  H   -1.10294374873339      0.34859434330204     -2.10159406779987
