12
Coordinates from ORCA-job run
  C   1.00759302645982      0.09040283764045     -0.41752019534185
  C   -0.32478417181766      0.09141087589696     -0.22477752947263
  H   1.39593897463027      0.36866099730423     -1.39118294573414
  N   1.93931819430740     -0.14623731434751      0.59170208764803
  H   1.49722172654503     -0.61232080836961      1.37434793417696
  H   2.76204335169982     -0.63402205092273      0.27133341551884
  N   -0.81280668691643     -0.22145384951927      1.09080702291935
  H   -1.03297391467093      0.61957418668093      1.61403492056256
  H   -1.65469722214517     -0.78166793250235      1.03656757576039
  N   -1.19396230190218      0.42097721899996     -1.31202713562262
  H   -1.81930490575335      1.17692875354566     -1.05639917746060
  H   -1.76558607043660     -0.37325291440672     -1.57688597295430
