12
Coordinates from ORCA-job run
  C   0.89853850602129     -0.08566577891408     -0.32618643929580
  C   -0.41641956319015      0.21697948520546     -0.24047086872013
  H   1.41188126242941     -0.00748867586763     -1.28320673950560
  N   1.59997382936769     -0.43892657611111      0.87719206268820
  H   2.33321322227132      0.23091822252268      1.07594017647931
  H   2.03766918918450     -1.34781165698407      0.79023748715758
  N   -1.07377858343221      0.35357621875555      0.98633798723961
  H   -0.42749914278156      0.09196938327005      1.72227342787073
  H   -1.91812367911146     -0.20242823491540      1.03414037445820
  N   -1.19412569767378      0.53492728526898     -1.35953740366231
  H   -1.09920585769740     -0.10293819734345     -2.13143225019610
  H   -2.15212348538764      0.75588852511300     -1.14428781451369
