12
Coordinates from ORCA-job run
  C   0.80614124599988     -0.44879069297189      0.26449930838494
  C   -0.48973003815628     -0.07192351032046      0.18239218744875
  H   1.07576638452575     -1.34726141880749      0.81728555043588
  N   1.80439250853411      0.39680213323020     -0.32996906132991
  H   2.36054526614155     -0.11460248970994     -1.00403805879960
  H   2.43830817654077      0.75473146044577      0.37421111236599
  N   -1.53671508445618     -0.84595665317841      0.69515682018450
  H   -2.44732508670912     -0.43347799199957      0.57867753152697
  H   -1.50644017534270     -1.81730705358184      0.43580168980903
  N   -0.87501926680793      1.17744402125251     -0.31406916605655
  H   -0.04801611091253      1.64688774618925     -0.66535841911655
  H   -1.58090781935732      1.10345444945187     -1.03558949485346
