12
Coordinates from ORCA-job run
  C   0.89249288063304     -0.14305074417172     -0.45445697968156
  C   -0.40628170282204      0.04476198411162     -0.15006031725988
  H   1.22588389974323     -0.15305547306658     -1.48762180927800
  N   1.90523729780671     -0.20993429182500      0.52781302280474
  H   2.61834158117620     -0.88248006107924      0.27988423857064
  H   1.48369402761773     -0.46623536330788      1.41470228515825
  N   -0.78492202902587      0.17295404318983      1.21263155976436
  H   -0.60972662730739      1.09776670808961      1.58382324148318
  H   -1.75764912206892     -0.07424087631793      1.33062322877694
  N   -1.47744329057830      0.01498823972200     -1.08112696113633
  H   -1.91291514197706      0.92409449556193     -1.19169143219229
  H   -1.17671177319733     -0.32556866090664     -1.98452007701004
