12
Coordinates from ORCA-job run
  C   0.76430548422797     -0.28975370200850      0.42456365890927
  C   -0.52103000069139     -0.05984146704791      0.07580293770654
  H   0.99392695699414     -0.91774110067716      1.28520302996858
  N   1.80587501485673      0.29857893635718     -0.36925711105393
  H   2.41456924227676      0.87469474281989      0.19887916389154
  H   2.37924529283836     -0.41372524557862     -0.80395517549133
  N   -1.63193453357137     -0.43572473904820      0.84283033393536
  H   -1.37511225630895     -0.98458862034362      1.65044380739894
  H   -2.32036240104906     -0.91975973031467      0.28195970149838
  N   -0.87928758268685      0.58523531751917     -1.10716829237993
  H   -0.04653098594017      0.97125396935622     -1.53539906832947
  H   -1.58366423094616      1.29237163896622     -0.94490298605395
