12
Coordinates from ORCA-job run
  C   0.87734261396309      0.06220673163734     -0.27347942940805
  C   -0.47213446921090      0.10797460597717     -0.21492081490876
  H   1.39649144157085      0.36817051274294     -1.18157786862193
  N   1.59779964843975     -0.40914098455277      0.87542004336583
  H   2.26371874566827      0.28288724714520      1.19610001191709
  H   2.11486428706920     -1.25267291009602      0.66052166117197
  N   -1.20134142205986     -0.43000482642811      0.84463547040756
  H   -0.56110031661847     -0.68719811888031      1.58611383934109
  H   -1.91495930023042      0.21021176682639      1.16614780962031
  N   -1.29059030349600      0.68839299465785     -1.19318175291506
  H   -0.76841091456838      0.99250285773660     -2.00205870556141
  H   -2.04168001052714      0.06667012323373     -1.46172026440863
