12
Coordinates from ORCA-job run
  C   0.80660976946514     -0.46628464652647      0.29436757197176
  C   -0.47401617787424     -0.05103658662873      0.20811103712748
  H   1.03586527516844     -1.34356990395042      0.89546354225368
  N   1.83954276335884      0.30650140041884     -0.33564405476454
  H   2.16308807113451     -0.13767225647024     -1.18707309018534
  H   2.63688499587965      0.40415971514774      0.27761448427330
  N   -1.53030224957007     -0.84439477029534      0.70900837799419
  H   -2.36674796502588     -0.29751301900118      0.85439131066667
  H   -1.72115694510339     -1.65853112161689      0.14611895139778
  N   -0.83531457399823      1.20850441180634     -0.27912148443777
  H   -0.00934650206607      1.70684936784921     -0.58559111038648
  H   -1.54410646136870      1.17198740926715     -0.99864553591073
