12
Coordinates from ORCA-job run
  C   0.78368347077099     -0.69318149227573     -0.01421529178679
  C   -0.45878684650029     -0.17236048637939      0.04808077148715
  H   0.90124367881632     -1.75252782589980      0.18987216623773
  N   1.98590319173819      0.03483544708471     -0.19433683273132
  H   2.50274748324562     -0.25376532613181     -1.01399725864437
  H   1.83095934088790      1.03233842040456     -0.22436458987723
  N   -1.52811211312698     -0.95844336731285      0.54165775957153
  H   -2.41189771980356     -0.61781069028693      0.19130783058935
  H   -1.54538685306187     -1.02973761900306      1.54766549281922
  N   -0.82885800902234      1.11708513918767     -0.40900609808271
  H   -0.12785802998466      1.54496501849576     -0.99676018470675
  H   -1.10363759395931      1.74760278211687      0.33409623512420
