12
Coordinates from ORCA-job run
  C   0.77253762142547     -0.59130271901648      0.32161358151891
  C   -0.45835130607208     -0.06802707184888      0.12664983143454
  H   0.88140397968730     -1.45178132220544      0.97705425912275
  N   1.98439614699180     -0.05369516252343     -0.21619362890780
  H   2.03179859090520      0.95280801110151     -0.13521699615209
  H   2.15814599060017     -0.32347522706904     -1.17513246538511
  N   -0.76776587352486      0.91465448151719     -0.82137577998303
  H   -1.29902887929988      1.67511148401558     -0.41978153051834
  H   0.04931969842533      1.24844540371705     -1.30917403803232
  N   -1.59518195555121     -0.43613354400801      0.86508389141558
  H   -2.36111752603132     -0.69538616597165      0.25700819998981
  H   -1.39615648755592     -1.17121816770840      1.52846467549710
