12
Coordinates from ORCA-job run
  C   0.79570196634341     -0.30688692553847      0.43898722342093
  C   -0.50243507024944     -0.06329684956757      0.14950597946969
  H   1.05286998728259     -1.02076926983945      1.21992393517647
  N   1.80493127632005      0.44441426790106     -0.25515122163264
  H   2.45687902361362     -0.17033887816223     -0.72656902579355
  H   2.33936633317986      1.01185665371958      0.39156039646531
  N   -1.55563619278714     -0.76618650113300      0.74548488081522
  H   -2.46879833580024     -0.47626301938806      0.43693631334612
  H   -1.44039899971906     -1.76552661536239      0.75103868642895
  N   -0.89794724957663      0.99351155715516     -0.67605955654868
  H   -0.06423002693694      1.42485690953692     -1.05898016475782
  H   -1.52030271167008      0.69362867067846     -1.41567744639001
