12
Coordinates from ORCA-job run
  C   0.90285128777925      0.15855325455807     -0.28219940705010
  C   -0.44770325113578      0.17463302738333     -0.21880768570645
  H   1.40861042358384      0.52453113488720     -1.17432968304279
  N   1.63750679450540     -0.28283637301433      0.87116171234966
  H   2.21355270126722      0.46488987845682      1.23845824584212
  H   2.25392618138977     -1.05153016299932      0.63810265382757
  N   -1.14245721234761     -0.06864417816532      0.96985234431065
  H   -1.85862058142438     -0.77539491962023      0.86092572867784
  H   -0.47087814304452     -0.34179848765066      1.67846314427790
  N   -1.25172111604182      0.55409080808103     -1.29951464556442
  H   -2.23924232856795      0.52145363915087     -1.10754386254504
  H   -1.00582475596342      0.12305237893255     -2.17456854537694
