12
Coordinates from ORCA-job run
  C   0.84201953644408     -0.12069550537440     -0.35136171245104
  C   -0.47470020858188      0.13871126209927     -0.19192979414198
  H   1.30501653763910     -0.02665354455333     -1.33345743669472
  N   1.60862119438027     -0.50964048075982      0.79873587271260
  H   2.05590088689841     -1.40597126908429      0.65138336713317
  H   2.33678442355226      0.16541174950441      0.99652787174801
  N   -1.37150791341373      0.37111189277901     -1.24366842793614
  H   -1.92149838421370      1.20414420465487     -1.08096813805771
  H   -0.90928520707754      0.41491466159844     -2.14034126625922
  N   -1.08579109774682      0.20537119359392      1.05942341698678
  H   -1.95344325212366     -0.31362763626796      1.07626857927813
  H   -0.43311651575679     -0.12407652819014      1.76038766768211
