12
Coordinates from ORCA-job run
  C   0.76252960839380     -0.47212091140434      0.20687371747262
  C   -0.51830470590974     -0.05450105502962      0.09952853408247
  H   1.00070379042635     -1.37270192096119      0.77250745014398
  N   1.79158952285118      0.30100520755572     -0.42953131861169
  H   2.32127071816154     -0.26495075431991     -1.08092508266740
  H   2.44265259057101      0.67167069738548      0.25146854805582
  N   -0.86839725044052      1.17424287141854     -0.45847880677081
  H   -1.63337845907426      1.07958253395899     -1.11292877968657
  H   -0.04843399472752      1.58324913820346     -0.89004224746885
  N   -1.63187268163747     -0.78884083183889      0.52982584876770
  H   -2.24913014177195     -0.22283360163654      1.09686665268676
  H   -1.37022899684241     -1.63380137333169      1.01683548399596
