12
Coordinates from ORCA-job run
  C   0.87996005137288     -0.09221491042770     -0.37056876780528
  C   -0.45585496515198      0.08152895069631     -0.25357250299661
  H   1.37250603428140      0.10967076922855     -1.32040261441687
  N   1.60433239605521     -0.61126546107729      0.75676375145183
  H   2.35107216453537      0.01559342185734      1.02986712591340
  H   2.02673557353869     -1.50411119895964      0.53268844552083
  N   -1.24278888277502      0.61308303024167     -1.28190494184704
  H   -0.87629267729973      1.45363591266621     -1.69563075840818
  H   -2.22127129445805      0.67986005035193     -1.05542438922939
  N   -1.17341935356438     -0.37057806845985      0.85807402127501
  H   -1.75439745047025      0.35232306433534      1.26312588647501
  H   -0.51158159606416     -0.72552556045286      1.53898474406729
