12
Coordinates from ORCA-job run
  C   0.82050675648499     -0.62791022299483      0.15420559418484
  C   -0.45099510981089     -0.19028209008131      0.05454292042416
  H   0.98640183302361     -1.62524765031489      0.54780393450772
  N   1.98814378897175      0.13549841637015     -0.08789794729990
  H   2.58782494036403     -0.27245801288640     -0.79188638722350
  H   1.78010179724270      1.09332864894315     -0.33003301178189
  N   -1.50148881090127     -0.95332965265442      0.62232289263024
  H   -2.37365297964217     -0.75356957025829      0.15326232198535
  H   -1.59864631524334     -0.82205720280257      1.61804093858611
  N   -0.86382648589275      0.97380591177930     -0.64156044190355
  H   -1.21736644575731      1.70393633031770     -0.03573929158415
  H   -0.15500296883934      1.33928509458242     -1.26106152252543
