12
Coordinates from ORCA-job run
  C   0.82866853577856     -0.56600534761474      0.26500388003329
  C   -0.40644676555710     -0.08390760934307      0.02252346376380
  H   0.95556464933843     -1.45969744519150      0.87157221908598
  N   1.99768224990423     -0.07268533986468     -0.34424070801877
  H   1.76860764050597      0.76800855796559     -0.85971025940056
  H   2.73587261918695      0.11054639078962      0.32091556478783
  N   -1.60797247691125     -0.78090083338563      0.31992784110938
  H   -1.42511307551524     -1.69548386699286      0.71238286009803
  H   -2.20632099036567     -0.25596629716693      0.94775716377456
  N   -0.55413904539585      1.12119010192129     -0.72967055152932
  H   -0.77486008000157      1.90765444754278     -0.12974152927835
  H   -1.31054326096745      1.00624724134013     -1.39371994442587
