16

C	0.0	0.0	0.0
C	-0.540515	0.404377	-1.37762
F	1.383103	0.0	0.0
H	-1.429876	1.016332	-1.194402
H	-0.291069	-1.036179	0.213599
N	-0.429786	0.957423	0.985532
H	-0.174488	0.616242	1.906362
H	-1.448363	0.971919	0.942987
N	-0.893434	-0.813173	-2.120793
H	-1.148246	-0.530176	-3.062907
H	-1.761822	-1.14019	-1.698797
C	0.475701	1.227575	-2.149642
H	0.81238	2.07378	-1.547747
H	0.022242	1.615781	-3.067566
H	1.340598	0.616225	-2.413638
Br	-3.768322	0.0	0.0
