16

C	0.0	0.0	0.0
C	-0.341342	0.227828	-1.475054
F	1.413708	0.0	0.0
H	0.175971	-0.568889	-2.034999
H	-0.315127	-0.994369	0.326325
N	-0.484373	0.985003	0.900001
H	-0.559832	1.862668	0.399084
H	-1.402818	0.724816	1.238281
N	0.163057	1.560852	-1.822781
H	-0.17281	1.820292	-2.741713
H	1.174907	1.540937	-1.843779
C	-1.828426	0.152887	-1.755075
H	-2.019821	0.24251	-2.83021
H	-2.269752	-0.784236	-1.414287
H	-2.380961	0.938956	-1.24359
Br	-4.9486	0.0	0.0
