16

C	0.0	0.0	0.0
C	-0.441967	0.293849	-1.423419
F	1.427364	0.0	0.0
H	0.046587	-0.461527	-2.059851
H	-0.282123	-1.010394	0.305672
N	-0.515862	0.950168	0.89596
H	-0.189877	0.808547	1.83901
H	-0.321309	1.881687	0.55488
N	0.009145	1.654167	-1.745895
H	-0.484468	1.984889	-2.565118
H	0.999448	1.642976	-1.954481
C	-1.949822	0.17965	-1.56827
H	-2.306517	-0.813433	-1.292868
H	-2.249825	0.358773	-2.606243
H	-2.476712	0.875952	-0.919422
Br	-5.546094	0.0	0.0
