16

C	0.0	0.0	0.0
C	-0.458661	0.124026	-1.43948
F	1.424034	0.0	0.0
H	-1.541134	-0.042845	-1.404924
H	-0.302493	-0.972797	0.388115
N	-0.497618	1.032823	0.821297
H	0.005386	1.896307	0.681459
H	-0.511501	0.783928	1.797102
N	0.159094	-0.968001	-2.197118
H	1.148496	-0.772341	-2.304729
H	-0.253124	-1.003138	-3.121988
C	-0.187508	1.517185	-2.007079
H	-0.475134	1.547786	-3.062185
H	0.877348	1.765452	-1.936075
H	-0.775672	2.272858	-1.482053
Br	-4.243124	0.0	0.0
