17
Coordinates from ORCA-job run
  C   0.75029037659090      0.00624941189513      0.07154006298529
  C   -0.58068295240259      0.03275031867099     -0.12315488038757
  C   1.53498801359193     -0.14782493164453      1.33626196453019
  H   2.31874851904263      0.61277833960370      1.38790410406233
  H   0.90338505958758     -0.04968871354915      2.21606130852900
  H   2.02531473968403     -1.12263424840147      1.36034350394929
  N   1.63106107995540      0.06342978697265     -1.10636830437442
  O   1.43531500498776      0.94231242105460     -1.94569915958713
  O   2.53384098795877     -0.77360744392228     -1.15680793631570
  C   -1.55920630447754     -0.02404553768724      1.01734560793618
  H   -2.29951181244948      0.77349430657032      0.90046229598313
  H   -2.10852331197798     -0.97100560109981      0.99201963850295
  H   -1.10340355579563      0.07847037527576      2.00010578621988
  C   -1.23156007993509      0.11976845009275     -1.47887123340448
  H   -1.45334437338911      1.16280747527258     -1.72336522942762
  H   -2.17810536251139     -0.42649465746618     -1.46119216967516
  H   -0.61660602846020     -0.27775975163781     -2.28458535952615
