17
Coordinates from ORCA-job run
  C   0.74168308325585     -0.12602489812676      0.04593843189032
  C   -0.57013222422315      0.13086929088040     -0.10730566709730
  C   1.54219111286721     -0.33001085556644      1.29379608392809
  H   0.98573448928590     -0.03635898970042      2.18077722106869
  H   1.83397524880043     -1.37737211360630      1.38974574955043
  H   2.46073133391290      0.26143845802546      1.25217822271044
  N   1.56257093797712     -0.32123182913297     -1.15982360085041
  O   1.48775326703976      0.51001488037607     -2.06461659942139
  O   2.29837309695446     -1.30954865531264     -1.16722399570038
  C   -1.25707144255623      0.23797659973826     -1.44371709471604
  H   -2.28715975292924     -0.11503795029808     -1.35004864732636
  H   -1.29055542781603      1.28267154990033     -1.76683777707718
  H   -0.76574839425478     -0.32824227926780     -2.23326509735835
  C   -1.48841942863602      0.33859672232882      1.06531769725415
  H   -0.97675886812515      0.42111062988840      2.02208483639408
  H   -2.20399468682122     -0.48771892913108      1.13048613377091
  H   -2.07317234473178      1.25086836900475      0.91151410298029
