16
Coordinates from ORCA-job run
  C   0.51997927794503      0.36384568401651      0.47062220660828
  C   -0.81923860767160      0.04922464868776     -0.18849561667945
  F   0.30820219536080      0.69929612813271      1.78053495041057
  H   -1.42876585597805      0.95106427974358     -0.09604062172141
  N   1.44221136494494     -0.67760111136670      0.39878739444407
  H   2.34845619584946     -0.38679574511974      0.74408057012525
  H   1.53433218289390     -1.04009958720942     -0.54137965450040
  N   1.06870974648287      1.70872314872184     -0.11703785747933
  O   2.28923635340748      1.81302828554063     -0.17842910384219
  O   0.24741190684684      2.56838961492654     -0.41381456326991
  C   -1.50776557901136     -1.13549790006836      0.49474381589781
  H   -0.91181760237983     -2.04208350755829      0.39695279555798
  H   -1.63988368151460     -0.91582157670233      1.55414794799625
  H   -2.48765304739286     -1.30095417539933      0.04476341210224
  C   -0.59157020510136     -0.20441832005909     -1.61099925213043
  N   -0.37284464468166     -0.45029986628631     -2.73843642351932
