16
Coordinates from ORCA-job run
  C   0.62576389490752      0.35327695926328      0.33420107447267
  C   -0.82364625350588      0.13950723304240     -0.09197499496855
  F   0.64872578643563      0.92173747130919      1.57851912484391
  H   -1.29462214085011      1.12540258442568     -0.08679873362773
  N   1.38919971240178     -0.81203431935685      0.33898463897645
  H   1.30791480765775     -1.32226144926924     -0.53119253663190
  H   2.36398007129230     -0.60936771010323      0.52309366929308
  N   1.24129088529760      1.48985191895311     -0.55065655702255
  O   0.51574563231024      2.44148277275452     -0.81463330624168
  O   2.41944331405547      1.35996321359464     -0.86523064068180
  C   -1.55035015845230     -0.80721850880130      0.86685747254388
  H   -1.09863295309403     -1.79818037906141      0.85271633067131
  H   -2.59953820557212     -0.88837444142591      0.57942138275376
  H   -1.49317122318111     -0.41039606066623      1.88029066455687
  C   -0.83635797275840     -0.36672876553224     -1.46444732252042
  N   -0.81474519694434     -0.81666051912641     -2.54915026641730
