16
Coordinates from ORCA-job run
  C   0.65017499110482      0.32253791575844      0.29858853723292
  C   -0.83113109525585      0.14110727422118     -0.01003425333398
  F   0.75469861464332      0.50661257376113      1.67999142102801
  H   -1.34535652325038      1.00154619169197      0.42438249412367
  N   1.46462540860840     -0.68216874309371     -0.21064024339716
  H   2.44592607326226     -0.46310621591181     -0.10026591639307
  H   1.24162753894607     -1.58872175461488      0.17388006226398
  N   1.15878565095802      1.66028271096797     -0.24838596838894
  O   2.36657115390597      1.74811119962146     -0.43628131348291
  O   0.33283935956573      2.55611902731652     -0.37398846044240
  C   -1.37549833435647     -1.15281753337230      0.60582029197164
  H   -2.45960370128431     -1.18238461727354      0.49139392515786
  H   -0.96843917713459     -2.03341016085415      0.10563838988384
  H   -1.13805466571783     -1.19002568544549      1.66951339262532
  C   -1.04610669032650      0.16648761329148     -1.45650945725665
  N   -1.25005860366866      0.18883020393571     -2.61210290159214
