16
Coordinates from ORCA-job run
  C   0.63242273129266      0.47017019449419      0.36866248524037
  C   -0.82923522520171      0.03190036199354      0.31538820761595
  F   0.67833199323370      1.73036717194829      0.94928756156899
  H   -1.10750571322148     -0.07961556451498      1.37239807080896
  N   1.44537796478706     -0.47292925923064      1.00684608726645
  H   1.14289177925732     -0.63511836726481      1.95824666315701
  H   2.41559093463264     -0.18347393327005      0.98362529593164
  N   1.23842366745796      0.70585756693627     -1.01389648631545
  O   2.45451083585950      0.86152520968175     -1.03138870898262
  O   0.48091145142340      0.76884379556455     -1.97461388616250
  C   -1.05918939876299     -1.30375436979670     -0.39740969023450
  H   -0.88235034305126     -1.20483036943981     -1.46661349253265
  H   -2.09169352850471     -1.62201180438274     -0.24551117748956
  H   -0.39042436577972     -2.06123330128293      0.01020604537280
  C   -1.68942960335009      1.09073908327977     -0.21742155529687
  N   -2.43663318007227      1.90256358528430     -0.61680541994802
