16
Coordinates from ORCA-job run
  C   0.61135872238947      0.43763739744497      0.07129718448016
  C   -0.61810324824187     -0.45213560101152      0.25982331048651
  F   0.27292347192540      1.49407731777196     -0.75398955969207
  H   -0.26757713735552     -1.38774205675616      0.70214128495410
  N   1.21677722786731      0.82647945841116      1.27112218865444
  H   2.01632227472096      1.42250286696456      1.09206681453360
  H   0.56494818436517      1.28512187731969      1.89487876699712
  N   1.70271413221993     -0.30955716748660     -0.70192464490724
  O   1.60124466539009     -1.52428617307177     -0.82965121409724
  O   2.62598954751132      0.39274939484303     -1.09501634783016
  C   -1.36730311877969     -0.73049033206813     -1.04668243650370
  H   -0.71254182472882     -1.23715947799559     -1.75441800198413
  H   -1.72933389410953      0.19728656495784     -1.48731703575517
  H   -2.22090148526466     -1.37887303120588     -0.84493641551377
  C   -1.49948480332405      0.20791642544665      1.22546325707543
  N   -2.19403271458550      0.75647253643578      1.99714284910207
