16
Coordinates from ORCA-job run
  C   0.53311537260812      0.57234241890686      0.50566126598338
  C   -0.87403291939311     -0.00282857573731      0.31935133591149
  F   0.44926107285278      1.74548337928083      1.17374796834901
  H   -1.27032511347598     -0.03440562866910      1.34072336368835
  N   1.38067647018305     -0.30208665599709      1.21946165490495
  H   2.18998629846520      0.20941460416040      1.55309258183188
  H   1.68825221881477     -1.06217311887478      0.62650963226605
  N   1.10640602440837      0.93041354208785     -0.89286255844262
  O   1.57729242899992     -0.02363145861555     -1.51112962107100
  O   1.03049943935975      2.08823533633067     -1.27529366292944
  C   -0.91099599301593     -1.41043391236865     -0.28090506214625
  H   -1.94518488522123     -1.75305477583002     -0.33108631061987
  H   -0.49217412875165     -1.42466126942212     -1.28653545666657
  H   -0.35700706435916     -2.10214612217167      0.35476120263990
  C   -1.70475921549923      0.92408551501270     -0.45282406627654
  N   -2.40101000597569      1.64544672190696     -1.06367226742271
