16
Coordinates from ORCA-job run
  C   0.64662428510794      0.46479771000574      0.35057613685871
  C   -0.82253033395152      0.04998890615843      0.32984850413191
  F   0.72311023688575      1.73301522680896      0.91091545032897
  H   -1.08296727598989     -0.04300719949354      1.39318816918002
  N   1.45566431183477     -0.48157983956790      0.98860112555049
  H   1.16909251845863     -0.62313876107130      1.94820387547604
  H   2.42993284515356     -0.20903649810439      0.94215226883907
  N   1.23116013639408      0.67037364029250     -1.04626258400565
  O   2.44940086000981      0.80279492911016     -1.08867523538922
  O   0.45667896459324      0.73549654906427     -1.99320816058266
  C   -1.08655593109062     -1.29110324466050     -0.36063984521085
  H   -0.92710181879781     -1.20915351043740     -1.43404098848799
  H   -0.42296686798501     -2.05386677867925      0.04558098584834
  H   -2.12121356084812     -1.59037258497070     -0.18648585809623
  C   -1.67597978595146      1.11493754700983     -0.20159094466355
  N   -2.42134858382330      1.92985390853512     -0.59816289977749
