16
Coordinates from ORCA-job run
  C   0.53459768196406      0.35982023653613      0.46295098638672
  C   -0.80421825141687      0.09545287158324     -0.21955028258186
  F   0.30931338940568      0.81411188494516      1.73341215603390
  H   -1.34254771325627      1.04634314694059     -0.21783705762941
  N   1.37425401067454     -0.75075766143678      0.50562331147277
  H   2.28701280680501     -0.50624593945882      0.86901638692761
  H   1.47634422966537     -1.18457500570425     -0.40285659984221
  N   1.19651459274703      1.60854852848043     -0.21385144392888
  O   0.45410502468941      2.54012795898055     -0.50164555577479
  O   2.41420307908020      1.57402452814553     -0.35518234723515
  C   -1.60571448265234     -0.97546046128960      0.52515797298603
  H   -1.08122697763976     -1.93011190156724      0.51726195267288
  H   -1.75174614674657     -0.66434178383793      1.55952007820696
  H   -2.58170459604232     -1.09926807994105      0.05378920290825
  C   -0.55279479979703     -0.28666818165726     -1.60895880426050
  N   -0.32739184748013     -0.64100014071868     -2.70584995634228
