16
Coordinates from ORCA-job run
  C   0.60746158332990      0.57013739829519      0.42095128960005
  C   -0.84621112237336      0.09109626058502      0.37556609776522
  F   0.65368161924613      1.79670447323401      0.98948467744454
  H   -1.16990996980997      0.17006753630506      1.41969183539062
  N   1.43928974303603     -0.30546940609459      1.15185365165708
  H   2.30515025729488      0.16734307765646      1.38492189803052
  H   1.64804049929706     -1.13339805631280      0.60879110072070
  N   1.10470562417939      0.76910041660737     -1.03721276233714
  O   1.46437919097187     -0.26463121457631     -1.59948139523567
  O   1.08091413828511      1.89410957677160     -1.51297394467983
  C   -1.02560199425554     -1.35259499482827     -0.10085941165603
  H   -0.67921082135572     -1.47890499765456     -1.12591498006000
  H   -2.08274431439168     -1.61689384525361     -0.05703249196265
  H   -0.48042486212851     -2.03222553751033      0.55507786332109
  C   -1.66252977372441      1.01325769536491     -0.41724855172327
  N   -2.35698979760115      1.71130161741084     -1.05661487627522
