16
Coordinates from ORCA-job run
  C   0.64665152764729      0.28504284164053      0.34323784039642
  C   -0.83740034622814      0.09135437034861      0.05663632398384
  F   0.81256284537336      0.14000075350959      1.72324882615181
  H   -1.37063416897738      0.78922424087829      0.70635327489958
  N   1.48432627834372     -0.51713596580739     -0.42323466841112
  H   1.32554085727408     -1.50121428083398     -0.26178789004994
  H   2.45751829665831     -0.27278825147529     -0.29488397409722
  N   1.05914456231880      1.74283525006766      0.11548354746667
  O   2.25347816865538      1.94635678682074     -0.06914524641320
  O   0.18080656060474      2.59081466446456      0.21517531855531
  C   -1.28270212062455     -1.34322327019937      0.36228967166738
  H   -0.85854547017341     -2.05189176209987     -0.35131374132739
  H   -0.98817881039258     -1.61860922960610      1.37556914038862
  H   -2.36839175950843     -1.41132822796486      0.28578572218681
  C   -1.12873461092096      0.44423791712367     -1.33253139441620
  N   -1.38544181005027      0.68632416313319     -2.45188275098137
