16
Coordinates from ORCA-job run
  C   0.60233205433171      0.58507103429637      0.03482017332711
  C   -0.57794420197153     -0.37371635940627      0.28446090437354
  F   0.15256441609248      1.64732278843717     -0.66815291018541
  H   -0.16812632686534     -1.24364100829253      0.80853584708101
  N   1.34627256955581      1.05458189064178      1.14408796931155
  H   1.76038005133702      0.28833939502628      1.65779092560596
  H   0.76211972690189      1.61729544180080      1.75053761007222
  N   1.58524746390751     -0.18393513716792     -0.84488966188456
  O   1.73702951195598      0.17937172591616     -1.99975235233379
  O   2.12282296242636     -1.13711913105417     -0.28685689744939
  C   -1.26825363869415     -0.81838106086118     -1.00753086187267
  H   -2.12449706749863     -1.45243960411930     -0.77443918802245
  H   -1.61421317342394      0.04603148581779     -1.57384684561557
  H   -0.57905029620912     -1.39408806837225     -1.62771600915573
  C   -1.50499097578562      0.30801916146789      1.18775916049472
  N   -2.23269307606043      0.87628744586940      1.91319213625348
