16
Coordinates from ORCA-job run
  C   0.64505746803306      0.62346835737063      0.40659060342103
  C   -0.79868495002355      0.08097221032047      0.36057161772955
  F   0.58482476538043      1.85359589651504      0.97433686125373
  H   -1.10872071309910      0.06466051587277      1.41380466842264
  N   1.61625584941302     -0.15419291001918      1.07265493048972
  H   1.29392653031433     -0.46577350419013      1.97872827907106
  H   1.93061243311556     -0.92756117325895      0.50446836812660
  N   1.14047812045571      0.81138746021050     -1.02794380429973
  O   1.59540011198634     -0.19409522132780     -1.56967077469905
  O   1.00870831169304      1.91881454391613     -1.52451453167568
  C   -0.92282774647169     -1.32549942734143     -0.22901294121275
  H   -1.95209352787846     -1.67218176892133     -0.12805139263618
  H   -0.27345217126276     -2.02070789160972      0.30472214250174
  H   -0.65678161993353     -1.33728247722550     -1.28544403630498
  C   -1.68301919181704      1.01713260362812     -0.33639040374934
  N   -2.41668366990532      1.72826278606030     -0.91484958643839
