16
Coordinates from ORCA-job run
  C   0.63203912638505      0.40532142101402      0.08112768804408
  C   -0.64584963611593     -0.41767076170507      0.24995445235469
  F   0.36543381908281      1.47356709772218     -0.75519836707857
  H   -0.35350374637879     -1.36758596133703      0.70393044471050
  N   1.23395973904540      0.76827594143678      1.29084509943748
  H   2.06694037329498      1.32078058900319      1.12483576689296
  H   0.59504783550869      1.26371605590612      1.89969228402329
  N   1.69716060548690     -0.40225097590025     -0.66752837615416
  O   2.66394321475693      0.24839581952370     -1.04470755475443
  O   1.53378590971449     -1.61044657209235     -0.79319634910451
  C   -1.38367746210833     -0.66408406846009     -1.06940800569690
  H   -2.27477832317574     -1.26420917641412     -0.88089333478899
  H   -0.74370317987066     -1.20967804345479     -1.76157191855572
  H   -1.68665793400469      0.27906677608788     -1.52186799542093
  C   -1.50994810511099      0.29365098496232      1.19458989718841
  N   -2.19019223651017      0.88215087370751      1.94939626890279
