16
Coordinates from ORCA-job run
  C   0.55868301481239      0.56391761344672      0.49048448429529
  C   -0.86947155844264      0.03399752664355      0.33253888471300
  F   0.52301972183441      1.75116493260300      1.13750461938740
  H   -1.25201953495375      0.03271255394815      1.35959786579664
  N   1.38535161956133     -0.32582920378775      1.21010771882725
  H   1.65876629560592     -1.10669405521393      0.62746869424182
  H   2.21614052358879      0.16371158340380      1.52329701254875
  N   1.12600356423510      0.87654607598363     -0.92132550735775
  O   1.08612918890113      2.02927517382104     -1.32396270093533
  O   1.55477425407267     -0.10462862895423     -1.52767600689840
  C   -0.96329273809091     -1.38146207206838     -0.24276037344417
  H   -0.55835389317378     -1.42770624698594     -1.25304012493147
  H   -2.00944201052059     -1.68813073422002     -0.27376334737050
  H   -0.42563853877823     -2.08105221434609      0.39837501051587
  C   -1.67773242346219      0.97437929250266     -0.44704935716176
  N   -2.35091748518966      1.69079840322387     -1.08879687222660
