16
Coordinates from ORCA-job run
  C   0.62373324800663      0.55363479311774      0.10640986661932
  C   -0.60285012438891     -0.37080939697619      0.23066443159354
  F   0.24439335069456      1.68916182394486     -0.51945661406493
  H   -0.24924808700312     -1.29923675272319      0.69136495957038
  N   1.34157138120283      0.89619419687421      1.27765793380412
  H   0.75482099629092      1.42404610419216      1.91236173664138
  H   1.70995320804584      0.07247970291881      1.73414491655347
  N   1.60959510746037     -0.18029730698296     -0.79957636254438
  O   1.82285124349230      0.27253802027185     -1.91209641732253
  O   2.08497193012115     -1.20011743695262     -0.30660494101463
  C   -1.26024311004491     -0.67348464620366     -1.11832613963542
  H   -2.14645523301113     -1.29193336599386     -0.97136893305767
  H   -1.55403207294914      0.24983086945050     -1.61698541918948
  H   -0.56954509083438     -1.21906061969601     -1.76357700780601
  C   -1.53637480929898      0.27157948739133      1.15590412276237
  N   -2.27114193778407      0.80647452736705      1.89948386709048
