16
Coordinates from ORCA-job run
  C   0.62583701064032      0.64527262460862      0.41497819101968
  C   -0.80759876536346      0.08925232620674      0.36690382421714
  F   0.54822444452618      1.94246583911278      0.82822687427637
  H   -1.11226416828410      0.02465733303400      1.42006930769856
  N   1.53336396307923     -0.08182115657962      1.19746821219815
  H   2.15004822036398     -0.65662287143961      0.64355644371560
  H   1.10085098400991     -0.59819848315441      1.94762193170302
  N   1.16561322154560      0.70117560263830     -1.02347775781896
  O   1.87645222501131     -0.23067190359501     -1.39404696265332
  O   0.79528666639440      1.64967854275974     -1.69891103445945
  C   -0.88662174471003     -1.29531438577576     -0.28147132714875
  H   -0.66188903006353     -1.24178693724963     -1.34742586400643
  H   -1.89363912936377     -1.69791522691551     -0.16660155192177
  H   -0.18129307310378     -1.98135150742410      0.18914228562057
  C   -1.73187911317153      1.01862622157989     -0.28515677731868
  N   -2.52049171151074      1.71055398219356     -0.81187579512178
