16
Coordinates from ORCA-job run
  C   0.64866089036939      0.36177758519632      0.13662506673636
  C   -0.66846731663985     -0.41341168889724      0.19020752069728
  F   0.44353619242607      1.53827451339719     -0.56051502890239
  H   -0.42758310869737     -1.42513788786792      0.52526631175335
  N   1.25021253039195      0.54099279259414      1.38677342197164
  H   0.62678752252954      0.98513138463233      2.04888876473474
  H   2.11015606180725      1.06946751626570      1.29844669581920
  N   1.68481728660850     -0.39583959285872     -0.69978411435536
  O   1.46919689182553     -1.57124287951121     -0.97207792987867
  O   2.68373784155617      0.25092577190651     -0.98957718608411
  C   -1.39663575807482     -0.45849311545680     -1.15643920464702
  H   -1.64854983694272      0.54697680344715     -1.49052343976350
  H   -2.31747302317857     -1.03386187945016     -1.05275504049671
  H   -0.77239951144292     -0.94396101197379     -1.90540999002233
  C   -1.51225510594432      0.21551971622702      1.20877766131031
  N   -2.17174155659388      0.73288197234953      2.03109649112723
