16
Coordinates from ORCA-job run
  C   0.55295611879998      0.56320112463784      0.49726567140564
  C   -0.86878363187951      0.01749317668937      0.33619214472113
  F   0.50437525714312      1.74009539776190      1.16256454522189
  H   -1.24659815540193     -0.00717388946720      1.36464209765547
  N   1.39326785727339     -0.32694058413205      1.20125980803583
  H   1.67775708978031     -1.09295257364741      0.60428418445697
  H   2.21711183255821      0.16965071579346      1.52162328031393
  N   1.11121675104481      0.90398606010022     -0.91098074706701
  O   1.55144627023952     -0.06219316025177     -1.53312898201627
  O   1.05407677956758      2.06188520014458     -1.29642885082617
  C   -0.94631331468208     -1.38915920421349     -0.26313577947863
  H   -0.39241893843337     -2.09175222543389      0.36072647124476
  H   -0.55035908708939     -1.41198614162338     -1.27783395041014
  H   -1.98828242699180     -1.71045483967933     -0.28972291402936
  C   -1.69298323577567      0.95930536126784     -0.42440037364261
  N   -2.37946916615319      1.67499558205329     -1.05292660558543
