16
Coordinates from ORCA-job run
  C   0.63799788818175      0.63059290355518      0.40784052046612
  C   -0.79924023118951      0.07169474523355      0.36246462367209
  F   0.56275285722020      1.86307350035970      0.97005001960283
  H   -1.10676605350834      0.04635234365366      1.41630866636565
  N   1.61547374950104     -0.13479294115646      1.07751582874518
  H   1.28953396358635     -0.46525522444421      1.97523159417288
  H   1.95667895911413     -0.89184201368071      0.50354497575514
  N   1.13147439159651      0.81945888241830     -1.02741864469269
  O   0.96907368957572      1.91885352919600     -1.53315558446978
  O   1.61346105854091     -0.17727886200422     -1.56192288000656
  C   -0.90636271777154     -1.33297556080535     -0.23466066395993
  H   -0.64474960212215     -1.33482496553011     -1.29232778898745
  H   -1.93030040381515     -1.69442829460320     -0.13167915782389
  H   -0.24472916963318     -2.02190703461161      0.29207479217288
  C   -1.69770501708710      0.99980858701685     -0.32719208544487
  N   -2.44559336218961      1.70247040540266     -0.89767421556757
