18
Coordinates from ORCA-job run
  C   0.67727247061659      0.34781539973049     -0.18884956847419
  C   -0.79763540190748      0.25398205982906     -0.62245706572919
  F   1.20390328287044      1.42641650575529     -0.91822719624763
  H   -0.78508223998325      0.18561877055297     -1.71693805398154
  C   1.45986069499113     -0.88278279307368     -0.60546991357035
  H   1.20139486085987     -1.75108055968667      0.00238878679519
  H   1.28078156174210     -1.11714546963135     -1.65765947021136
  H   2.52485340336288     -0.67998235056644     -0.47750388396566
  C   0.85772668533936      0.67710476251076      1.27878342350937
  H   0.34731797015210      1.60872874201464      1.52832816542792
  H   1.92198998034237      0.80229514265115      1.48791375833109
  H   0.47449059284963     -0.12109420129547      1.91736350204457
  C   -1.50020955403834      1.49346447458714     -0.27804554145022
  N   -2.08273983607820      2.46521435228460      0.02966746023006
  C   -1.54961419840367     -0.95179911203298     -0.04930590951940
  H   -2.58407669051868     -0.94541598452062     -0.39641274913108
  H   -1.56285354725705     -0.92670549198742      1.04148449642701
  H   -1.08938003493981     -1.88463424712145     -0.37706024048465
