18
Coordinates from ORCA-job run
  C   0.53233924998610      0.03022914354154      0.34728502219812
  C   -0.84745860277677      0.21927106244717     -0.31628684615434
  F   0.29772362049730     -0.52355616268488      1.61471520308132
  H   -0.67569519597165      0.67273487124310     -1.30058747213839
  C   1.24074467347994      1.35342314381129      0.56190823262524
  H   1.43226418700003      1.85132017174867     -0.39222788329035
  H   0.64041147269587      2.01292365528299      1.19050307867141
  H   2.19593541204429      1.17777340049851      1.06078783705410
  C   1.39256108077020     -0.95716543335989     -0.41900337233903
  H   2.37511743226401     -1.02299220873842      0.05198191546946
  H   1.52610964512361     -0.63926144032625     -1.45612586230344
  H   0.94752651195130     -1.95209533732965     -0.40639245576755
  C   -1.64619924114853      1.17078106268799      0.46232265893815
  N   -2.29943428505118      1.92345823857815      1.08247647500019
  C   -1.62971699598145     -1.08814835720729     -0.48859744948914
  H   -2.64193352647191     -0.88062273651641     -0.83891360465919
  H   -1.69344191382228     -1.61154895231194      0.46577058749021
  H   -1.14585352458885     -1.73652412136467     -1.21961606438676
