18
Coordinates from ORCA-job run
  C   0.62067053554329     -0.33860056667271     -0.01672777405594
  C   -0.78976835402675     -0.08703958054563     -0.59119557105815
  F   0.75745814419262     -1.73732214668184      0.00988328374969
  H   -0.79657035384582     -0.54764628638674     -1.58658112101211
  C   0.78179363740770      0.15939869330764      1.40454714726626
  H   0.60069304842081      1.23487216117366      1.46357548333586
  H   1.79889166000906     -0.04160626659474      1.74661913734221
  H   0.09287294349467     -0.35456502586597      2.07556648395982
  C   1.69781412530867      0.19276016682386     -0.94087983261220
  H   1.56650603460965     -0.21084384848508     -1.94762704368962
  H   2.67700907556502     -0.11827884376827     -0.57147457912336
  H   1.67189387786292      1.28283231417931     -0.99116763072031
  C   -1.00299514812264      1.35015536062900     -0.76340952049471
  N   -1.17181959223392      2.50771132981968     -0.86775769884328
  C   -1.91541143979718     -0.70583465100860      0.24380234262098
  H   -1.68606853905246     -1.75332634008667      0.44027449231951
  H   -2.04231676057392     -0.18258901129152      1.19216203786500
  H   -2.85965289476172     -0.65007745854539     -0.30060963684964
