18
Coordinates from ORCA-job run
  C   0.67139736033293      0.35553191569819     -0.19102789810084
  C   -0.80705622462159      0.25497019641706     -0.61142935558252
  F   1.18233944559758      1.44708800321044     -0.91211505242554
  H   -0.80446122252893      0.19985371234658     -1.70670137514036
  C   1.45911345130035     -0.86379502635539     -0.63089706870485
  H   1.21533561289736     -1.74091093664871     -0.02966550581589
  H   2.52379265583052     -0.65314220564854     -0.51338339856475
  H   1.26950203848793     -1.08808465057373     -1.68343282918931
  C   0.86427191186221      0.66782138049146      1.27872888099508
  H   0.49391145995198     -0.14139410715750      1.91100760214739
  H   0.34941646601132      1.59225021110284      1.54522806424257
  H   1.92967623681191      0.79864624030031      1.47838484898674
  C   -1.51516425217747      1.48462538500475     -0.24417390760602
  N   -2.08516599581304      2.45650893174626      0.08573100678712
  C   -1.54289047657197     -0.96449806059705     -0.04618790252327
  H   -2.58109805366306     -0.96258911685428     -0.38198407666356
  H   -1.54445994125085     -0.95382362222963      1.04491009392180
  H   -1.07846047245717     -1.88905825025306     -0.39099212676378
