13

C	-0.424401	-0.022315	-1.456904
C	0.0	0.0	0.0
F	-1.820995	-0.148768	-1.548334
H	1.093913	0.0	0.0
H	-0.172472	0.933328	-1.925782
H	-0.333825	-0.921246	0.487698
C	0.227274	-1.167367	-2.194719
H	1.312961	-1.08304	-2.107137
H	-0.063225	-1.157352	-3.247794
H	-0.087025	-2.117427	-1.754985
C	-0.545139	1.144635	0.718924
N	-1.008307	2.064686	1.281671
Cl	3.393233	0.0	0.0
