13

C	-0.52352	-0.045823	-1.429046
C	0.0	0.0	0.0
F	-0.219482	1.156784	-2.064201
H	1.093097	0.0	0.0
H	0.024671	-0.830103	-1.960921
H	-0.30199	-0.920318	0.513243
C	-2.020345	-0.252431	-1.535229
H	-2.310869	-1.208212	-1.090549
H	-2.325439	-0.247419	-2.583948
H	-2.545504	0.553221	-1.016311
C	-0.553744	1.132419	0.734073
N	-1.060394	2.018131	1.31406
Cl	3.409183	0.0	0.0
