13

C	-0.519101	-0.023781	-1.433444
C	0.0	0.0	0.0
F	-0.111796	1.16553	-2.040874
H	1.093035	0.0	0.0
H	-0.035168	-0.8399	-1.979566
H	-0.34047	0.922471	0.480698
C	-2.02827	-0.102209	-1.55199
H	-2.321044	-0.046937	-2.602501
H	-2.483063	0.739963	-1.020629
H	-2.408599	-1.034306	-1.126571
C	-0.501949	-1.145905	0.748693
N	-0.925804	-2.084164	1.31251
Cl	3.432885	0.0	0.0
