11

C	0.0	0.0	0.0
C	-0.435383	0.006509	-1.473697
F	1.390515	0.0	0.0
H	-0.381823	1.031207	-1.857578
H	-0.353247	0.867945	0.561302
H	-0.339942	-0.914986	0.49223
H	0.340546	-0.566798	-1.996199
N	-1.728984	-0.55469	-1.807814
H	-1.803725	-1.480595	-1.403451
H	-2.495268	-0.043567	-1.372572
Cl	-4.394472	0.0	0.0
