11

C	0.0	0.0	0.0
C	-0.471307	0.157538	-1.421637
F	1.396342	0.0	0.0
H	-1.557823	0.063047	-1.408016
H	-0.350721	0.81649	0.632066
H	-0.333726	-0.95498	0.406599
H	-0.212513	1.172434	-1.764421
N	0.124198	-0.899484	-2.243807
H	-0.238496	-0.835196	-3.186573
H	1.125656	-0.751061	-2.287368
Cl	-3.735678	0.0	0.0
