18

C	-0.373094	0.047225	-1.495064
C	0.0	0.0	0.0
Cl	0.189512	-1.440473	-2.258234
H	1.090576	0.0	0.0
N	-1.883887	0.180325	-1.720886
O	-2.371765	1.219059	-1.27013
O	-2.501067	-0.673622	-2.33608
C	0.30459	1.239375	-2.143044
H	-0.062647	2.162567	-1.695282
H	1.379984	1.146687	-1.969649
H	0.099926	1.24804	-3.21551
N	-0.544548	-1.271346	0.592593
O	-1.760908	-1.432361	0.465118
O	0.215804	-2.018736	1.192657
N	-0.431166	1.07642	0.82965
H	0.326903	1.726756	0.97534
H	-1.271815	1.528579	0.504284
Br	3.455618	0.0	0.0
