18

C	-0.447909	0.015388	-1.47093
C	0.0	0.0	0.0
Cl	-0.342678	-1.542277	-2.319661
H	1.091349	0.0	0.0
N	-1.931234	0.375598	-1.51135
O	-2.647937	-0.194009	-0.692511
O	-2.314149	1.175636	-2.357227
C	0.370156	1.042119	-2.216756
H	0.07645	1.072966	-3.264346
H	0.216279	2.018361	-1.758944
H	1.421791	0.764462	-2.118544
N	-0.409163	-1.243164	0.777015
O	-1.201966	-1.103948	1.708352
O	0.123191	-2.298425	0.456458
N	-0.465311	1.200476	0.618631
H	-1.349779	1.026737	1.082564
H	0.216313	1.495893	1.306569
Br	3.437973	0.0	0.0
