18

C	-0.421913	-0.007568	-1.46499
C	0.0	0.0	0.0
Cl	0.38305	-1.314502	-2.342601
H	1.091337	0.0	0.0
N	-1.933031	-0.15922	-1.621624
O	-2.615023	0.192994	-0.659289
O	-2.373524	-0.514877	-2.705435
C	-0.041177	1.310779	-2.115172
H	1.029444	1.45836	-1.959171
H	-0.585984	2.12642	-1.641137
H	-0.257227	1.261662	-3.183531
N	-0.444775	-1.260516	0.72518
O	-0.160208	-1.30464	1.919525
O	-1.059687	-2.132675	0.112338
N	-0.384586	1.179324	0.707465
H	0.251978	1.312881	1.482105
H	-1.339988	1.126898	1.031225
Br	3.408154	0.0	0.0
