18

C	-0.461505	-0.078104	-1.476136
C	0.0	0.0	0.0
Cl	-2.186957	-0.51592	-1.569245
H	1.09038	0.0	0.0
N	-0.303984	1.329973	-2.057294
O	0.716028	1.917906	-1.720645
O	-1.133452	1.735516	-2.862264
C	0.384587	-0.961224	-2.36844
H	0.248354	-2.004842	-2.094485
H	1.433361	-0.68981	-2.205062
H	0.093338	-0.807141	-3.410347
N	-0.398877	-1.3095	0.656018
O	0.120815	-2.327431	0.20216
O	-1.202073	-1.279683	1.581256
N	-0.488954	1.082724	0.764849
H	-1.441935	1.344147	0.558041
H	0.146618	1.862774	0.710757
Br	3.456604	0.0	0.0
