18

C	-0.598027	-0.018832	-1.413876
C	0.0	0.0	0.0
Cl	-0.010142	1.461359	-2.22898
H	1.096696	0.0	0.0
N	-0.026367	-1.165176	-2.247098
O	1.134942	-1.47594	-2.042849
O	-0.772671	-1.646821	-3.096489
C	-2.105429	-0.043645	-1.453356
H	-2.453462	0.10612	-2.473215
H	-2.468876	0.75253	-0.805597
H	-2.466402	-1.010387	-1.102692
N	-0.417002	-1.24013	0.738123
O	-0.675841	-2.245799	0.07865
O	-0.424253	-1.188405	1.965404
N	-0.519146	1.14594	0.73728
H	-0.357774	0.936334	1.717525
H	0.095935	1.922274	0.515316
Br	3.459958	0.0	0.0
