18

C	-0.445782	0.003976	-1.458886
C	0.0	0.0	0.0
Cl	0.126537	-1.37705	-2.43566
H	1.093512	0.0	0.0
N	-1.982883	0.028813	-1.503007
O	-2.542165	-0.741429	-0.715769
O	-2.496909	0.389098	-2.571235
C	0.026525	1.272329	-2.150244
H	1.102962	1.358184	-1.98822
H	-0.484104	2.144768	-1.74053
H	-0.184623	1.220101	-3.217261
N	-0.37434	-1.25036	0.741412
O	0.078221	-2.305767	0.300333
O	-0.955099	-1.142907	1.819791
N	-0.460454	1.123701	0.740522
H	0.068412	1.956883	0.528617
H	-1.459291	1.278563	0.701651
Br	2.949294	0.0	0.0
