15
Coordinates from ORCA-job run
  C   -0.51441422833045      0.00144790072742      0.46105941016242
  C   0.93403226760371      0.41132717083538      0.64356926817106
  F   -1.07703493918646      0.09288253922761      1.71496947187148
  H   1.40471551312065     -0.22734721818217      1.38878741086476
  H   0.98312269717483      1.45570660600511      0.95137770418771
  N   -1.24901391793468      1.06830380439538     -0.35241880003255
  O   -1.03359388770356      2.22777741485476     -0.01794677425282
  O   -2.02990031390951      0.69163772420204     -1.21704381845867
  C   -0.74222950100825     -1.37106956313003     -0.09915819470381
  H   -0.38759540278345     -1.43953507124482     -1.12577192081863
  H   -0.21393497360940     -2.09390265685043      0.52553389915727
  H   -1.80719508794757     -1.59615029194610     -0.08385343570980
  N   1.71512499956541      0.28043044340258     -0.61578543331576
  O   1.14081327661647      0.59705393359819     -1.65609456612605
  O   2.87710349833226     -0.09856273589493     -0.51622422099659
