15
Coordinates from ORCA-job run
  C   -0.35283663905121     -0.03244696833190      0.33814171471007
  C   1.05260496273660     -0.17890649643247     -0.20160656735916
  F   -0.30662405537394      0.59188716634428      1.54526184993163
  H   1.61255094739808     -0.89760725967481      0.39426140243156
  H   1.03084632959853     -0.47640820889682     -1.24942654602511
  N   -1.18105128853657      0.83915897211417     -0.60081795783622
  O   -1.83274488438847      1.74488763269507     -0.11027178879233
  O   -1.16005179535251      0.48764315460695     -1.77558315431605
  C   -1.07324746121875     -1.35262282445081      0.47034828996419
  H   -1.13160610674085     -1.85993662939915     -0.49216830605348
  H   -2.08234232726701     -1.16756859962145      0.84298217880911
  H   -0.54535325541070     -1.98092570331441      1.18912857961677
  N   1.80240609424083      1.11100577114694     -0.12539534777529
  O   1.19908201823994      2.12042967045119     -0.47512613879299
  O   2.96836746112603      1.05141032276321      0.24927179148730
