15
Coordinates from ORCA-job run
  C   -0.37264475570912     -0.10155808525328      0.30132269323044
  C   1.07707765381383     -0.06078300269970     -0.12829229464616
  F   -0.47906111038180      0.38521296885545      1.56661836391272
  H   1.16397712488488     -0.23927108018368     -1.19949421602984
  H   1.65802431959320     -0.78912988670239      0.43487769344896
  N   -1.20907586030689      0.79257375815735     -0.60868567934654
  O   -1.06459388835548      0.57878983089391     -1.80765313137014
  O   -1.98137498636341      1.57589463530654     -0.08371080157819
  C   -0.96824040754433     -1.48716636623844      0.23277257722762
  H   -2.01526710760517     -1.43594914724256      0.53686828966900
  H   -0.43587171687862     -2.14313855504035      0.92296192626097
  H   -0.90561212331204     -1.88565747843131     -0.77940799298972
  N   1.68933321769514      1.27395337859159      0.14661765913538
  O   1.01808897946502      2.25854819990371     -0.14542812445727
  O   2.82424066100479      1.27668083008315      0.61063303753277
