15
Coordinates from ORCA-job run
  C   -0.45006570577305      0.12848202030445      0.26819539557246
  C   0.83493169022803      0.70621436698608     -0.30530684933887
  F   -0.50753538055372      0.42551164168084      1.59304882195646
  H   0.90447005935973      0.51215893276616     -1.37247722309221
  H   0.89087047347060      1.77087434543999     -0.08088816165235
  N   -1.57834759801858      0.89973367391439     -0.41725808015027
  O   -1.57439385531126      0.84124475790348     -1.64362135297992
  O   -2.38649514632103      1.47977918660702      0.29138111626400
  C   -0.70078910526493     -1.34168431414762      0.05692122783909
  H   -1.68455204837001     -1.58635599365752      0.46200980393558
  H   -0.66798149034846     -1.58900054967013     -1.00300623339437
  H   0.05519365973674     -1.92149073235074      0.58425873251756
  N   2.00217278383683      0.05849357278091      0.35635339056992
  O   2.31714506263093     -1.05575238698256     -0.05942327716705
  O   2.54537660069819      0.67379147842527      1.26881268911996
