15
Coordinates from ORCA-job run
  C   -0.43144093233358      0.10867436863645      0.30564357997057
  C   0.81627047762266      0.72653491681762     -0.30737220036332
  F   -0.40278215440474      0.31149044872597      1.64894665557313
  H   0.81508459434318      0.60961459231444     -1.38798622091646
  H   0.89059142773873      1.77236935860056     -0.01110756519435
  N   -1.59760137366184      0.92614926860844     -0.25030440218751
  O   -1.67730993006819      0.94639016692059     -1.47533031227740
  O   -2.35040248260909      1.46390683471689      0.54712101289232
  C   -0.70097286580234     -1.34304540967592      0.00771038707012
  H   -0.73327198525343     -1.51592577209633     -1.06682760204908
  H   -1.65961793555545     -1.61548252159989      0.45334428821942
  H   0.08255129460426     -1.95883593327314      0.44667295241885
  N   2.02113995601833      0.03379365688183      0.22881338379612
  O   2.30228380447386     -1.04887146617857     -0.28352651710281
  O   2.62647810488763      0.58323749060106      1.14420256015041
