15
Coordinates from ORCA-job run
  C   -0.43265153313430      0.01741510620597      0.22859265882755
  C   1.07622144217252     -0.04360421329750      0.14309678552204
  F   -0.79323478768104      0.99995902285742      1.09663489003640
  H   1.38685517405152     -0.66578175888977     -0.69553985382492
  H   1.49256290731884     -0.41573199023474      1.07759974988237
  N   -1.01572370502415      0.37082363817394     -1.13642514482355
  O   -0.62234472032991     -0.33576814932015     -2.05841029885699
  O   -1.85338051013744      1.25491600420979     -1.18588175818616
  C   -1.05185870340752     -1.29322960154446      0.65059051914800
  H   -0.71084135735150     -1.54579814748372      1.65558485685420
  H   -2.13741958990229     -1.18088731963195      0.66795207318146
  H   -0.78277984570416     -2.08964401653163     -0.04261753775243
  N   1.66450727614425      1.31269940775303     -0.07270847415298
  O   2.66979868921073      1.58827819747437      0.57297376277372
  O   1.11128926377446      2.02735382025938     -0.90244222862871
