15
Coordinates from ORCA-job run
  C   -0.47807106302485      0.04653639709749      0.24289021331789
  C   0.84319683753150      0.75741323226865     -0.00916512541012
  F   -0.67456547151568     -0.04138171487407      1.58465215575574
  H   1.02881456195406      0.86390334290892     -1.07482456948178
  H   0.84513033561556      1.71971973797223      0.50169327326077
  N   -1.54958785508835      0.98538500051065     -0.31132135306398
  O   -2.43885155216055      1.34623356683763      0.44404485872338
  O   -1.41991798342155      1.27510011577115     -1.49730868507739
  C   -0.67122740001775     -1.30316988792807     -0.39711979037969
  H   0.04504245720305     -2.01065099947654      0.01770012604618
  H   -1.68301930546064     -1.64877034190091     -0.17651250676606
  H   -0.53127733530269     -1.24119053478512     -1.47524272280577
  N   1.95439292797806     -0.04570253700954      0.57326944190327
  O   2.39893196783956      0.31198541219040      1.65982157308505
  O   2.33000887787026     -1.01641078958286     -0.08257688910749
