15
Coordinates from ORCA-job run
  C   -0.45275982745871      0.10684549013429      0.27316695845066
  C   0.86912908017833      0.70726868415652     -0.18118869735210
  F   -0.53728129138877      0.21338510749563      1.62533218075984
  H   0.95724462488718      1.72638357931334      0.19387693961373
  H   0.96239139973462      0.66343600275879     -1.26319986536765
  N   -1.53074773845337      1.01394517195932     -0.32012535196041
  O   -2.33489275810941      1.52213355491442      0.44586039002158
  O   -1.49495221136427      1.12873184018741     -1.54196939609283
  C   -0.75157194619962     -1.30649607147661     -0.15346339259466
  H   -1.75448994593375     -1.56680302609035      0.19032115915458
  H   -0.03244374103532     -1.98651214390180      0.30061793733656
  H   -0.69897649477712     -1.40017858631228     -1.23705436571962
  N   1.99176896622840     -0.07418836661972      0.40899224952905
  O   2.52956984738897      0.38296542340687      1.41294319378741
  O   2.27801203630283     -1.12991665992583     -0.15410993956612
