15
Coordinates from ORCA-job run
  C   -0.44105617612137      0.00404259678717      0.21294305024126
  C   1.07091742700134     -0.02174698378806      0.18228607857133
  F   -0.85545083382096      0.96343918650249      1.08276545313956
  H   1.42633101802222     -0.62376977020975     -0.65325120691673
  H   1.46093081701331     -0.39899990301654      1.12607022074652
  N   -0.98189779575022      0.36695776953731     -1.16671366291483
  O   -1.83740181461981      1.23267547457474     -1.23289039699419
  O   -0.53890257737511     -0.31498663766796     -2.08468389787419
  C   -1.04496826014870     -1.32723302704199      0.59055900721642
  H   -0.72899644032178     -2.10635023798759     -0.10250099889780
  H   -2.13275668055489     -1.24092950542403      0.56559426044662
  H   -0.73859318049509     -1.58702099177461      1.60483953258749
  N   1.63518601416202      1.35054956020912      0.00886894293391
  O   1.09651227733831      2.06597726306347     -0.82977285002672
  O   2.60914620567073      1.63839520623622      0.69588646774134
