15
Coordinates from ORCA-job run
  C   -0.50640230112055      0.00427190703355      0.50239989594253
  C   0.94303561465696      0.46855419896610      0.60040330032660
  F   -1.00889364854477      0.14695715034245      1.76325219661573
  H   0.97055111714631      1.51232823832106      0.91045682291006
  H   1.44866947191457     -0.16341779733233      1.33095719652719
  N   -1.25356630891893      0.98765623732607     -0.38937925459786
  O   -0.90013103583715      0.97064655052711     -1.56478240125636
  O   -2.11203315491688      1.69472899301269      0.11634184787172
  C   -0.76591789068555     -1.39116365495765      0.00504842451264
  H   -0.23637562825568     -2.10302805562695      0.63903992175643
  H   -1.83865489338660     -1.58335957652637      0.07234151202427
  H   -0.43281948871686     -1.51200188416353     -1.02198841570832
  N   1.70187251771985      0.35385918317455     -0.67583046701128
  O   2.03640585983989      1.39832555629904     -1.22540601811230
  O   1.95225976910540     -0.78535704639581     -1.06185456180104
