15
Coordinates from ORCA-job run
  C   -0.52187263310828     -0.00105081044219      0.45212653699395
  C   0.92918311969696      0.38298145663198      0.66708696360150
  F   -1.10371647849477      0.07239816194711      1.69850250302485
  H   0.98828023228177      1.41960502484441      0.99850691983964
  H   1.37793883629832     -0.27856115410525      1.40587248410016
  N   -1.22693329704063      1.09397962037867     -0.35025168504025
  O   -0.99886125921294      2.24271062208667      0.01174262526408
  O   -1.99976654003749      0.74769306981906     -1.23451409039403
  C   -0.76124290210790     -1.35770348172498     -0.14074303946924
  H   -1.82976072754621     -1.56566514800224     -0.14902448234843
  H   -0.25588323845372     -2.10166620177974      0.47810638174453
  H   -0.38933147205963     -1.41098358109099     -1.16213983726042
  N   1.72941622876625      0.26857054147060     -0.58170601176702
  O   1.17582877862305      0.61195744528704     -1.62475718933835
  O   2.88572135239522     -0.12426556532015     -0.47080807895096
