17

C	0.0	0.0	0.0
C	-0.560944	0.101542	-1.423655
Cl	1.763818	0.0	0.0
H	-1.646544	0.29202	-1.202838
N	-0.348145	1.338095	0.739897
O	-0.814385	2.252528	0.073691
O	-0.092832	1.377175	1.93365
N	-0.574801	-1.015515	0.787236
H	-1.61485	-0.836841	0.672239
H	-0.341929	-1.920931	0.394375
C	-0.446171	-1.229852	-2.164993
H	-0.787561	-1.106383	-3.195117
H	0.585324	-1.591913	-2.188787
H	-1.088984	-1.970196	-1.689003
C	0.026099	1.159483	-2.231699
N	0.505028	1.935144	-2.973601
H	-2.949002	0.0	0.0
