17

C	0.0	0.0	0.0
C	-0.54826	0.078799	-1.418778
Cl	1.815195	0.0	0.0
H	-1.618871	0.347528	-1.223933
N	-0.276529	1.384242	0.719788
O	-0.442338	2.384635	0.035621
O	-0.280206	1.34646	1.945323
N	-0.600446	-1.038845	0.68659
H	-1.648766	-0.823968	0.543284
H	-0.383988	-0.954609	1.675165
C	-0.529162	-1.292848	-2.097715
H	0.47765	-1.717629	-2.101895
H	-0.874709	-1.19037	-3.129534
H	-1.199391	-1.962383	-1.561564
C	0.10667	1.060354	-2.271145
N	0.603999	1.772164	-3.063614
H	-2.9088	0.0	0.0
