17

C	0.0	0.0	0.0
C	-0.235359	0.150643	-1.56865
Cl	1.78885	0.0	0.0
H	0.458579	0.927073	-1.897079
N	-0.364142	1.353699	0.655429
O	-0.339843	2.34386	-0.070907
O	-0.560761	1.35499	1.859122
N	-0.661967	-0.996773	0.692629
H	-0.497942	-1.888875	0.234734
H	-1.718836	-0.706936	0.542718
C	-1.602592	0.484591	-2.17358
H	-1.436491	0.650421	-3.247557
H	-2.014696	1.379258	-1.718486
H	-2.3278	-0.305255	-2.008151
C	0.226099	-1.110193	-2.159871
N	0.551266	-2.124333	-2.656666
H	-2.957648	0.0	0.0
