13
Coordinates from ORCA-job run
  C   -0.44156415698170     -0.37876923527964     -0.51686822331081
  C   0.97078493407952      0.03344008932032     -0.04248511044527
  Cl  -0.42584044303801     -2.05236863538318     -1.06723265002068
  H   1.60775875880775     -0.02051244384346     -0.93578259530749
  C   -0.89666491442985      0.50723162548082     -1.57891709498649
  N   -1.21560696160675      1.23730205891544     -2.44420229319512
  N   -1.46058087171981     -0.27447474363182      0.64416121230102
  O   -2.63063054309957     -0.36677212880851      0.31423902431220
  O   -0.99523656302769     -0.13433205333801      1.76515422384087
  C   1.52496435828246     -0.88595666310378      0.95426796348784
  N   2.03346404623022     -1.62798962631084      1.70876479295717
  C   0.96612296519104      1.41996560876459      0.43147849456048
  N   0.96502939131241      2.54523614721810      0.76742225580628
