13
Coordinates from ORCA-job run
  C   -0.43450994020043     -0.42504595810706     -0.35452579883004
  C   0.74158631819632      0.39562081945743      0.23791022792228
  Cl  -0.18867866897195     -2.13838487026681     -0.15474350645385
  H   0.49961748066514      1.45385205705005      0.08040180100551
  C   -0.63975477318647     -0.07302274434810     -1.75205600236839
  N   -0.78655948092216      0.21942012216600     -2.88182957607432
  N   -1.69883929226375      0.05799435295288      0.42980892503881
  O   -1.90018827118222      1.25817961720685      0.30785504090849
  O   -2.32840807249941     -0.75555444218291      1.07494156813514
  C   1.98471958571710      0.07401217920821     -0.46256910762464
  N   2.97860946359400     -0.17488086586984     -1.03651629835020
  C   0.85212355751633      0.14750914317161      1.67733961766439
  N   0.92028209353750     -0.03869941043830      2.83498310902683
