13
Coordinates from ORCA-job run
  C   -0.43841758915546     -0.39782455665948     -0.37966911469532
  C   0.75107099885266      0.34001874829466      0.28983253453322
  Cl  -0.35595558533272     -2.11865230814957     -0.12015036885273
  H   0.61384592502908      1.40973246825550      0.08916043005745
  C   -0.49981111482021     -0.07278368383830     -1.79727417593689
  N   -0.53033567902407      0.19093595148663     -2.94307656248453
  N   -1.71691790158071      0.21171360451750      0.28537191747722
  O   -2.46440267911334     -0.52755364517225      0.89298874988719
  O   -1.80455582042917      1.42036531477203      0.11953993707162
  C   2.01531571381928     -0.10348324371240     -0.29727907574446
  N   3.02882675485179     -0.44807733223192     -0.78019459241650
  C   0.72260766078376      0.12614187746299      1.73869317214148
  N   0.67872931611911     -0.02953319502538      2.90205714896223
