13

C	0.0	0.0	0.0
C	-0.509792	-0.028945	-1.430439
Br	1.959053	0.0	0.0
H	-1.610871	-0.091451	-1.25914
H	-0.290401	-0.931	0.480499
H	-0.206593	0.853121	-1.993531
N	-0.542644	1.091299	0.750051
H	-0.368515	1.951848	0.236307
H	-1.567923	0.863033	0.665541
N	-0.054685	-1.204316	-2.199078
O	0.331524	-1.028736	-3.358318
O	-0.115793	-2.304197	-1.648634
F	-2.796896	0.0	0.0
