13

C	0.0	0.0	0.0
C	-0.511336	0.087834	-1.436315
Br	1.979005	0.0	0.0
H	-1.610434	0.164027	-1.250362
H	-0.280636	-0.998711	0.332665
H	-0.240755	-0.786242	-2.024015
N	-0.52103	0.941203	0.932041
H	-0.388511	1.868956	0.541676
H	-1.543722	0.719833	0.849885
N	-0.006171	1.25462	-2.179037
O	0.498652	1.064646	-3.288225
O	-0.118127	2.368264	-1.660889
F	-2.784041	0.0	0.0
