13

C	0.0	0.0	0.0
C	-0.521295	-0.057467	-1.434929
Br	1.950153	0.0	0.0
H	-0.240105	-0.979784	-1.940133
H	-0.284901	-0.961591	0.428157
H	-1.623973	0.019502	-1.261014
N	-0.531856	1.023946	0.843053
H	-1.552941	0.796079	0.763598
H	-0.387857	1.911601	0.37393
N	-0.049787	1.036704	-2.303766
O	-0.085811	2.189162	-1.867221
O	0.332587	0.74839	-3.440686
F	-2.799381	0.0	0.0
