17

C	-0.473393	-0.004987	-1.433643
C	0.0	0.0	0.0
F	-0.22717	-1.216116	-2.016253
H	1.106754	0.0	0.0
N	-1.959209	0.199975	-1.652041
O	-2.675536	-0.647787	-0.986938
O	-2.283828	0.435776	-2.874918
N	0.27234	1.033433	-2.194497
O	1.525873	0.709176	-2.376846
O	-0.023363	2.231064	-1.827156
N	-0.458091	-1.211114	0.693113
H	0.007655	-2.025975	0.292741
H	-0.133802	-1.145043	1.660545
N	-0.455638	1.193909	0.67544
H	-1.450164	1.098705	0.899337
H	0.047995	1.284128	1.561379
Br	2.694932	0.0	0.0
