17

C	-0.410042	0.00042	-1.465981
C	0.0	0.0	0.0
F	0.237162	0.951542	-2.151704
H	1.096746	0.0	0.0
N	-0.155719	-1.298792	-2.202989
O	-0.94345	-1.565141	-3.112663
O	0.851265	-1.912278	-1.894187
N	-1.899086	0.27	-1.625649
O	-2.237091	1.236587	-2.294164
O	-2.645667	-0.490746	-1.016922
N	-0.463744	-1.207661	0.639364
H	0.18472	-1.418885	1.386725
H	-1.382662	-1.064907	1.037861
N	-0.398062	1.238056	0.655426
H	0.203581	1.995405	0.36159
H	-1.364589	1.484693	0.479331
Br	3.524706	0.0	0.0
