17

C	-0.397251	0.129055	-1.471208
C	0.0	0.0	0.0
F	0.154842	-0.85388	-2.191752
H	1.105913	0.0	0.0
N	-1.899649	0.038295	-1.658157
O	-2.530939	0.988961	-1.20003
O	-2.358431	-0.947289	-2.209993
N	-0.020306	1.42947	-2.159695
O	-0.280028	1.460101	-3.359284
O	0.507638	2.316199	-1.501426
N	-0.58157	-1.281843	0.407341
H	-0.522487	-1.280469	1.418644
H	0.016625	-2.030684	0.071758
N	-0.460181	1.018041	0.903361
H	-1.407159	1.304885	0.692047
H	0.156763	1.815073	0.843271
Br	3.508307	0.0	0.0
