17

C	-0.553269	-0.010918	-1.412652
C	0.0	0.0	0.0
F	-1.897027	-0.034598	-1.410201
H	1.093299	0.0	0.0
N	-0.130079	1.171512	-2.258189
O	-0.743569	1.291154	-3.315323
O	0.775434	1.878465	-1.844918
N	-0.0933	-1.226908	-2.196671
O	-0.864615	-2.179099	-2.225478
O	1.018557	-1.155551	-2.696825
N	-0.440003	-1.188313	0.710939
H	0.315622	-1.856248	0.750973
H	-1.252514	-1.62052	0.292402
N	-0.518306	1.226698	0.607795
H	0.271475	1.817985	0.830221
H	-0.966614	0.95162	1.472356
Br	3.499772	0.0	0.0
