17

C	-0.444865	0.084527	-1.445814
C	0.0	0.0	0.0
F	0.004304	1.200836	-2.04353
H	1.103176	0.0	0.0
N	0.013061	-1.075847	-2.30849
O	0.659804	-1.972563	-1.790679
O	-0.299467	-0.972513	-3.491719
N	-1.958903	0.093948	-1.561999
O	-2.522878	-0.990552	-1.627293
O	-2.487282	1.20102	-1.523858
N	-0.537438	-1.201116	0.606136
H	-1.09057	-0.919939	1.406074
H	0.222863	-1.803013	0.893561
N	-0.49815	1.187771	0.709007
H	-0.606934	1.967565	0.069546
H	0.246009	1.454791	1.347102
Br	3.480238	0.0	0.0
