15
Coordinates from ORCA-job run
  C   -0.55931119611779      0.21550950666872     -0.31869864062652
  C   0.71863860579979     -0.07545680207687      0.50075967854386
  Br  -0.08383683041335      1.22500735638206     -1.92551327803979
  H   0.41494220706260     -0.52747090326357      1.45102877891381
  C   -1.49528298018182      1.01917185993912      0.46293846598651
  N   -2.31476301981929      1.60772303077028      1.06688137863316
  C   -1.22648612782655     -1.09758659215668     -0.72936949569467
  H   -1.47116801901781     -1.68084166590754      0.16329284436743
  H   -0.56255168007103     -1.67533648469997     -1.37321398310920
  H   -2.14757581860737     -0.88287567099582     -1.27140709304525
  N   1.43019353023825      1.20874766086984      0.88648953539308
  O   0.88428655010995      1.84454297296143      1.78084312796084
  O   2.45043819593711      1.50163369651626      0.27846658793145
  C   1.62988059067113     -0.96003580876094     -0.21045553275116
  N   2.33159599223618     -1.72373215624633     -0.76204237446355
