15
Coordinates from ORCA-job run
  C   -0.74192906440892      0.21600295191048     -0.09702008416747
  C   0.68777253212695      0.64346741516140      0.30298606409694
  Br  -1.79138309229451      1.87444334496495     -0.13281922229853
  H   1.04197578255754      1.39666577758335     -0.40326079025262
  C   -1.33326294760695     -0.66252029393021      0.90633306640466
  N   -1.83289708680122     -1.39497046058560      1.67886148554163
  C   -0.77090831772240     -0.43119141651399     -1.47812141928734
  H   -0.25033425895404     -1.39137135408101     -1.45306413608642
  H   -0.29158889528007      0.22080218721575     -2.21037134499071
  H   -1.80456198846077     -0.60602184171716     -1.77651747402208
  N   1.60818989957480     -0.54877516977370      0.12634860586770
  O   1.53900640165727     -1.42984501363381      0.97461699973000
  O   2.30170658001848     -0.54062873177437     -0.88536018316373
  C   0.77725228368698      1.12549622020073      1.67370111975462
  N   0.85996217190686      1.52944638497320      2.77368731287334
