15
Coordinates from ORCA-job run
  C   -0.50012176548314      0.18385542534087     -0.42056045930586
  C   0.66276527039540     -0.01754355896491      0.57834005395730
  Br  0.22480144989707      0.68262276237827     -2.16758040317719
  H   0.23063140706439     -0.16930351882343      1.57319228394872
  C   -1.38008832111006      1.25844579447481      0.03095357870916
  N   -2.15968539997555      2.06620289182215      0.38098029534735
  C   -1.29991326186379     -1.11192139037688     -0.55908776051911
  H   -2.14203222010970     -0.94864807296012     -1.23185086644893
  H   -0.67068825426197     -1.90492600848858     -0.96441467256729
  H   -1.68482712954106     -1.41262474430056      0.41986626211683
  N   1.50554600841709      1.23823117711997      0.70294318430174
  O   0.98080837828572      2.14238462547177      1.34274240937213
  O   2.59976993700573      1.24891140340012      0.15610345755723
  C   1.49998444663934     -1.15083814237677      0.21290336979522
  N   2.13204945464053     -2.10384864371671     -0.05553073308728
