15
Coordinates from ORCA-job run
  C   -0.57588970881029      0.20501278188848     -0.29536900771090
  C   0.75339654155421     -0.05244883653848      0.45143405007382
  Br  -0.19758506960703      1.04390121910106     -2.02150080811932
  H   0.51146323933348     -0.40197125339086      1.46078623355526
  C   -1.42608090846261      1.10905624963999      0.47455274482629
  N   -2.17949109475295      1.77548669168420      1.08363470173538
  C   -1.30900431790031     -1.11643821926696     -0.52816258173618
  H   -0.71211488112384     -1.77620279677294     -1.15860807467598
  H   -2.26110453081549     -0.92074703314675     -1.02155120994067
  H   -1.50395650262574     -1.60310835992478      0.43199457029792
  N   1.52881628368723      1.23542843150372      0.65626861011184
  O   2.50627482979645      1.43317578999056     -0.05213692481459
  O   1.07236658274151      1.97242283438040      1.52275246072944
  C   1.58002866589674     -1.03285101486913     -0.23732059180060
  N   2.21188087108865     -1.86971648427852     -0.76677417253172
