15
Coordinates from ORCA-job run
  C   -0.32130715458307      0.17505869952612      0.23554817858909
  C   1.20942521042252      0.32057905701450      0.21068477535143
  H   -0.65632753246556      0.37790519549640      1.25996992673783
  H   1.49948158267367      1.34439589482682      0.46746073502109
  H   1.58205675271245      0.12490203795086     -0.80116663843248
  C   -0.74330306798583     -1.24012686296669     -0.14544715261380
  H   -1.83146935254779     -1.33729463076856     -0.11889778495292
  H   -0.32211537278273     -1.98387092578733      0.53475322571445
  H   -0.41025560812175     -1.47953282022132     -1.16062124690995
  C   -0.94243223003709      1.21155651752699     -0.69636816116841
  H   -0.61776660449060      1.04587835353566     -1.72858940008514
  H   -2.03301488326962      1.14734885637704     -0.67604367932068
  H   -0.66070305160189      2.22887862624494     -0.41132977847782
  C   1.87227999457799     -0.59605958618055      1.13734180403515
  N   2.37445131749929     -1.34161841257489      1.89170519651215
