15
Coordinates from ORCA-job run
  C   -0.35610441641078      0.04598771685052      0.24269546585014
  C   1.11397652904002     -0.30689198141884      0.52311798466511
  H   -0.75528194454627      0.53688644362386      1.13850735912031
  H   1.18397954046540     -1.01883800775523      1.35176458595893
  H   1.55194868184627     -0.79242778385113     -0.35641016105736
  C   -1.14597266749969     -1.23598128130170     -0.00472782815996
  H   -1.08335895445960     -1.91768427611732      0.84785355948878
  H   -2.20142248782736     -1.01342321252018     -0.17911100139986
  H   -0.76522276921137     -1.75986168409480     -0.88718539010552
  C   -0.47274790452311      1.00819667144643     -0.93484461932641
  H   0.07195131803263      1.93730527869172     -0.75246655431782
  H   -0.07125612512173      0.55063178935148     -1.84488130535351
  H   -1.51892630374107      1.26245304818523     -1.12210587903246
  C   1.91645534940720      0.86998092274823      0.85562762244671
  N   2.53098215454946      1.83366635616174      1.12216616122292
