10
Coordinates from ORCA-job run
  C   0.03701642217896      0.35619787412617     -0.20973956143192
  C   -0.69667428492491     -0.93034997601260      0.17742165437514
  Br  -1.04148765303884      1.35312747497568     -1.51856608531494
  H   -0.84759724978708     -1.54546000035504     -0.70983827482174
  H   -0.09603814174332     -1.48039617860129      0.90541480015744
  H   -1.66297373966096     -0.68105235996343      0.61636963128326
  C   1.32913718031135      0.05793974750286     -0.82761995697896
  N   2.36415794790727     -0.22479158603960     -1.30725730788914
  C   0.23435795241712      1.21780226317617      0.95620659795275
  N   0.38010156634040      1.87798274119108      1.91760850266813
