10
Coordinates from ORCA-job run
  C   0.02032619855599      0.36359802753615     -0.19955520672410
  C   -0.65889738705820     -0.95573227378707      0.17709284576453
  Br  -1.13656292057768      1.36031501440447     -1.44062966058209
  H   -0.83024005729692     -1.54709684030451     -0.72236605623675
  H   -0.01220658777281     -1.51022699316164      0.86070342186420
  H   -1.61183221362931     -0.74904108629565      0.66430295769989
  C   1.29585937071351      0.12219151784873     -0.87379400552892
  N   2.31539982430838     -0.11969161788197     -1.40607558929013
  C   0.23266351749166      1.19956983656484      0.98197555786902
  N   0.38749025526540      1.83511441507665      1.95834573516436
