10
Coordinates from ORCA-job run
  C   -0.00033997983293      0.36027548325489     -0.20689417803611
  C   -0.60652915717382     -0.98546486985240      0.19979712201512
  Br  -1.21289602215814      1.26764297761059     -1.46331837708844
  H   -0.74194119297749     -1.60665015523652     -0.68577250643828
  H   -1.57100487328722     -0.82057359349905      0.68045892074931
  H   0.06818400958404     -1.48665488938833      0.89758300178279
  C   1.28380226804781      0.17324798655550     -0.88199458172527
  N   2.31241306806143     -0.02565773266881     -1.41466853428212
  C   0.17104634324078      1.23075290155375      0.95609344416619
  N   0.29726553649553      1.89308189167037      1.91871568885680
