14

C	-0.497178	-0.065727	-1.443557
C	0.0	0.0	0.0
Cl	-0.026797	1.437678	-2.283262
H	1.101461	0.0	0.0
H	-0.001821	-0.884009	-1.962675
C	-1.947873	-0.229881	-1.518009
N	-3.111461	-0.371194	-1.585425
N	-0.390763	-1.287945	0.667541
O	-0.623325	-1.268426	1.87373
O	-0.39795	-2.298725	-0.032888
N	-0.576794	1.114927	0.713335
H	-0.680033	0.835154	1.681387
H	0.108178	1.863195	0.693654
Cl	3.242024	0.0	0.0
