14

C	-0.614168	0.073438	-1.394144
C	0.0	0.0	0.0
Cl	-0.16165	-1.334153	-2.391704
H	1.090042	0.0	0.0
H	-1.702451	0.0436	-1.291508
C	-0.244002	1.314461	-2.06594
N	-0.022719	2.303603	-2.657748
N	-0.496644	-1.306241	0.600841
O	0.312702	-2.153211	0.952711
O	-1.724426	-1.399662	0.719599
N	-0.466322	1.119971	0.755277
H	0.18144	1.326109	1.503019
H	-1.400379	0.968321	1.111616
Cl	3.306723	0.0	0.0
