14

C	-0.367281	0.049939	-1.493023
C	0.0	0.0	0.0
Cl	-1.992925	0.729631	-1.863601
H	1.091429	0.0	0.0
H	0.347929	0.744416	-1.941975
C	-0.236102	-1.240932	-2.156097
N	-0.149241	-2.279655	-2.695592
N	-0.569487	-1.244539	0.621205
O	0.131655	-1.869077	1.406525
O	-1.744574	-1.506446	0.342963
N	-0.422497	1.107418	0.795407
H	-1.274596	1.536507	0.461133
H	0.328623	1.776038	0.888581
Cl	3.252611	0.0	0.0
