15

C	-0.429538	0.007263	-1.479625
C	0.0	0.0	0.0
Br	0.389137	-1.555049	-2.370726
H	1.096534	0.0	0.0
C	-1.938755	-0.078038	-1.68208
H	-2.182606	-0.084916	-2.746644
H	-2.317104	-0.991587	-1.221059
H	-2.4114	0.787124	-1.208514
C	0.094247	1.202801	-2.142713
N	0.490138	2.185447	-2.652712
C	-0.491074	-1.17581	0.688308
N	-0.831026	-2.147384	1.26043
C	-0.456857	1.207369	0.658121
N	-0.775495	2.209971	1.1883
H	2.441106	0.0	0.0
