15

C	-0.335252	0.012461	-1.488865
C	0.0	0.0	0.0
Br	-2.31129	0.07833	-1.817492
H	1.09951	0.0	0.0
C	0.324369	1.211677	-2.148901
H	-0.108391	2.133116	-1.755724
H	0.18962	1.181374	-3.230682
H	1.388635	1.164585	-1.883908
C	0.116461	-1.235449	-2.101773
N	0.477569	-2.234102	-2.606424
C	-0.476171	-1.178641	0.694998
N	-0.806252	-2.157634	1.258106
C	-0.433729	1.217074	0.657833
N	-0.749444	2.232807	1.161019
H	2.46858	0.0	0.0
