15

C	-0.347031	-0.019325	-1.503148
C	0.0	0.0	0.0
Br	0.323595	1.658514	-2.303278
H	1.097283	0.0	0.0
C	0.36621	-1.192977	-2.166403
H	-0.046373	-2.131014	-1.785642
H	1.424418	-1.123544	-1.895923
H	0.236594	-1.155294	-3.248852
C	-1.785789	-0.040117	-1.750284
N	-2.941333	-0.114164	-1.958733
C	-0.441631	-1.232704	0.627367
N	-0.780486	-2.252965	1.10701
C	-0.519646	1.152738	0.708591
N	-0.893138	2.091999	1.311298
H	2.498071	0.0	0.0
