15

C	-0.346293	-0.004294	-1.503493
C	0.0	0.0	0.0
Br	0.315983	1.685357	-2.284585
H	1.097279	0.0	0.0
C	0.371538	-1.166792	-2.180967
H	-0.038211	-2.111005	-1.812177
H	0.24345	-1.115755	-3.26331
H	1.429412	-1.097071	-1.908431
C	-1.785646	-0.027805	-1.74935
N	-2.944388	-0.098092	-1.941915
C	-0.430155	-1.243276	0.613992
N	-0.749749	-2.266254	1.101285
C	-0.532394	1.139118	0.720918
N	-0.912598	2.070575	1.331427
H	2.495859	0.0	0.0
