15

C	-0.426462	0.033034	-1.481306
C	0.0	0.0	0.0
Br	0.409966	-1.503206	-2.401791
H	1.096511	0.0	0.0
C	-1.934552	-0.062353	-1.69404
H	-2.306127	-0.990187	-1.254075
H	-2.420217	0.788857	-1.207241
H	-2.170511	-0.051424	-2.760565
C	0.090989	1.246521	-2.115963
N	0.45224	2.24498	-2.622009
C	-0.483952	-1.197346	0.660346
N	-0.822902	-2.179941	1.213864
C	-0.498634	1.18272	0.678333
N	-0.890764	2.148467	1.227119
H	2.44675	0.0	0.0
