14

C	-0.277867	0.063003	-1.510191
C	0.0	0.0	0.0
Cl	0.057999	-1.552169	-2.240829
H	1.09366	0.0	0.0
H	-0.325231	0.950804	0.438434
C	-1.669457	0.387237	-1.834858
N	-2.776903	0.705622	-2.069273
C	0.705592	1.069956	-2.104872
H	1.689526	0.804324	-1.693075
H	0.683026	1.046483	-3.195498
H	0.437253	2.073512	-1.759688
C	-0.64301	-1.095125	0.691972
N	-1.162557	-1.97063	1.279758
F	2.600031	0.0	0.0
