14

C	-0.274719	0.115381	-1.511135
C	0.0	0.0	0.0
Cl	0.093649	-1.494069	-2.241726
H	1.097819	0.0	0.0
H	-0.418429	-0.919993	0.412138
C	-1.674801	0.403179	-1.835155
N	-2.794891	0.675728	-2.068585
C	0.687681	1.142643	-2.100335
H	1.677972	0.879682	-1.703258
H	0.657324	1.13558	-3.192344
H	0.410903	2.135622	-1.736114
C	-0.506969	1.156418	0.712286
N	-0.899518	2.100859	1.293377
F	2.589115	0.0	0.0
