14

C	-0.262208	-0.09229	-1.49877
C	0.0	0.0	0.0
Cl	-1.986754	-0.572221	-1.871346
H	1.099192	0.0	0.0
H	-0.326723	-0.935361	0.46517
C	-0.058481	1.204114	-2.14953
N	0.104869	2.226209	-2.705553
C	0.701391	-1.12303	-2.079621
H	0.435017	-2.109476	-1.692062
H	0.659234	-1.140568	-3.16967
H	1.69331	-0.84746	-1.694773
C	-0.626754	1.127097	0.653836
N	-1.128097	2.038274	1.202068
F	2.589982	0.0	0.0
