14

C	-0.217196	-0.054284	-1.511339
C	0.0	0.0	0.0
Cl	-1.958144	-0.331339	-1.987356
H	1.095462	0.0	0.0
H	-0.40916	0.910246	0.441909
C	0.142662	1.251777	-2.071409
N	0.414405	2.302086	-2.522537
C	0.669235	-1.141948	-2.103144
H	0.320496	-2.114946	-1.750499
H	0.650392	-1.122935	-3.194609
H	1.670448	-0.944112	-1.696977
C	-0.51608	-1.176215	0.668056
N	-0.921013	-2.133608	1.217488
F	2.580205	0.0	0.0
