14

C	0.0	0.0	0.0
C	-0.517425	0.063312	-1.445322
Br	1.938976	0.0	0.0
H	-1.619768	0.122611	-1.255477
H	-0.14027	0.936007	-1.975667
N	-0.378168	1.356089	0.64964
O	-0.663923	1.358464	1.834594
O	-0.303813	2.344855	-0.074068
N	-0.537467	-1.019502	0.801595
H	-0.300176	-1.912659	0.383346
H	-1.575523	-0.826968	0.68376
C	-0.178344	-1.154498	-2.158931
N	0.092174	-2.141655	-2.736549
F	-2.758917	0.0	0.0
