14

C	0.0	0.0	0.0
C	-0.514259	-0.301469	-1.416012
Br	1.932607	0.0	0.0
H	-0.129231	0.404771	-2.150963
H	-1.615582	-0.191964	-1.25482
N	-0.386177	1.471364	0.294057
O	-0.36373	2.242774	-0.659765
O	-0.623454	1.776537	1.448841
N	-0.53344	-0.793388	1.030938
H	-0.281965	-1.760131	0.852716
H	-1.571458	-0.645345	0.86799
C	-0.174589	-1.662855	-1.791988
N	0.10624	-2.76727	-2.077394
F	-2.750562	0.0	0.0
