14

C	0.0	0.0	0.0
C	-0.531379	-0.008695	-1.429086
Br	1.937691	0.0	0.0
H	-0.367551	-1.026208	-1.792821
H	-1.624762	0.139448	-1.264084
N	-0.358961	1.370215	0.665677
O	-0.390557	1.374325	1.890861
O	-0.558213	2.335888	-0.057586
N	-0.54777	-1.074054	0.705078
H	-1.588576	-0.876631	0.578825
H	-0.29074	-0.991245	1.682859
C	0.063905	0.930431	-2.363617
N	0.505821	1.647919	-3.182451
F	-2.770539	0.0	0.0
