15

C	-0.533724	-0.106996	-1.420279
C	0.0	0.0	0.0
F	-0.196076	1.038556	-2.079129
H	1.090269	0.0	0.0
H	-0.306401	0.988357	0.359675
N	0.144744	-1.256923	-2.152501
O	0.629228	-1.034399	-3.252306
O	0.073039	-2.341918	-1.585285
C	-2.023955	-0.326028	-1.548779
H	-2.293024	-0.33709	-2.607298
H	-2.545236	0.498668	-1.058395
H	-2.31569	-1.265877	-1.082309
C	-0.544352	-1.002401	0.905063
N	-1.029472	-1.763122	1.656265
Br	3.459759	0.0	0.0
