15

C	-0.405828	0.054729	-1.461637
C	0.0	0.0	0.0
F	-0.202803	-1.156682	-2.046972
H	1.09347	0.0	0.0
H	-0.328303	0.91596	0.495162
N	-1.909171	0.3261	-1.563044
O	-2.611427	-0.473561	-2.170005
O	-2.294281	1.364014	-1.029247
C	0.332477	1.124023	-2.226885
H	0.102894	2.108417	-1.819794
H	0.043364	1.082412	-3.279651
H	1.4027	0.930438	-2.117604
C	-0.56084	-1.157401	0.682426
N	-1.042733	-2.074416	1.234438
Br	3.479632	0.0	0.0
