15

C	-0.521892	-0.003555	-1.427123
C	0.0	0.0	0.0
F	-0.037688	1.070668	-2.104455
H	1.094279	0.0	0.0
H	-0.325113	-0.913898	0.50153
N	0.018412	-1.253336	-2.116451
O	-0.245609	-2.313626	-1.554098
O	0.599138	-1.118464	-3.183024
C	-2.02659	-0.037583	-1.576658
H	-2.445484	0.866343	-1.132367
H	-2.438644	-0.916012	-1.080635
H	-2.281283	-0.062729	-2.638657
C	-0.521487	1.158363	0.71271
N	-0.982423	2.07978	1.275888
Br	3.468153	0.0	0.0
