15

C	-0.53564	0.0263	-1.423512
C	0.0	0.0	0.0
F	-0.102358	1.1792	-2.006517
H	1.092451	0.0	0.0
H	-0.296771	0.957191	0.442723
N	0.047907	-1.126	-2.231166
O	0.652912	-0.865528	-3.259097
O	-0.213923	-2.24362	-1.795744
C	-2.038687	-0.054584	-1.558444
H	-2.480708	0.797668	-1.038807
H	-2.416072	-0.979992	-1.126991
H	-2.308332	-0.001729	-2.615911
C	-0.555729	-1.066931	0.819709
N	-1.051139	-1.87947	1.507127
Br	3.457985	0.0	0.0
