15

C	-0.487136	-0.195191	-1.425219
C	0.0	0.0	0.0
F	-1.790303	-0.629663	-1.419582
H	1.090922	0.0	0.0
H	-0.305056	-0.897241	0.549635
N	-0.502175	1.15404	-2.140454
O	0.597157	1.625848	-2.39685
O	-1.590999	1.662039	-2.386565
C	0.377204	-1.153791	-2.205091
H	0.3014	-2.142215	-1.746065
H	0.015257	-1.212194	-3.231793
H	1.417331	-0.828707	-2.181233
C	-0.572126	1.168535	0.655136
N	-1.045073	2.108469	1.176307
Br	3.501806	0.0	0.0
