15

C	-0.527578	0.01001	-1.427435
C	0.0	0.0	0.0
F	-0.227378	1.222421	-1.975072
H	1.093583	0.0	0.0
H	-0.311763	0.951979	0.442268
N	0.19292	-1.043636	-2.258457
O	0.157344	-2.178452	-1.794481
O	0.674043	-0.7032	-3.328833
C	-2.007203	-0.249141	-1.588938
H	-2.265305	-1.239905	-1.218625
H	-2.270651	-0.167207	-2.645705
H	-2.561569	0.503673	-1.025365
C	-0.536808	-1.082621	0.811458
N	-0.989971	-1.917715	1.500579
Br	3.463036	0.0	0.0
