12

C	-0.082494	-0.026454	0.004155
C	-0.452309	-0.207817	-1.452149
Cl	1.652138	0.330062	0.215027
H	-1.539224	-0.353638	-1.46754
H	-0.680256	0.7461	0.482871
H	0.056417	-1.081209	-1.862688
N	-0.355451	-1.294194	0.778238
O	-0.444721	-2.344139	0.148082
O	-0.419188	-1.175104	1.993898
C	-0.113672	0.97341	-2.237394
N	0.168095	1.901607	-2.897671
Br	-3.368242	0.523329	0.151758
