18

C	-0.309241	-0.104529	-1.500021
C	0.0	0.0	0.0
Cl	0.03196	1.487349	-2.278498
H	1.091494	0.0	0.0
C	0.68916	-1.108507	-2.086728
H	0.416877	-2.122619	-1.783254
H	1.668817	-0.845637	-1.661903
H	0.682708	-1.057009	-3.177585
C	-1.691877	-0.459865	-1.828584
N	-2.778647	-0.806278	-2.114892
C	-0.511954	-1.187585	0.796759
H	0.007586	-2.090036	0.47251
H	-0.254344	-1.031685	1.847322
H	-1.593739	-1.326455	0.70527
N	-0.600324	1.218976	0.593328
O	0.074695	1.865657	1.391269
O	-1.768914	1.483013	0.291546
F	2.620402	0.0	0.0
