18

C	-0.407107	0.435712	-1.422349
C	0.0	0.0	0.0
Cl	-0.100676	-0.960004	-2.542719
H	1.090474	0.0	0.0
C	-1.877569	0.81131	-1.583416
H	-2.504866	-0.017918	-1.251444
H	-2.09957	1.021856	-2.631158
H	-2.094818	1.69968	-0.990896
C	0.441119	1.51941	-1.936
N	1.026178	2.394509	-2.457336
C	-0.487738	-1.356289	0.454678
H	-1.575421	-1.480386	0.409287
H	-0.007175	-2.124278	-0.147711
H	-0.170557	-1.497224	1.486417
N	-0.428805	1.053685	0.936499
O	-0.812147	0.736934	2.068412
O	-0.335873	2.228995	0.559969
F	2.49771	0.0	0.0
