18

C	-0.24949	0.094244	-1.513831
C	0.0	0.0	0.0
Cl	-1.97682	0.551651	-1.900023
H	1.092826	0.0	0.0
C	0.729805	1.032337	-2.219884
H	0.470602	2.066131	-2.012477
H	1.706013	0.805176	-1.769763
H	0.7216	0.850194	-3.2974
C	-0.066743	-1.244796	-2.08703
N	0.093099	-2.300329	-2.579983
C	-0.568104	-1.229512	0.666452
H	-0.065242	-2.107599	0.25805
H	-0.36138	-1.192985	1.735372
H	-1.649649	-1.326702	0.525836
N	-0.462804	1.234952	0.671527
O	-0.136103	2.319082	0.18938
O	-1.131151	1.127393	1.7061
F	2.570187	0.0	0.0
