18

C	-0.270723	0.10525	-1.511824
C	0.0	0.0	0.0
Cl	-1.96707	0.689343	-1.868167
H	1.092909	0.0	0.0
C	0.761425	0.975407	-2.228535
H	1.727879	0.687924	-1.793157
H	0.72203	0.805703	-3.307008
H	0.576319	2.022933	-2.006193
C	-0.207103	-1.241279	-2.090424
N	-0.154148	-2.311437	-2.57418
C	-0.58352	-1.212194	0.682714
H	-1.672254	-1.265532	0.590595
H	-0.329107	-1.18593	1.741193
H	-0.134909	-2.107611	0.253344
N	-0.429034	1.247497	0.676964
O	-1.089563	1.15617	1.71576
O	-0.076683	2.32241	0.19233
F	2.578938	0.0	0.0
