18

C	-0.468858	-0.000862	-1.465732
C	0.0	0.0	0.0
Cl	0.340873	-1.386897	-2.291963
H	1.090455	0.0	0.0
C	-1.972537	-0.158287	-1.675015
H	-2.502421	0.650232	-1.168745
H	-2.206807	-0.140969	-2.741347
H	-2.300598	-1.111592	-1.259809
C	-0.018333	1.215332	-2.149801
N	0.239533	2.223608	-2.695879
C	-0.521438	-1.161746	0.816843
H	-0.204113	-2.093335	0.347077
H	-1.604185	-1.159538	0.95325
H	-0.043464	-1.117397	1.79847
N	-0.482005	1.284063	0.603152
O	0.288799	2.243184	0.607341
O	-1.633089	1.32672	1.067053
F	2.548633	0.0	0.0
