18

C	-0.324243	-0.085865	-1.494226
C	0.0	0.0	0.0
Cl	0.022752	1.510008	-2.261939
H	1.091495	0.0	0.0
C	0.660452	-1.094612	-2.094183
H	0.652006	-1.036321	-3.183435
H	1.642821	-0.843889	-1.670438
H	0.377535	-2.106931	-1.794938
C	-1.71095	-0.429452	-1.81214
N	-2.797779	-0.778883	-2.090496
C	-0.499626	-1.204588	0.782871
H	-1.583071	-1.341329	0.703803
H	0.01292	-2.102202	0.435536
H	-0.227495	-1.067401	1.831849
N	-0.599019	1.20329	0.627189
O	0.062432	1.795162	1.477147
O	-1.753657	1.501211	0.310797
F	2.616314	0.0	0.0
