18

C	-0.316075	-0.080976	-1.496351
C	0.0	0.0	0.0
Cl	0.069861	1.501288	-2.273107
H	1.091488	0.0	0.0
C	0.654631	-1.107518	-2.093132
H	1.641252	-0.869802	-1.674005
H	0.642438	-1.047897	-3.182678
H	0.356539	-2.11614	-1.794775
C	-1.706915	-0.40678	-1.819814
N	-2.791776	-0.775947	-2.080438
C	-0.494594	-1.205659	0.78462
H	-1.577369	-1.350416	0.701711
H	-0.227136	-1.058331	1.833283
H	0.025666	-2.101016	0.443914
N	-0.596743	1.197758	0.63661
O	-0.004847	1.674514	1.604366
O	-1.683784	1.602845	0.215619
F	2.610338	0.0	0.0
