18

C	-0.308626	-0.089198	-1.499791
C	0.0	0.0	0.0
Cl	0.061702	1.498134	-2.273897
H	1.091487	0.0	0.0
C	0.674329	-1.106514	-2.091573
H	0.378469	-2.118459	-1.803168
H	1.65537	-0.866494	-1.656634
H	0.676146	-1.040937	-3.181137
C	-1.695421	-0.421899	-1.833614
N	-2.777603	-0.777515	-2.12526
C	-0.506283	-1.193417	0.793114
H	-1.58928	-1.330119	0.706698
H	0.009233	-2.095349	0.461673
H	-0.241615	-1.040558	1.842466
N	-0.595643	1.212034	0.613703
O	0.042852	1.764257	1.507101
O	-1.723166	1.556352	0.244563
F	2.614571	0.0	0.0
