15

C	-0.405814	-0.005081	-1.4541
C	0.0	0.0	0.0
Cl	-2.166149	-0.134095	-1.748581
H	1.095811	0.0	0.0
H	0.07501	-0.825734	-1.982599
N	0.103202	1.243516	-2.130039
O	-0.50674	2.292529	-1.944001
O	1.131182	1.109343	-2.786637
C	-0.429031	-1.253029	0.595424
N	-0.753837	-2.264357	1.100838
C	-0.459244	1.198195	0.822847
H	-1.541319	1.346043	0.791741
H	0.037865	2.099721	0.464059
H	-0.145634	1.039423	1.856759
H	2.644927	0.0	0.0
