15

C	-0.594177	0.073618	-1.391246
C	0.0	0.0	0.0
Cl	0.216844	1.284054	-2.408286
H	1.094341	0.0	0.0
H	-1.655808	0.320885	-1.389729
N	-0.530121	-1.256771	-2.101552
O	-1.608898	-1.699027	-2.503689
O	0.561507	-1.792804	-2.219565
C	-0.5014	-1.19206	0.660451
N	-0.906243	-2.157638	1.198228
C	-0.36587	1.252473	0.800087
H	0.05683	1.159397	1.802413
H	0.102485	2.120452	0.331678
H	-1.447195	1.41074	0.877221
H	2.658691	0.0	0.0
