15

C	-0.407453	-0.028549	-1.453364
C	0.0	0.0	0.0
Cl	-2.175425	-0.088321	-1.736675
H	1.095765	0.0	0.0
H	0.028929	-0.887775	-1.95716
N	0.132004	1.165223	-2.200654
O	1.006022	0.934096	-3.028933
O	-0.330704	2.269	-1.929311
C	-0.431908	-1.249642	0.601774
N	-0.758139	-2.258482	1.111253
C	-0.460051	1.200191	0.820769
H	-1.540501	1.35625	0.772263
H	0.050265	2.097464	0.471583
H	-0.166643	1.033482	1.859597
H	2.645034	0.0	0.0
