15

C	-0.589616	0.100568	-1.393332
C	0.0	0.0	0.0
Cl	0.254523	1.297226	-2.397943
H	1.094326	0.0	0.0
H	-1.645858	0.373329	-1.39158
N	-0.557565	-1.227032	-2.111594
O	-1.651039	-1.658386	-2.486018
O	0.525534	-1.773879	-2.258417
C	-0.505992	-1.198931	0.641848
N	-0.913779	-2.17111	1.165497
C	-0.363075	1.242332	0.818318
H	0.095038	2.117185	0.353447
H	0.072745	1.14075	1.814523
H	-1.444471	1.393812	0.909479
H	2.656873	0.0	0.0
