15

C	-0.591374	0.092938	-1.391158
C	0.0	0.0	0.0
Cl	0.242374	1.291155	-2.400894
H	1.09434	0.0	0.0
H	-1.647454	0.358511	-1.389015
N	-0.554075	-1.235611	-2.105444
O	0.530709	-1.77302	-2.265746
O	-1.64788	-1.677923	-2.460712
C	-0.501842	-1.197854	0.649316
N	-0.906392	-2.168009	1.179188
C	-0.365622	1.244706	0.812553
H	-1.446594	1.392218	0.90505
H	0.088678	2.120061	0.344226
H	0.071006	1.147801	1.8075
H	2.657592	0.0	0.0
