15

C	-0.599012	0.080899	-1.386312
C	0.0	0.0	0.0
Cl	0.1811	1.32473	-2.388094
H	1.094351	0.0	0.0
H	-1.666062	0.304368	-1.378966
N	-0.506807	-1.234002	-2.12264
O	0.59332	-1.755995	-2.22347
O	-1.56904	-1.675791	-2.563648
C	-0.500205	-1.196661	0.653111
N	-0.900065	-2.168045	1.184175
C	-0.358708	1.245711	0.814144
H	0.049332	1.132504	1.820011
H	0.130011	2.110297	0.362939
H	-1.436936	1.420661	0.880668
H	2.654674	0.0	0.0
