12
Coordinates from ORCA-job run
  C   0.81326637864985      0.19425832399546      0.14780380795959
  C   -0.55652256882780      0.31441923187765     -0.58180589027817
  F   1.40695566426137      1.42999105094937      0.09481683306940
  H   -0.33394830685741      0.63593114461233     -1.60723713099815
  C   0.61997419503737     -0.20080334478157      1.54990573504577
  N   0.45006826328885     -0.51163714813648      2.67045910244307
  C   1.65856257572530     -0.78308335093018     -0.55436341017987
  N   2.32366976888361     -1.54965406575799     -1.14702083784440
  C   -1.37829657996112      1.33508381310062      0.07321917282664
  N   -2.02926390846958      2.16085410625678      0.59582864828648
  C   -1.22875626584754     -0.98573385210084     -0.61075184773774
  N   -1.74670921588291     -2.03962590908514     -0.63085418259263
