12
Coordinates from ORCA-job run
  C   0.80905858685438      0.20901022158450      0.15610823800152
  C   -0.54814392723003      0.28642716845149     -0.60163091084645
  F   1.38894372668177      1.44954050353151      0.06943674380822
  H   -0.31000958229667      0.57417642030218     -1.63362459956171
  C   0.59564361311785     -0.13810928375990      1.56782613573320
  N   0.40679569208079     -0.41027108222015      2.69534286476310
  C   1.67830114376747     -0.78159406895170     -0.49627919011036
  N   2.36252828831559     -1.56176568241710     -1.04801355263197
  C   -1.39443389500734      1.31978690423266      0.00011614624769
  N   -2.06660369760045      2.15496607915124      0.47895976863679
  C   -1.20611160345962     -1.02129504030278     -0.59783923225726
  N   -1.71696834522374     -2.07887213960196     -0.59240241178278
