12
Coordinates from ORCA-job run
  C   0.71355302136825      0.20602850726811      0.41341668069432
  C   -0.79068421021698      0.34302933519894      0.03834966150766
  F   1.16014497303559      1.45981617126444      0.74730273404626
  H   -1.29356789827078      0.75392765418746      0.92309934748010
  C   0.84976034156234     -0.68523726601733      1.57526114355458
  N   0.93033503825529     -1.38342297822925      2.51717433274973
  C   1.48732232609924     -0.30589500838856     -0.72597043078852
  N   2.09327287011535     -0.70959945203986     -1.64847136920172
  C   -1.35553127627745     -0.96963536876594     -0.27939516093230
  N   -1.79545132275424     -2.03163351416218     -0.52007883438078
  C   -0.94066937315190      1.28140010828675     -1.07657350115275
  N   -1.05848448976471      2.04122181139741     -1.96411460357659
