12
Coordinates from ORCA-job run
  C   0.64984226373802      0.12540535689080      0.40322355684760
  C   -0.64835628555106     -0.13907019882450     -0.41402193721087
  F   0.46224946836248      1.25310443761992      1.15574967706998
  H   -0.49178651055184     -1.04168887208255     -1.01898126397605
  C   0.91710134413386     -1.02062185597612      1.28571568518642
  N   1.11592771811140     -1.95186922040657      1.97429593565502
  C   1.77735802979613      0.32662565897300     -0.51985997573443
  N   2.66353834289106      0.47179417791458     -1.27784922421050
  C   -0.90892590537474      0.99585094375566     -1.30417260269404
  N   -1.10422956569331      1.90164459171792     -2.02534979033850
  C   -1.77034829825495     -0.36368055544758      0.50176143411479
  N   -2.66137060160706     -0.55749446413456      1.24148850529058
