12
Coordinates from ORCA-job run
  C   0.74375515683459      0.17067514746571      0.12970573361968
  C   -0.74991191158377     -0.18779352663020     -0.12229155835550
  F   0.99753411396377      1.38598271128956     -0.44672675002196
  H   -0.94907373595702     -1.16249683383441      0.34177537717702
  C   0.99283962915653      0.24722548287792      1.57744627755813
  N   1.17024278168607      0.29261097457238      2.73818747761081
  C   1.60484049451646     -0.85536855093377     -0.47824902697655
  N   2.27378481862183     -1.69150657538243     -0.96234872348098
  C   -0.99662642025339     -0.28286468999623     -1.56387476614691
  N   -1.18269903361454     -0.37150218772534     -2.71981138912982
  C   -1.61013143762693      0.82393106060020      0.49780613588284
  N   -2.29355445574358      1.63010698769661      1.00938121226323
