12
Coordinates from ORCA-job run
  C   0.65365919435337      0.08584645521587      0.40570694507349
  C   -0.65384763193698     -0.10531743658638     -0.41705569479370
  F   0.48290488394250      1.15612647053012      1.24182255065149
  H   -0.51524439593740     -0.96783415487655     -1.08173097985849
  C   0.91706638880378     -1.12494758844759      1.19848471607730
  N   1.11601109524433     -2.10490948120851      1.81576785671715
  C   1.77604994234331      0.34591974756218     -0.50883986400755
  N   2.65803654558849      0.54112472601897     -1.26037817590922
  C   -0.90511520198611      1.09014873237165     -1.22708012491567
  N   -1.09436194703469      2.04469433241845     -1.88420474751916
  C   -1.77206334108800     -0.37183619498675      0.49226117702888
  N   -2.66209553229262     -0.59001560801147      1.22624634145548
