12
Coordinates from ORCA-job run
  C   0.59800191772359      0.10766886373225      0.48271206959556
  C   -0.59307839712535     -0.11832058634133     -0.49388552735715
  F   0.29149892157436      1.16266718290899      1.29882985355257
  H   -0.33922867929773     -0.96065693532783     -1.15056879976984
  C   0.80480269016882     -1.10236231622580      1.29304808864762
  N   0.95577591368241     -2.08496738192280      1.91959972848657
  C   1.81208627815878      0.41286723348189     -0.28974484989732
  N   2.76918580269935      0.63882953384725     -0.93317160720331
  C   -0.79494934900677      1.08272687843243     -1.30937751991604
  N   -0.94490222426709      2.04374977674871     -1.96712151009330
  C   -1.80024890245307     -0.45079861397984      0.26782497771825
  N   -2.76094397185732     -0.73140363535393      0.88185509623639
