12
Coordinates from ORCA-job run
  C   0.74465140355320      0.16647591204055      0.14028518335016
  C   -0.74845525878947     -0.18024659590733     -0.13104923672103
  F   1.01578447071100      1.37997137884224     -0.43151437047455
  H   -0.96228397639489     -1.15087728916954      0.33521327791468
  C   0.97375171488161      0.23846490174675      1.59152360352275
  N   1.13147724593091      0.27436536277353      2.75550189026536
  C   1.60523437967963     -0.86608803661319     -0.45691128899765
  N   2.27103596690656     -1.70902735204704     -0.93343652062039
  C   -0.97787187193965     -0.28088310874508     -1.57511485174507
  N   -1.15310275374139     -0.37516146144743     -2.73233738571582
  C   -1.60816304329112      0.84238638550138      0.47188988351580
  N   -2.29205827750640      1.65961990302514      0.96494981570576
