12
Coordinates from ORCA-job run
  C   0.72144458044139     -0.44394216854274      0.05238076315560
  C   -0.55708860824044      0.09355441428173     -0.65379993000032
  F   0.99461417204321     -1.67315930272940     -0.49278246908828
  H   -0.32080127234530      0.14356507164134     -1.72438226357994
  C   1.84612096802540      0.46651987294288     -0.21008329290735
  N   2.73395902087149      1.19808638749226     -0.45010633809813
  C   0.49604940576331     -0.58505212510270      1.49752493665059
  N   0.30117609952033     -0.70022418275478      2.65079571389212
  C   -0.88221602816412      1.43333909563924     -0.16163249566894
  N   -1.12027299061995      2.51181025900577      0.23791808809540
  C   -1.66537223869772     -0.84271715036831     -0.45131575279095
  N   -2.54661310859761     -1.60278017150528     -0.29451695965979
