12
Coordinates from ORCA-job run
  C   0.63098015597026      0.16860878616943      0.54287723335001
  C   -0.79822400039012      0.32546477376184     -0.05323183785056
  F   0.97975477030567      1.38380489249638      1.07573446034537
  H   -1.44871208448154      0.62764293360435      0.77744381493382
  C   0.60934959925984     -0.84342310430029      1.60964245270825
  N   0.56454565496853     -1.64085818373688      2.47175666795317
  C   1.59107282076308     -0.20484586765479     -0.50497859926439
  N   2.34734051151451     -0.49945474780025     -1.35490887999890
  C   -1.26270515139805     -0.95091313444637     -0.59928066818666
  N   -1.62319319593216     -1.98434323266795     -1.02528945632085
  C   -0.79717028407309      1.38117930708030     -1.06897384308549
  N   -0.79203879650693      2.23813757749426     -1.87179134458377
