12
Coordinates from ORCA-job run
  C   0.64007932825634     -0.00630109269580      0.43568869245246
  C   -0.64005502805519     -0.00480892016769     -0.45011996078928
  F   0.46832243972618      0.90659659993200      1.44093794258672
  H   -0.49846173346557     -0.73846722967480     -1.25433956976239
  C   0.83665305427715     -1.34602016183267      1.01056302054233
  N   0.97593690242756     -2.42798898959159      1.44738758396898
  C   1.80396928162333      0.36965119421304     -0.38152696663916
  N   2.72229273900118      0.66197886590640     -1.05396482091823
  C   -0.82882834541541      1.32365435822662     -1.03956050622436
  N   -0.96433637867290      2.38667008736382     -1.51945431172718
  C   -1.79801775407216     -0.39702735037557      0.35819974211134
  N   -2.71855450563050     -0.72893736130376      1.00718915439877
