12
Coordinates from ORCA-job run
  C   0.75454784244983      0.06168045645253      0.16324097129748
  C   -0.76325674293143     -0.07539192122846     -0.15444550314737
  F   1.25322566252725      1.10898679185079     -0.56360893527392
  H   -1.15864682786590     -0.91731959027693      0.42865495972188
  C   0.93429336041598      0.32565891882941      1.59905809011865
  N   1.05598560097911      0.52635389958296      2.75050419842834
  C   1.44826281923957     -1.17918365941511     -0.21483111348582
  N   1.97509916103161     -2.18574393682346     -0.51514987349002
  C   -0.94411922403380     -0.35463715154232     -1.58188242917593
  N   -1.08120212353135     -0.59574107168148     -2.72284401212297
  C   -1.46097283193223      1.15179144967583      0.23927172625521
  N   -2.01421669634864      2.13254581457622      0.57203192087446
