12
Coordinates from ORCA-job run
  C   0.46589268638508     -0.33073673794493      0.52316633875522
  C   -0.45638599965478      0.33987090607266     -0.53659618962375
  F   -0.32467920769595     -0.98331443682989      1.43018349901812
  H   0.18175215905321      0.86288038003338     -1.26073088711925
  C   1.35740460909774     -1.29431437654902     -0.14049519444752
  N   2.06680773490338     -2.05104814431940     -0.69277727353547
  C   1.25725137706564      0.70271936015922      1.20838462179006
  N   1.88468444729808      1.54705880030517      1.73209090498069
  C   -1.33410807555169      1.31254733677180      0.12038725832494
  N   -2.02375798424215      2.10025628447117      0.65194919478902
  C   -1.23268738125557     -0.68844142484095     -1.23514919462531
  N   -1.84117436540301     -1.51847794732920     -1.80041307830674
