12
Coordinates from ORCA-job run
  C   0.80125894198663      0.22515344753070      0.16908216293117
  C   -0.55291904353444      0.29464752292773     -0.59468453810965
  F   1.34839067721692      1.48291062057880      0.13206890266236
  H   -0.31643949502307      0.62877173774138     -1.61298062379991
  C   0.58956318845646     -0.17918513796440      1.56581319994215
  N   0.40592801912061     -0.49659927103486      2.68243338159323
  C   1.70057359812632     -0.71832097502758     -0.51196785440475
  N   2.40875415762772     -1.46256227160749     -1.08263059110207
  C   -1.43153515254298      1.27996076848711      0.04040227288905
  N   -2.13080051529785      2.07785626078310      0.54364504627154
  C   -1.17344531175287     -1.03028744787725     -0.64593689598933
  N   -1.64932906438346     -2.10334525453723     -0.68524446288381
