12
Coordinates from ORCA-job run
  C   0.81163366425229      0.18831868996931      0.16448647876100
  C   -0.54753293946510      0.33216317155216     -0.58006762703297
  F   1.40788001137105      1.42400281971562      0.15431533469759
  H   -0.30985063841535      0.68336823487279     -1.59235291926254
  C   0.59970245499576     -0.24544829734131      1.55224385588358
  N   0.41580278775534     -0.58759950946068      2.66143054005434
  C   1.66483812925326     -0.77051539209275     -0.55333513941125
  N   2.33669091079160     -1.52351819759168     -1.15554099595238
  C   -1.37716859856466      1.33451988286637      0.09314540623476
  N   -2.03395561835614      2.14410463423663      0.63356110044683
  C   -1.22226574295507     -0.96469879789805     -0.65818105579474
  N   -1.74477442066298     -2.01469723882840     -0.72070497862421
