12
Coordinates from ORCA-job run
  C   0.74234371064060      0.21544106914212      0.35104141078616
  C   -0.78324625886815      0.35884373253516      0.07750457475207
  F   1.22717426500382      1.47597549476021      0.59229716518893
  H   -1.21532410062984      0.82416397777756      0.97266733760674
  C   0.95170479217954     -0.62435902819820      1.53999057232423
  N   1.09586133357834     -1.28388413174092      2.50191572948146
  C   1.42626982681157     -0.36133967161343     -0.81477609890105
  N   1.96506644581261     -0.81822945566358     -1.75408684366659
  C   -1.38790547601519     -0.95849609212343     -0.12760814144347
  N   -1.86037222580764     -2.02333944500608     -0.27703921381040
  C   -0.99845578570530      1.24012783428416     -1.07269589725175
  N   -1.16311652700038      1.95409571584642     -1.99021059506635
