12
Coordinates from ORCA-job run
  C   0.51570103372590     -0.31739699823681      0.48239180862570
  C   -0.50782810627543      0.33032004526408     -0.49582535067022
  F   -0.17585480640133     -1.07787058069053      1.38580183217825
  H   0.04984027993342      0.94125903740916     -1.21734517984903
  C   1.44618255048075     -1.16932362070540     -0.27421583252806
  N   2.18305865522806     -1.83614242282098     -0.90153619920584
  C   1.25691592935203      0.73963201657747      1.18762539562337
  N   1.84343700204966      1.60101745275900      1.73059977545347
  C   -1.42732743862746      1.19080839722244      0.25400182217904
  N   -2.15179076473627      1.88917185745412      0.85903929752100
  C   -1.23287854751910     -0.72123898134077     -1.21460219860316
  N   -1.79945578721024     -1.57023620289179     -1.79493517072452
