12
Coordinates from ORCA-job run
  C   0.75155614912351      0.11473888120401      0.13741587826643
  C   -0.76258046904759     -0.13179650298713     -0.12656998308634
  F   1.11455237725516      1.27459139930046     -0.49290190130976
  H   -1.04988529020082     -1.06192674002303      0.38081300683801
  C   0.98521253687283      0.24417596303091      1.58382107944337
  N   1.15433642164807      0.33525108181764      2.74320343911050
  C   1.53350655914714     -1.00758153364987     -0.40353477827153
  N   2.13652647262065     -1.91809665879992     -0.83747184542171
  C   -0.99124112500673     -0.27935980693822     -1.56678946081955
  N   -1.15858511689174     -0.41009015088977     -2.72152000037032
  C   -1.54557073756790      0.97781112820905      0.42456606741605
  N   -2.16782777795259      1.86328293972586      0.87996849820486
