12
Coordinates from ORCA-job run
  C   0.68663149472797      0.19312780151528      0.45967792150007
  C   -0.80319257648495      0.31872928356087      0.02786421525841
  F   1.08050619277340      1.42908458103762      0.90696668473191
  H   -1.35491128088199      0.65399800581601      0.91536199946012
  C   0.80088992784434     -0.78131421605676      1.55516029164462
  N   0.86778244664380     -1.55010857632470      2.44137994273149
  C   1.52567949486141     -0.20749532837084     -0.67841773953630
  N   2.19086221559197     -0.51652953272927     -1.59667840605440
  C   -1.31749363102062     -0.98181523871150     -0.40506755550226
  N   -1.72010579937388     -2.03359858527887     -0.73848211563884
  C   -0.92965384579172      1.32873015531548     -1.02568509359471
  N   -1.02599463888974      2.14619165022671     -1.86308014500010
