12
Coordinates from ORCA-job run
  C   0.79852242317121      0.19332804399142      0.21521613923989
  C   -0.51965731509943      0.34277491362469     -0.59857819342199
  F   1.37683665440035      1.43636868676538      0.27392080357880
  H   -0.23174688929619      0.73251709446008     -1.58331873844116
  C   0.51780521926243     -0.28318625524634      1.57654029279323
  N   0.28090647339338     -0.65522045696380      2.66586744326696
  C   1.70300370536761     -0.73277495947518     -0.48242579019940
  N   2.41626479868193     -1.46009840000562     -1.06834155048965
  C   -1.40212971400013      1.30886803543865      0.06022106107154
  N   -2.10138747369458      2.09033922469410      0.58847322901119
  C   -1.16790576205706     -0.95995903607653     -0.75891010025378
  N   -1.67151212012952     -2.01295689120685     -0.88966459615561
