12
Coordinates from ORCA-job run
  C   0.68733631894879      0.18949269093152      0.46172305936043
  C   -0.80066184633315      0.32221568398339      0.02530418855746
  F   1.08534960667079      1.42355445402051      0.91064675066641
  H   -1.35342627876998      0.65865920118268      0.91180348825808
  C   0.79174595724764     -0.78502685217938      1.55800011320375
  N   0.84729399728250     -1.55238662445362      2.44635164252919
  C   1.52782795498958     -0.21521687169137     -0.67343615274618
  N   2.19278951657706     -0.52879650230457     -1.59025244821789
  C   -1.31963214454974     -0.97530681275812     -0.41101950990999
  N   -1.72671083350539     -2.02426202267523     -0.74788774232885
  C   -0.92014990982111      1.33441986461299     -1.02695005626373
  N   -1.01076233873700      2.15265379133124     -1.86428333310867
