12
Coordinates from ORCA-job run
  C   0.65119985415440      0.19651823859023      0.50799906180212
  C   -0.79695518320182      0.33194307473220     -0.04577629549769
  F   1.02931319638099      1.43871174185255      0.95136155684963
  H   -1.41293896348940      0.69672596706886      0.78609754310315
  C   0.65920278062572     -0.74712517734279      1.63589666526241
  N   0.64024335852092     -1.48899011843000      2.54713854141811
  C   1.57088950514825     -0.25169103535589     -0.54672002785202
  N   2.29778606108310     -0.60707807688590     -1.39907830936281
  C   -1.29474679255853     -0.97178990835902     -0.48796849468172
  N   -1.68299142760184     -2.02711024140259     -0.82706990845770
  C   -0.82282290575300      1.31731180238543     -1.12952441353161
  N   -0.83917948330880      2.11357373314691     -1.99235591905186
