12
Coordinates from ORCA-job run
  C   0.78889191568183      0.19600293834292      0.24318999293446
  C   -0.49326804939198      0.33124811224984     -0.62836082542341
  F   1.37144684343563      1.43717934286179      0.29549210210381
  H   -0.16221716436919      0.69173741227948     -1.61070839547627
  C   0.44932782530771     -0.24764428397677      1.60225730258939
  N   0.16785574960774     -0.60374069426750      2.68628196327433
  C   1.71716754567637     -0.75170719069644     -0.39144650019140
  N   2.45464090277979     -1.49667736930413     -0.92271232402418
  C   -1.39453703351776      1.32102857456389     -0.03334203809982
  N   -2.10979163346038      2.12080140126424      0.44369637213567
  C   -1.14337544662820     -0.97158089702363     -0.78006057353409
  N   -1.64414145512155     -2.02664734629369     -0.90428707628849
