12
Coordinates from ORCA-job run
  C   0.66373163150010      0.12372739189561      0.38081495227103
  C   -0.66360533441496     -0.13768946251877     -0.38906040855713
  F   0.51342278552120      1.26385126605493      1.12310301148363
  H   -0.53909812959888     -1.05437559871678     -0.98006134395397
  C   0.94721987956116     -1.01351172100930      1.26981946390320
  N   1.15999954772619     -1.93938884238233      1.96139953013043
  C   1.76280324618673      0.29958714536240     -0.58090565988495
  N   2.62619334736167      0.42531936348766     -1.36802649864187
  C   -0.93879802040547      0.98213416174342     -1.29364924438575
  N   -1.14926027344111      1.87286146828869     -2.02924188762205
  C   -1.75759390750347     -0.32801900417080      0.56752511916497
  N   -2.62601477249316     -0.49349616803474      1.34028296609247
