12
Coordinates from ORCA-job run
  C   0.72209584817018     -0.43729760380098      0.09357377320053
  C   -0.56905161861805      0.01034891180536     -0.65101631213526
  F   0.98614892792646     -1.72477929906144     -0.30009602314138
  H   -0.35373807857958     -0.08061014971550     -1.72339038551985
  C   1.84143474612084      0.43260033485803     -0.29767494381577
  N   2.72510483104629      1.12992448705666     -0.63507496370043
  C   0.52321827135770     -0.39780433658519      1.54895389027671
  N   0.35292115223611     -0.36894870024128      2.71145963033064
  C   -0.88199491865286      1.40458539762256     -0.33228571465308
  N   -1.11285839175975      2.52730938790210     -0.07607443042022
  C   -1.67596683882403     -0.88524788040128     -0.30631784749179
  N   -2.55731393042330     -1.61108054943904     -0.03205667293011
