12
Coordinates from ORCA-job run
  C   0.80327075470494      0.17563958655383      0.21351781399512
  C   -0.50460454845322      0.33658977391996     -0.61480687261481
  F   1.42008163179789      1.40109658124486      0.23264691159750
  H   -0.19899177716948      0.67625247515981     -1.61267711845923
  C   0.49720775797362     -0.24437398867322      1.58789599148869
  N   0.23436034159525     -0.57455501683843      2.68472828932997
  C   1.68313982476112     -0.80250584052615     -0.44346678081173
  N   2.37992771303693     -1.57109376736230     -0.99551884779158
  C   -1.35689348245998      1.35786045147625     -0.00099040992709
  N   -2.03084506689028      2.18447384464778      0.49055995511094
  C   -1.19531530653027     -0.94934328621467     -0.72623498611700
  N   -1.73033784236651     -1.99104081338771     -0.81565394580078
