12
Coordinates from ORCA-job run
  C   0.81158954039779      0.16902141128978      0.17720335689409
  C   -0.53241543597887      0.34228956051332     -0.58824602809498
  F   1.43651269040828      1.39030515565395      0.17263165509229
  H   -0.27052005212601      0.68530985820512     -1.59744730568840
  C   0.56959925467360     -0.25592392374983      1.56279382844911
  N   0.36452651930920     -0.59110798296530      2.67039284755191
  C   1.65309421624086     -0.81155256473520     -0.52473927292300
  N   2.31682187581239     -1.58217562379931     -1.11347287233615
  C   -1.34769393518026      1.36706770243006      0.06837270586621
  N   -1.98870853415874      2.20132282506997      0.59019023534574
  C   -1.23550980306362     -0.93889425293388     -0.67433461958928
  N   -1.77929633633460     -1.97766216497869     -0.74334453056754
