12
Coordinates from ORCA-job run
  C   0.69464862138197      0.15341860213738      0.46309654267115
  C   -0.78772097886991      0.35331981402333      0.03284804331166
  F   1.14306645040794      1.36215184161431      0.93240095862494
  H   -1.32604256167188      0.69097580486148      0.92770854099259
  C   0.76208488374853     -0.84374536627186      1.54182858171474
  N   0.78965361765319     -1.62852824405151      2.41616721500377
  C   1.51496618827287     -0.26656212866391     -0.68136601877248
  N   2.16009709243624     -0.59773768658170     -1.60617338163820
  C   -1.35604129705385     -0.91354434397865     -0.43102453672695
  N   -1.79916301201027     -1.94034896087720     -0.78977115645389
  C   -0.86880947818273      1.39335393740026     -0.99564113744335
  N   -0.92773952611210      2.23724673038807     -1.81007365128397
