12
Coordinates from ORCA-job run
  C   0.75458004276185      0.05903375624265      0.16506556043767
  C   -0.76281364251821     -0.07186256353965     -0.15710392782672
  F   1.26472510631924      1.08831518663381     -0.57869139372748
  H   -1.16757150816084     -0.89896901612349      0.44038217741551
  C   0.92895240233787      0.34759266426450      1.59698817162418
  N   1.04414764248270      0.56637011799266      2.74578040146063
  C   1.44037864205550     -1.19435841393461     -0.18502694688008
  N   1.96353701702766     -2.21009254868165     -0.45971964472005
  C   -0.93924946019494     -0.37590374254654     -1.57993014678594
  N   -1.07380033064946     -0.63471019546153     -2.71729534006068
  C   -1.45253519745409      1.16819575856526      0.20994400879727
  N   -2.00235071400730      2.15838899658860      0.51960708026567
