12
Coordinates from ORCA-job run
  C   0.74043818215189      0.11293911126841      0.19677300693003
  C   -0.74906668299560     -0.12913185073963     -0.18521345157655
  F   1.17958274627341      1.22505159052798     -0.46958338307794
  H   -1.09917497400455     -1.01943097142370      0.35315230162800
  C   0.84638582735502      0.33070051495167      1.64771248741270
  N   0.90677276783842      0.49003206425605      2.81039302386218
  C   1.54533494618137     -1.05238607496762     -0.20060822947427
  N   2.16838127420561     -1.99702725877308     -0.51739638238401
  C   -0.85435724519886     -0.36641268439840     -1.62776634449974
  N   -0.93041083245454     -0.56820232423057     -2.78198392071642
  C   -1.55505389319329      1.02621283844615      0.22000070906312
  N   -2.19783211615889      1.94965504508276      0.55552018283288
