12
Coordinates from ORCA-job run
  C   0.45870216273218     -0.32340944130955      0.53249307048788
  C   -0.44890359786906      0.33442848764419     -0.54757888009793
  F   -0.34656460531200     -0.90964664010543      1.47148195694688
  H   0.20025903592104      0.80665714216725     -1.29634634879226
  C   1.31001774293604     -1.34533930391094     -0.09575410917288
  N   1.98459497467391     -2.15361628120546     -0.61762920469076
  C   1.29141052070249      0.70878914774296      1.16883864156338
  N   1.95375188772694      1.54831603766179      1.65610612144147
  C   -1.28911442008468      1.36103380258361      0.07554150582379
  N   -1.94687769448844      2.19340714509731      0.57869139200219
  C   -1.26388044328094     -0.69464987482364     -1.19952318745276
  N   -1.90339556365747     -1.52597022154210     -1.72732095805900
