12
Coordinates from ORCA-job run
  C   0.79784609810888      0.20929299315321      0.20385646192432
  C   -0.53075002425028      0.32683896168027     -0.59885964294581
  F   1.35827238045453      1.46120265480670      0.23883232899718
  H   -0.25873244516181      0.70305218902636     -1.59337972639139
  C   0.53656914831223     -0.25265778270477      1.57399834794039
  N   0.31274506505019     -0.62064390036457      2.66752159604234
  C   1.70882916898783     -0.71395826907384     -0.48921825296124
  N   2.42541962294189     -1.44046727895615     -1.07208604262031
  C   -1.41859782436452      1.29235954836528      0.05334118519115
  N   -2.12018819069092      2.07392569546275      0.57844803897974
  C   -1.16161422672191     -0.98771655231686     -0.72914494552016
  N   -1.64879877266612     -2.05122825907839     -0.83430934863622
