12
Coordinates from ORCA-job run
  C   0.75415484780439      0.21291930375261      0.32814281003535
  C   -0.77737429639071      0.36575967269042      0.09523593536471
  F   1.25596117988084      1.47229378226909      0.53996123151570
  H   -1.18108280259681      0.84256047993885      0.99758123551602
  C   0.98811256334310     -0.61273761916105      1.52240004590913
  N   1.14897100105094     -1.25865594556156      2.49086908827869
  C   1.40056205036914     -0.38405534484752     -0.84864946656629
  N   1.90492893452751     -0.85990821540450     -1.79756108001285
  C   -1.39642618553739     -0.94893244372225     -0.08178138806423
  N   -1.87923083745957     -2.01182276468045     -0.21070036716208
  C   -1.01766191037617      1.23793090092263     -1.05691948434404
  N   -1.20091454461528      1.94464819380371     -1.97657856047011
