12
Coordinates from ORCA-job run
  C   0.74482802489641      0.16492172887466      0.13544423801846
  C   -0.75034393009947     -0.17930216600320     -0.12888127620971
  F   1.00667228613629      1.39286079205559     -0.40924876999027
  H   -0.95545083122083     -1.16410475932247      0.31062209208228
  C   0.99007805207646      0.20200995181245      1.58537667650815
  N   1.16193339825339      0.21026657559843      2.74794794812794
  C   1.60079450674850     -0.85107893889034     -0.49614350649669
  N   2.26176795812084     -1.68246136345121     -0.99902006068001
  C   -0.99364963951424     -0.23746064766261     -1.57294390509622
  N   -1.17474536479053     -0.29570027217298     -2.73151218155686
  C   -1.60671845408782      0.82127851058784      0.51407320728089
  N   -2.28616600651900      1.61877058857385      1.04428553801205
