12
Coordinates from ORCA-job run
  C   0.71002536488476     -0.46343899532467     -0.01494696120518
  C   -0.56145164435064      0.19021864350820     -0.62981511553264
  F   0.94799859914321     -1.61742986414440     -0.71828684345659
  H   -0.33436328510320      0.37135265842330     -1.68814373875141
  C   1.85451682981081      0.44681802220955     -0.17052921468593
  N   2.75990230366220      1.18036464336910     -0.32320809503231
  C   0.49547680667553     -0.78607142968781      1.40244952128729
  N   0.31283218927902     -1.04612977818678      2.53394163460618
  C   -0.84851561591369      1.46303240774608      0.03387216164472
  N   -1.05742741698378      2.48637321499102      0.57097989369060
  C   -1.69094602367179     -0.73767309179612     -0.53378369617817
  N   -2.59004810743243     -1.48941643110746     -0.46152954638657
