12
Coordinates from ORCA-job run
  C   0.59037318480015      0.04747330684735      0.50169923808414
  C   -0.58552000963638     -0.05790943039593     -0.51328910532480
  F   0.25995291718430      0.97918706608087      1.44813544742297
  H   -0.31430128550672     -0.80387052049937     -1.27171404581168
  C   0.80164988776296     -1.25899888887083      1.14367416865573
  N   0.95439902202053     -2.31748397242602      1.63061163999518
  C   1.81039840974612      0.46760922768445     -0.20446044097625
  N   2.77351960742852      0.78947704621953     -0.79590024772550
  C   -0.78906326857933      1.23825131365010     -1.16650392130408
  N   -0.93847312881428      2.27525101982034     -1.69665927176010
  C   -1.79834887745989     -0.49759811614187      0.18212319775721
  N   -2.76258645894599     -0.86238805196862      0.74428334098720
