12
Coordinates from ORCA-job run
  C   0.73512561763843     -0.42145453568241      0.06412590613972
  C   -0.56825343403498      0.04373442115163     -0.64847341191504
  F   1.03428593180348     -1.66986666732774     -0.42062455719421
  H   -0.34916280052384      0.04425034568867     -1.72387695325793
  C   1.83002566125234      0.50341658797107     -0.26469566148212
  N   2.69319458306611      1.24345946947125     -0.56239398347063
  C   0.53384214167734     -0.49239603683127      1.51785885001604
  N   0.35290873432923     -0.54864371238718      2.67763395699568
  C   -0.92291573720557      1.39831716122891     -0.22139915574547
  N   -1.18631569940993      2.48971881354990      0.12372664565877
  C   -1.64723959062673     -0.90955014251390     -0.37876484125071
  N   -2.50549540796586     -1.68198570431893     -0.16511679449409
