12
Coordinates from ORCA-job run
  C   0.80546893595666      0.20322239132115      0.17834682794899
  C   -0.53601967344327      0.30420620479239     -0.60475989152537
  F   1.38861489239510      1.44474113117786      0.13779768346925
  H   -0.27625101357260      0.62094010321948     -1.62297250688761
  C   0.56244728136975     -0.18168365733736      1.57534039178231
  N   0.34909659490037     -0.48430975703748      2.69064587164431
  C   1.68685043136666     -0.77015257732850     -0.48343002884871
  N   2.38129888614864     -1.53439649386474     -1.04465913069070
  C   -1.39316512321485      1.32036084230905      0.01046105789201
  N   -2.07196880092339      2.14156790873718      0.50416242252387
  C   -1.19395999678971     -1.00267977278777     -0.65238824217025
  N   -1.70241241419338     -2.06081632320125     -0.69054445513812
