12
Coordinates from ORCA-job run
  C   0.72459487548623      0.24504713555962      0.37033131680926
  C   -0.79603767921102      0.33052343759712      0.05018536722840
  F   1.15856866883261      1.52599117522581      0.60201599999383
  H   -1.27168926928558      0.78842144291152      0.92679013794613
  C   0.92613929136086     -0.56393357008980      1.58173614578656
  N   1.05905651257540     -1.19299847716869      2.56545094000204
  C   1.46237201964611     -0.32807816997809     -0.76385017624617
  N   2.04029148894791     -0.78361387921826     -1.68017335351525
  C   -1.34603342777572     -1.00951881532555     -0.16267988958264
  N   -1.77337990879645     -2.09100799848588     -0.32730054173075
  C   -1.00833164397133      1.19167627355815     -1.11588075465491
  N   -1.17355092780901      1.88949144541406     -2.04562519203650
