12
Coordinates from ORCA-job run
  C   0.75739295238245      0.20489690668734      0.32382082744543
  C   -0.76849021644060      0.38782284259194      0.07769313606856
  F   1.28974421444488      1.45832683945952      0.49180385393839
  H   -1.16348523354577      0.90783598679939      0.95985964063514
  C   0.96713642510773     -0.58162626057446      1.54850989526974
  N   1.11458417206032     -1.19417347716107      2.54055017276026
  C   1.39350952888226     -0.45071949093416     -0.82700147612092
  N   1.88957924588219     -0.97070382483850     -1.75694521033874
  C   -1.42124662037089     -0.91585926624867     -0.05438634699714
  N   -1.93196190889524     -1.96955625224566     -0.14618690793696
  C   -0.98182720893252      1.22322769335135     -1.10672185613596
  N   -1.14493535057478      1.90052830311299     -2.05199572858779
