12
Coordinates from ORCA-job run
  C   0.74273545456459      0.17214271693128      0.13374077057674
  C   -0.74872967154154     -0.18967997113410     -0.12644612686750
  F   1.01012623813597      1.36423079450050     -0.48372414900529
  H   -0.95768318363039     -1.14738846634605      0.36781317859971
  C   0.97197945549959      0.30237259340943      1.58084646434884
  N   1.13566877159553      0.39512020611290      2.74075247707972
  C   1.60725600584491     -0.87918923008159     -0.42386216064100
  N   2.27682140606664     -1.73606028672414     -0.86920573754765
  C   -0.97595076388788     -0.33343405135133     -1.56721152757953
  N   -1.14734487360448     -0.46136560054261     -2.72177019501747
  C   -1.61392998220273      0.84482154424502      0.44732024729393
  N   -2.30194885684021      1.66842975098069      0.92374675875951
