12
Coordinates from ORCA-job run
  C   0.61821822658602      0.10424900700514      0.45332066986077
  C   -0.62023478552712     -0.12185087334001     -0.46206537446719
  F   0.36030409683807      1.17195186339402      1.27015443642417
  H   -0.41306999831995     -0.98571472824456     -1.10710127855969
  C   0.85223145203758     -1.09799499173822      1.26776492929814
  N   1.02710298643294     -2.07416819105618      1.89811381399564
  C   1.79835678316639      0.39104885566796     -0.37641053123153
  N   2.73163930133864      0.61385723975390     -1.05453904225766
  C   -0.83639705249998      1.06051217885932     -1.30066094631337
  N   -0.99182346401730      2.00237450212641     -1.98422635085986
  C   -1.79584802153763     -0.41077404116438      0.36413292196593
  N   -2.73047952449766     -0.65549082126340      1.03151675214465
