12
Coordinates from ORCA-job run
  C   0.75764281126368     -0.36173274622961      0.12467487243582
  C   -0.55550369390368     -0.07101973696040     -0.65859944482455
  F   1.14615211195951     -1.63625373971692     -0.20295087718116
  H   -0.31251924252546     -0.18795350495349     -1.72246418406395
  C   1.79946106818954      0.58811882660079     -0.29356722659730
  N   2.62295789938077      1.34338168250989     -0.65762673418063
  C   0.52851955928068     -0.27343763857683      1.57344418528853
  N   0.33044403763715     -0.20691886089599      2.73001317024096
  C   -1.00390712158854      1.29959590537296     -0.40704602428206
  N   -1.34423830057254      2.40502970209757     -0.20299848940849
  C   -1.57873737904717     -1.05227064540066     -0.28952553953297
  N   -2.39027175007393     -1.84753924384730      0.00664629210582
