10
Coordinates from ORCA-job run
  C   -1.10118478841041     -0.13829610811319      0.28078311223792
  C   0.27498375382239     -0.05396299718881     -0.39624745054072
  F   -1.94345742669122      0.74431998448847     -0.35386340271473
  H   0.14080044741814     -0.27627391403264     -1.46101698949485
  H   -1.49850660184825     -1.14943491287590      0.17464565462941
  H   -1.02708636789379      0.13362496074171      1.33482474303314
  C   1.17558935361270     -1.05398868364558      0.18555768899286
  N   1.85720201221577     -1.87543477525769      0.67303087122805
  C   0.84167921482377      1.29333185525464     -0.27265287065089
  N   1.28098040295091      2.37611459062898     -0.16606135672020
