10
Coordinates from ORCA-job run
  C   -1.13212980657943     -0.11248853879040      0.22084680663018
  C   0.25658973606104     -0.04532858301883     -0.42484768738469
  F   -1.01985521044550      0.15775219980441      1.56212909337554
  H   0.14330834372365     -0.26375335979455     -1.49455987948030
  H   -1.78633437981627      0.63240585874936     -0.23695354175105
  H   -1.54709174915692     -1.11471234990175      0.09495069961550
  C   1.15227806825136     -1.05260403692728      0.15559637418656
  N   1.84224571656032     -1.88476324791748      0.61162327784261
  C   0.83179626912826      1.29805826039657     -0.29020858926656
  N   1.26019301227349      2.38643379739995     -0.19857655376780
