10
Coordinates from ORCA-job run
  C   -1.10927528915243     -0.13717648468982      0.31228799591862
  C   0.21931380800204     -0.02886170298704     -0.44471862233391
  F   -0.88754208584921      0.09494598985845      1.64718687380515
  H   0.02052968173825     -0.21733015024145     -1.50754036519889
  H   -1.80941829234577      0.61078098663214     -0.06556691198082
  H   -1.52030187212465     -1.14156266593501      0.19112169188169
  C   1.17427570862931     -1.03805741802700      0.02820233821003
  N   1.91661236647456     -1.87066706761094      0.39151967865823
  C   0.78535612947851      1.31924210075727     -0.31707523940868
  N   1.21044984514939      2.40968641224340     -0.23541743955140
