10
Coordinates from ORCA-job run
  C   -1.11799775339543     -0.09460748733616      0.22626567401013
  C   0.28856878204611     -0.03914448473375     -0.38839834194383
  F   -1.60472060521104     -1.37047527081986      0.06465307667566
  H   0.20976179711779     -0.33852409065179     -1.43977909109091
  H   -1.08004179267890      0.14108176792894      1.29093956371256
  H   -1.77216083183755      0.60567071200607     -0.29660424262295
  C   1.19777525569101     -0.96796998841201      0.29132692888145
  N   1.91032121088184     -1.71490083785659      0.84882234699316
  C   0.80174163803446      1.33297396781379     -0.32669892738446
  N   1.16675229935171      2.44689571206138     -0.26952698723081
