10
Coordinates from ORCA-job run
  C   -1.07984147369889     -0.08731738058788      0.36873951610538
  C   0.41396949127920      0.19954935127214      0.15472999317361
  F   -1.20941135674446     -0.84424078794295      1.50958081992326
  H   0.79139894377505      0.70300237469243      1.05212952897735
  H   -1.61617059426635      0.85402453526104      0.50240266492009
  H   -1.48886284161372     -0.64272436222434     -0.47671905240744
  C   0.58753788979367      1.09247911397702     -0.99494949857065
  N   0.67585307090172      1.81940679955806     -1.91200282081531
  C   1.16856065089148     -1.04461529478059     -0.02941573409712
  N   1.75496621968231     -2.05056434922493     -0.17349541720917
