10
Coordinates from ORCA-job run
  C   -1.06807834856832     -0.15768352063735      0.37846888878347
  C   0.44832122308568     -0.00745930219774      0.18372526755719
  F   -1.48118138785095      0.80608832176466      1.26830755884855
  H   0.92256930691237     -0.09413836243478      1.16806935235581
  H   -1.28590827072139     -1.14346862910732      0.79365626828217
  H   -1.59231109401379     -0.01767350608442     -0.56818489324758
  C   0.78075578393711      1.30751112583597     -0.37409995803381
  N   1.02695717446113      2.36482247583185     -0.81910700457383
  C   0.94696806978043     -1.08494902722861     -0.67588732140572
  N   1.30190754297773     -1.97304957574226     -1.35594815856628
