10
Coordinates from ORCA-job run
  C   -1.11002187502280     -0.17608397645940      0.21468070877847
  C   0.29457918872561     -0.01344122894878     -0.38529989241563
  F   -1.93566034714931      0.75217885051197     -0.37510573487853
  H   0.21288368387870     -0.13655523414833     -1.47130271340082
  H   -1.08945951506611     -0.00259033029673      1.29172701569022
  H   -1.48592407166596     -1.17745491094601     -0.00344809312749
  C   1.18270510086440     -1.05421313415524      0.14143085948461
  N   1.85304018015540     -1.91297624967646      0.57781892653512
  C   0.83315489300871      1.32291679333692     -0.11043142565440
  N   1.24470276227136      2.39721942078207      0.11993034898846
