10
Coordinates from ORCA-job run
  C   -1.09632831366888     -0.12285885326468      0.30655832810978
  C   0.25693652640173     -0.00376220444830     -0.41009589209254
  F   -1.59061084391284     -1.38564686909295      0.07770831344134
  H   0.09487689826472     -0.21647826493776     -1.47299513694752
  H   -0.97579180789477      0.02426724214180      1.38105446808311
  H   -1.79155643319368      0.61214253394915     -0.10359602141138
  C   1.21992445492407     -0.97799239381121      0.11412339679681
  N   1.97723325271074     -1.76467925229724      0.54355152197600
  C   0.77040903184748      1.36287876044838     -0.27638636303999
  N   1.13490723452144      2.47212930131280     -0.15892261491561
