10
Coordinates from ORCA-job run
  C   -1.11548670087031     -0.07679938976047      0.24367490279960
  C   0.28110108775532     -0.02714912701736     -0.39372641473818
  F   -1.63889385511198     -1.33000584033863      0.02675145743116
  H   0.17480718264096     -0.27484276837578     -1.45609886736169
  H   -1.05345195365496      0.10332961689406      1.31810020631762
  H   -1.75924902466290      0.66586303203694     -0.23141639554593
  C   1.17767587577523     -1.01102970761744      0.22234178626111
  N   1.87944550509049     -1.80478090569101      0.72638649639932
  C   0.83076946648600      1.32705179139832     -0.27867287531715
  N   1.22328241655216      2.42836329847137     -0.17734029624587
