10
Coordinates from ORCA-job run
  C   -1.12088826767300     -0.12931720696138      0.26493123882535
  C   0.23770497306889     -0.02344574996940     -0.43711685943581
  F   -0.95022664086025      0.07486218538607      1.61162377751298
  H   0.07794940353609     -0.18874224015663     -1.51032947608285
  H   -1.53841553434782     -1.12599968034356      0.10780886979058
  H   -1.79653618315074      0.63415211171074     -0.12632808733278
  C   1.16143575622650     -1.05315190098063      0.05273772692363
  N   1.87347396993062     -1.90374728820982      0.43470502629019
  C   0.81408297972316      1.31487630281255     -0.26170175823191
  N   1.24341954354656      2.39951346671207     -0.13633045825938
