10
Coordinates from ORCA-job run
  C   -1.12687219531254     -0.15390935260175      0.22177128143423
  C   0.25518601804113     -0.02056426242463     -0.42824901146539
  F   -1.01283114250321      0.06664586436790      1.57202534708012
  H   0.14205392746865     -0.19802675972131     -1.50549226152174
  H   -1.51381333898784     -1.16202761145766      0.05903707488159
  H   -1.80541928291141      0.58908433450480     -0.20248343636285
  C   1.18283408643470     -1.02481895807287      0.10538348994992
  N   1.89912165772058     -1.85670168418978      0.51921946048879
  C   0.79164599221822      1.33237099521786     -0.24000020483054
  N   1.18809427783171      2.42794743437746     -0.10221173965413
