17

C	-0.43756	0.001238	-1.460798
C	0.0	0.0	0.0
Br	0.061355	1.681079	-2.249777
H	1.090351	0.0	0.0
N	0.218718	-1.128663	-2.253735
O	0.589496	-2.09187	-1.597267
O	0.264877	-1.00864	-3.469723
N	-1.947159	-0.179402	-1.700142
O	-2.66238	0.688665	-1.216648
O	-2.320977	-1.161987	-2.323043
N	-0.467801	-1.269766	0.667153
O	-1.613899	-1.658973	0.410564
O	0.281412	-1.794809	1.47527
N	-0.490824	1.065464	0.812273
H	-1.406341	1.395146	0.540183
H	0.188655	1.810457	0.833082
F	2.508415	0.0	0.0
