17

C	-0.548314	-0.023541	-1.425326
C	0.0	0.0	0.0
Br	-2.441223	0.226342	-1.579486
H	1.114979	0.0	0.0
N	0.202248	1.185926	-2.071688
O	-0.392632	2.251049	-2.004512
O	1.422983	1.045751	-2.192737
N	-0.065709	-1.1912	-2.289896
O	-0.632617	-1.335422	-3.364683
O	1.067684	-1.604051	-2.007376
N	-0.498241	-1.0839	0.897982
O	-1.722343	-1.183484	1.063197
O	0.341988	-1.493676	1.718031
N	-0.47068	1.202742	0.71158
H	-0.279418	1.052419	1.696992
H	0.152627	1.957344	0.446442
F	2.516031	0.0	0.0
