17

C	-0.408128	-0.008182	-1.477242
C	0.0	0.0	0.0
Br	0.34608	1.508943	-2.351701
H	1.092322	0.0	0.0
N	0.083457	-1.291868	-2.171279
O	-0.769233	-2.15278	-2.34552
O	1.266786	-1.338036	-2.449808
N	-1.916619	-0.013764	-1.709823
O	-2.609387	-0.223986	-0.718661
O	-2.307769	0.226118	-2.842109
N	-0.369482	-1.354745	0.647703
O	0.262291	-2.325492	0.240501
O	-1.111057	-1.332438	1.629026
N	-0.521618	1.113252	0.684732
H	-1.484671	0.959752	0.955953
H	0.036951	1.321305	1.50075
F	2.501991	0.0	0.0
