17

C	-0.599911	0.035831	-1.382967
C	0.0	0.0	0.0
Br	-2.531359	0.161908	-1.356195
H	1.096589	0.0	0.0
N	-0.07021	1.255279	-2.159361
O	0.752761	1.973753	-1.619782
O	-0.504507	1.362139	-3.30172
N	-0.147272	-1.117841	-2.295935
O	1.052568	-1.089806	-2.52763
O	-0.968378	-1.91141	-2.719366
N	-0.391652	-1.272356	0.665513
O	-0.734255	-1.230632	1.84924
O	-0.295169	-2.309004	0.009804
N	-0.408785	1.157239	0.73786
H	0.42989	1.527795	1.166507
H	-1.059131	0.893525	1.46857
F	2.462159	0.0	0.0
