17

C	-0.445684	-0.022959	-1.491411
C	0.0	0.0	0.0
Br	0.598118	-1.30658	-2.530713
H	1.116379	0.0	0.0
N	-1.902565	-0.357922	-1.568627
O	-2.14064	-1.62385	-1.329941
O	-2.672961	0.521837	-0.982338
N	-0.16468	1.28125	-2.169421
O	-0.66481	1.353373	-3.36994
O	1.093266	1.643336	-2.018838
N	-0.352245	-1.212006	0.786248
O	-0.180168	-1.019336	2.073649
O	0.165205	-2.309241	0.285312
N	-0.447033	1.224809	0.648895
H	-1.370859	1.099938	1.081814
H	0.212731	1.447992	1.409992
F	2.490693	0.0	0.0
