17

C	-0.452576	0.012609	-1.446278
C	0.0	0.0	0.0
Br	0.629575	-1.036325	-2.621576
H	1.092307	0.0	0.0
N	-1.936686	-0.343926	-1.623087
O	-2.635208	-0.157487	-0.632094
O	-2.329364	-0.704724	-2.721846
N	-0.360428	1.477197	-1.914294
O	0.760043	1.934666	-2.02353
O	-1.420282	2.057436	-2.117786
N	-0.402386	-1.287623	0.637248
O	-0.669078	-2.254326	-0.080262
O	-0.378892	-1.317965	1.866778
N	-0.441392	1.150224	0.708039
H	-1.3768	1.037445	1.073603
H	0.211946	1.340991	1.453182
F	2.475483	0.0	0.0
