16

C	0.0	0.0	0.0
C	-0.430135	-0.04749	-1.471562
F	1.36477	0.0	0.0
H	0.113076	0.770066	-1.958405
N	-0.394968	1.345746	0.578272
O	-0.511701	1.424022	1.79458
O	-0.439572	2.291863	-0.203564
C	-0.397859	-1.146366	0.895982
H	-1.47598	-1.14508	1.006708
H	0.114841	-1.020977	1.849986
H	-0.045747	-2.067808	0.426218
C	-1.865911	0.123004	-1.827567
N	-2.607557	0.276061	-2.7395
C	0.075193	-1.295752	-2.05604
N	0.497694	-2.285468	-2.526395
F	-2.545166	0.0	0.0
