16

C	0.0	0.0	0.0
C	-0.471753	-0.080183	-1.466054
F	1.357978	0.0	0.0
H	-0.393539	-1.14641	-1.719703
N	-0.383987	1.344789	0.587178
O	-0.351005	1.44695	1.808939
O	-0.57977	2.261292	-0.203463
C	-0.403888	-1.155504	0.882568
H	-0.02493	-0.968397	1.887434
H	-1.486952	-1.232161	0.869782
H	0.084759	-2.049987	0.48385
C	0.477725	0.618951	-2.346567
N	1.241459	1.117181	-3.085691
C	-1.853159	0.337724	-1.817678
N	-2.585592	0.662891	-2.690176
F	-2.551879	0.0	0.0
