16

C	0.0	0.0	0.0
C	-0.543764	0.125386	-1.451257
F	1.359616	0.0	0.0
H	-1.048393	-0.822381	-1.652249
N	-0.349094	1.228375	0.813212
O	-0.215091	2.301428	0.229379
O	-0.579377	1.087957	2.006266
C	-0.394865	-1.280604	0.693478
H	0.07739	-1.305378	1.675653
H	0.001469	-2.105623	0.092489
H	-1.48136	-1.291493	0.750684
C	0.573167	0.284488	-2.403143
N	1.448029	0.384274	-3.179594
C	-1.551744	1.154992	-1.739654
N	-2.200785	1.96921	-2.287888
F	-2.519655	0.0	0.0
