16

C	0.0	0.0	0.0
C	-0.463127	-0.147199	-1.466017
F	1.358516	0.0	0.0
H	-0.422501	-1.227732	-1.659785
N	-0.387092	1.367089	0.526366
O	-0.52273	2.254887	-0.308074
O	-0.40651	1.516537	1.74316
C	-0.395648	-1.128875	0.921639
H	-0.08864	-0.869344	1.934698
H	0.165813	-2.011328	0.600098
H	-1.470816	-1.263103	0.860842
C	0.519647	0.469591	-2.377003
N	1.318751	0.906011	-3.116928
C	-1.824764	0.298702	-1.853131
N	-2.567305	0.605987	-2.721424
F	-2.525443	0.0	0.0
