16
Coordinates from ORCA-job run
  C   -0.66331138941723      0.14312242506303     -0.09155670614728
  C   0.81519707319987      0.02202680571660     -0.48007590666064
  H   -1.11686881414899      0.78675025808032     -0.86943880842457
  H   0.87032218225810     -0.47926736570213     -1.45913168043475
  N   -0.72211394540398      0.71498988925941      1.24180464649067
  H   -0.18159708058584      1.57222843205589      1.25579092576808
  H   -1.67935266593055      0.92776483283470      1.49404603743900
  C   -1.35874683713325     -1.20792100964158     -0.11313498917441
  H   -2.42079041312501     -1.09189688134175      0.11889505110443
  H   -1.28205389643124     -1.68117827038589     -1.09610322610733
  H   -0.91871425819552     -1.86456885719349      0.64011777670180
  C   1.53402138850903     -0.82873308223969      0.47640170438335
  N   2.15434743135117     -1.51256726391493      1.20076050997215
  N   1.42308827244482      1.35822457441652     -0.48224234142993
  H   2.43285463110793      1.28805560267885     -0.52417514624381
  H   1.11471832150069      1.85296991031414     -1.31195784723677
