16
Coordinates from ORCA-job run
  C   -0.62090488618418      0.11425433236558     -0.34284190112693
  C   0.91249873647408      0.22936358174672     -0.46653949110414
  H   -1.01839857467453     -0.00306187880173     -1.36212143858675
  H   1.12083558551883      1.10850903271500     -1.10077162430604
  N   -1.07646363078652      1.34928460801038      0.30123046208672
  H   -1.99653521896952      1.21308994007941      0.70154492997106
  H   -1.14892067343063      2.09660458257843     -0.37975757964357
  C   -1.03565454878904     -1.08660319196403      0.49133200374081
  H   -0.63779530626654     -2.01078045054477      0.06877905779002
  H   -2.12631143562478     -1.16808613507332      0.51254542626263
  H   -0.66425031846492     -0.98613429007035      1.51082111113328
  C   1.44979986754152     -0.93755360746552     -1.17860653140623
  N   1.86631801632766     -1.86440883283379     -1.76621356545135
  N   1.49485351817529      0.31922248753524      0.86485443731984
  H   1.00283893267695      1.06873232333361      1.34023419379825
  H   2.47708993647634      0.55756749838916      0.80551050952241
