16
Coordinates from ORCA-job run
  C   -0.52510072669826      0.19914243846289     -0.25510958762122
  C   0.98295819915769     -0.07623790424226     -0.44337908059569
  H   -0.82036245632159      0.81000741750030     -1.11742109992601
  H   1.12528856974099     -0.68544627080285     -1.34317876498521
  N   -0.66691090295620      1.04183240089623      0.93107231276140
  H   -0.61049791119280      0.46952230326615      1.76769117062759
  H   -1.57157331192625      1.49639671331007      0.93483669591840
  C   -1.35052559107069     -1.08345914534154     -0.23643870200436
  H   -1.07872220324885     -1.70270750350016      0.62309383527768
  H   -2.41554386420775     -0.84895729347480     -0.16201957948294
  H   -1.19669366331457     -1.67485221645033     -1.14440355568526
  C   1.45202628680225     -0.87445200505784      0.70323620686714
  N   1.75440706198436     -1.50064709018327      1.64909311640806
  N   1.80381546137364      1.12075987738088     -0.55848921207533
  H   1.45415498957075      1.78319592962421      0.12762485791143
  H   1.66428006230729      1.52490234861234     -1.47720861339569
