18

C	-0.451971	-0.040728	-1.470065
C	0.0	0.0	0.0
Br	0.218615	1.6839	-2.343074
H	1.094811	0.0	0.0
C	0.249118	-1.158901	-2.217066
H	-0.090418	-2.115793	-1.810602
H	0.010348	-1.119204	-3.283166
H	1.328441	-1.067801	-2.080542
N	-1.863711	-0.138788	-1.585951
H	-2.139476	-0.181949	-2.559505
H	-2.323798	0.654128	-1.156832
C	-0.438854	-1.24986	0.629264
N	-0.807716	-2.228607	1.164816
C	-0.499921	1.180842	0.833437
H	-0.075792	1.10414	1.836438
H	-0.159034	2.116857	0.392554
H	-1.590604	1.190422	0.926996
Br	3.51666	0.0	0.0
