18

C	-0.455023	-0.04648	-1.468757
C	0.0	0.0	0.0
Br	0.247089	1.65827	-2.358362
H	1.094792	0.0	0.0
C	0.223335	-1.183864	-2.207418
H	1.304076	-1.116102	-2.068089
H	-0.010523	-1.143911	-3.274661
H	-0.139739	-2.130798	-1.797575
N	-1.868419	-0.118785	-1.581528
H	-2.312779	0.688219	-1.161975
H	-2.145512	-0.1689	-2.554423
C	-0.441564	-1.244824	0.63729
N	-0.815413	-2.218939	1.177746
C	-0.498855	1.187086	0.825388
H	-0.063659	1.125185	1.824558
H	-0.168834	2.120186	0.370138
H	-1.588423	1.189875	0.930137
Br	3.516679	0.0	0.0
