18

C	-0.44833	-0.042001	-1.477224
C	0.0	0.0	0.0
Br	-0.044482	1.700377	-2.319297
H	1.095805	0.0	0.0
C	0.365282	-1.083738	-2.234322
H	0.134524	-2.07428	-1.827191
H	0.105023	-1.071743	-3.296286
H	1.434577	-0.896993	-2.107969
N	-1.891835	-0.194561	-1.56189
H	-2.136335	-1.088889	-1.144243
H	-2.164038	-0.224138	-2.539033
C	-0.447618	-1.257797	0.603637
N	-0.872488	-2.24475	1.081425
C	-0.530725	1.177307	0.81788
H	-0.026222	2.09016	0.503753
H	-1.607821	1.289466	0.680717
H	-0.310331	1.015811	1.875035
Br	3.527154	0.0	0.0
