18

C	-0.357808	0.060726	-1.497386
C	0.0	0.0	0.0
Br	-0.016917	-1.820996	-2.27276
H	1.097007	0.0	0.0
C	-1.819328	0.3286	-1.801228
H	-2.078243	1.330675	-1.449367
H	-2.000324	0.279294	-2.877629
H	-2.455848	-0.411388	-1.311622
N	0.49153	1.015825	-2.088004
H	1.46547	0.853984	-1.827448
H	0.396957	1.036782	-3.095617
C	-0.556454	-1.155832	0.686516
N	-1.065726	-2.010993	1.310652
C	-0.429271	1.280279	0.734559
H	-1.51296	1.339252	0.864004
H	0.040979	1.289527	1.719418
H	-0.076282	2.146886	0.17591
Br	3.488317	0.0	0.0
