18

C	-0.375426	0.060028	-1.504162
C	0.0	0.0	0.0
Br	-0.047591	-1.743585	-2.266219
H	1.096654	0.0	0.0
C	-1.833511	0.392963	-1.759054
H	-2.037676	0.339354	-2.828892
H	-2.046687	1.410422	-1.41455
H	-2.488581	-0.301624	-1.229876
N	0.47988	0.961424	-2.238184
H	0.239543	1.917054	-1.99621
H	1.45042	0.800981	-1.963077
C	-0.559861	-1.146141	0.701823
N	-1.077166	-2.005824	1.314409
C	-0.405731	1.280518	0.746812
H	0.066662	1.272626	1.730862
H	-0.030931	2.158974	0.21732
H	-1.487244	1.365668	0.878094
Br	3.487529	0.0	0.0
