18

C	-0.53519	0.013749	-1.443964
C	0.0	0.0	0.0
Br	0.342239	-1.450477	-2.423479
H	1.094427	0.0	0.0
C	-2.037197	-0.243142	-1.531056
H	-2.347546	-0.234157	-2.577576
H	-2.315716	-1.200312	-1.08803
H	-2.571861	0.553577	-1.002629
N	-0.13223	1.267443	-2.074528
H	0.027388	1.125444	-3.063704
H	-0.884093	1.940835	-1.967813
C	-0.473285	-1.18654	0.71322
N	-0.895754	-2.100653	1.320101
C	-0.409822	1.264145	0.770055
H	-1.493425	1.371607	0.872819
H	0.01233	2.131501	0.260792
H	0.028961	1.219641	1.76682
Br	3.543511	0.0	0.0
