18

C	-0.273744	0.001652	-1.516266
C	0.0	0.0	0.0
Br	-2.244398	-0.070757	-1.835493
H	1.100138	0.0	0.0
C	0.262795	1.262603	-2.167159
H	-0.253091	2.155675	-1.815023
H	0.137293	1.179172	-3.247499
H	1.328939	1.338518	-1.923777
N	0.301823	-1.142627	-2.18726
H	-0.0076	-1.995362	-1.730262
H	1.312029	-1.078354	-2.050068
C	-0.457527	-1.24998	0.597831
N	-0.835095	-2.252873	1.080795
C	-0.494824	1.199853	0.802343
H	-0.19365	1.084826	1.846517
H	-1.582855	1.29243	0.753296
H	-0.033027	2.114623	0.428743
Br	3.477084	0.0	0.0
