16

C	0.0	0.0	0.0
C	-0.522195	0.307749	-1.412776
Cl	1.786964	0.0	0.0
H	-1.601682	0.13428	-1.329055
N	-0.519677	0.96959	0.925345
H	-1.544054	0.900957	0.852875
H	-0.25815	0.711969	1.870951
C	-0.340493	-1.398484	0.3477
N	-0.559074	-2.490722	0.722104
N	0.022107	-0.644559	-2.356351
H	0.863963	-0.242383	-2.752069
H	-0.643818	-0.797884	-3.10208
N	-0.193579	1.694111	-1.746398
H	-0.934928	2.046086	-2.342692
H	-0.228126	2.236317	-0.887425
Br	-3.783415	0.0	0.0
