16

C	0.0	0.0	0.0
C	-0.513794	0.303699	-1.418352
Cl	1.787019	0.0	0.0
H	-1.596043	0.141616	-1.34337
N	-0.528144	0.974992	0.914303
H	-1.551978	0.900267	0.830011
H	-0.278839	0.719477	1.863403
C	-0.351077	-1.393637	0.348536
N	-0.574562	-2.486685	0.717187
N	0.024701	-0.663322	-2.35131
H	-0.633637	-0.798397	-3.106972
H	0.881541	-0.279879	-2.735661
N	-0.169482	1.684056	-1.760246
H	-0.905631	2.042668	-2.358049
H	-0.19889	2.23344	-0.904938
Br	-3.778472	0.0	0.0
