16

C	0.0	0.0	0.0
C	-0.411956	-0.3855	-1.493162
Cl	1.822796	0.0	0.0
H	0.518441	-0.296957	-2.058152
N	-0.487435	1.305243	0.33447
H	-0.278043	1.499902	1.308376
H	-1.506731	1.251868	0.249069
C	-0.343801	-1.031155	0.993851
N	-0.577739	-1.771813	1.876568
N	-1.372647	0.470621	-2.145147
H	-2.28598	0.369057	-1.703931
H	-1.083998	1.440781	-2.073021
N	-0.802831	-1.781214	-1.503152
H	-0.957716	-2.027865	-2.476699
H	-1.708288	-1.853436	-1.040255
Br	-3.871611	0.0	0.0
