16

C	0.0	0.0	0.0
C	-0.494403	-0.195015	-1.442184
Cl	1.792554	0.0	0.0
H	-1.584562	-0.174385	-1.347448
H	-0.275323	1.004718	0.340759
N	-0.504601	-1.066908	0.824808
H	-0.278151	-0.876801	1.795075
H	-1.525046	-1.000839	0.738252
N	-0.120079	-1.47862	-2.027215
H	0.890135	-1.570078	-1.971686
H	-0.500049	-2.2049	-1.429609
C	-0.070734	0.937624	-2.360866
H	1.010069	0.934674	-2.530787
H	-0.352686	1.907471	-1.94181
H	-0.570119	0.814906	-3.323192
Cl	-3.655675	0.0	0.0
