16

C	0.0	0.0	0.0
C	-0.445652	0.40267	-1.441147
Cl	1.792126	0.0	0.0
H	0.432131	0.785951	-1.969039
H	-0.276606	0.834347	0.644491
N	-0.527206	-1.197445	0.584674
H	-1.522136	-1.035263	0.746171
H	-0.44819	-1.967146	-0.068719
N	-1.374014	1.525659	-1.318087
H	-1.631212	1.830744	-2.251557
H	-2.237127	1.188048	-0.885151
C	-0.985764	-0.790279	-2.229292
H	-0.256367	-1.606847	-2.296
H	-1.910762	-1.151604	-1.777631
H	-1.215089	-0.472339	-3.25108
Cl	-3.941549	0.0	0.0
