16

C	0.0	0.0	0.0
C	-0.449429	-0.269398	-1.455691
Cl	1.840552	0.0	0.0
H	0.424183	-0.093947	-2.089855
H	-0.222842	1.049873	0.207888
N	-0.523823	-0.930008	0.95322
H	-0.381132	-0.563802	1.887637
H	-1.533375	-0.964298	0.799783
N	-1.421939	0.758974	-1.825296
H	-1.660871	0.628611	-2.80306
H	-2.28637	0.608463	-1.29934
C	-0.907667	-1.712469	-1.675561
H	-1.039709	-1.882754	-2.748822
H	-1.870442	-1.887669	-1.192476
H	-0.177519	-2.431158	-1.294213
Cl	-3.998924	0.0	0.0
