16

C	0.0	0.0	0.0
C	-0.563116	-0.052382	-1.408726
Cl	1.868193	0.0	0.0
H	-1.643966	0.003572	-1.217745
H	-0.232752	0.954747	0.469887
N	-0.494917	-1.066524	0.747937
H	-0.153056	-1.115009	1.693633
H	-0.406734	-1.93553	0.241553
N	-0.280784	-1.368327	-1.983195
H	-1.027859	-1.624861	-2.613902
H	0.588151	-1.341613	-2.502798
C	-0.130602	1.120691	-2.274281
H	-0.679714	1.103064	-3.218554
H	0.940721	1.078885	-2.489867
H	-0.345308	2.07222	-1.780049
Cl	-4.077021	0.0	0.0
