16

C	0.0	0.0	0.0
C	-0.38914	-0.193075	-1.503927
Cl	1.789273	0.0	0.0
H	0.386736	0.319259	-2.083728
H	-0.282408	1.015429	0.286731
N	-0.552153	-0.891974	0.974006
H	-1.548732	-0.685707	1.046646
H	-0.452778	-1.851571	0.665758
N	-1.653625	0.388958	-1.899011
H	-1.65176	1.385376	-1.711443
H	-2.443068	0.018576	-1.367522
C	-0.380916	-1.665741	-1.888822
H	-1.233294	-2.175575	-1.432692
H	-0.492895	-1.749601	-2.971124
H	0.543967	-2.165332	-1.586488
Cl	-4.217766	0.0	0.0
