16

C	0.0	0.0	0.0
C	-0.326815	2.1e-05	-1.525136
Cl	1.80888	0.0	0.0
H	0.382335	-0.696764	-1.988505
H	-0.313166	0.95051	0.436147
N	-0.508546	-1.068832	0.803079
H	-1.502951	-0.90351	0.95122
H	-0.411291	-1.949146	0.3093
N	-0.102801	1.306864	-2.143859
H	0.774637	1.697469	-1.820635
H	-0.849165	1.928154	-1.849199
C	-1.732649	-0.465548	-1.850006
H	-1.902563	-0.310909	-2.917145
H	-1.863524	-1.526994	-1.635091
H	-2.511301	0.050992	-1.287905
Cl	-4.547439	0.0	0.0
