16

C	0.0	0.0	0.0
C	-0.378463	-0.271313	-1.498122
Cl	1.802155	0.0	0.0
H	0.440101	0.139394	-2.098057
H	-0.277596	1.031164	0.229747
N	-0.557271	-0.833214	1.018606
H	-1.552125	-0.61351	1.080862
H	-0.472836	-1.807421	0.757223
N	-1.589719	0.371832	-1.964207
H	-1.50105	1.377419	-1.86935
H	-2.402348	0.108788	-1.403647
C	-0.470703	-1.76388	-1.776356
H	-1.361425	-2.179585	-1.298382
H	0.414114	-2.302356	-1.424196
H	-0.57289	-1.918165	-2.851421
Cl	-4.100845	0.0	0.0
