17

C	0.0	0.0	0.0
C	-0.550547	0.053151	-1.40906
Br	1.956474	0.0	0.0
H	-1.622423	0.258083	-1.207834
H	-0.076953	0.872864	-1.952054
N	-0.340507	1.324933	0.699381
O	-0.428262	1.317112	1.921114
O	-0.433139	2.324847	-0.003229
C	-0.529935	-1.139923	0.828329
H	-1.628148	-1.000849	0.751507
H	-0.205479	-2.086194	0.391593
H	-0.170917	-1.075167	1.85402
C	-0.418464	-1.26873	-2.153528
H	-0.682038	-1.124072	-3.205803
H	0.59523	-1.682443	-2.115547
H	-1.118794	-1.996019	-1.738984
F	-2.900187	0.0	0.0
