17

C	0.0	0.0	0.0
C	-0.547654	0.061363	-1.410741
Br	1.956021	0.0	0.0
H	-1.616275	0.278085	-1.212452
H	-0.06211	0.873074	-1.953744
N	-0.341141	1.320946	0.704612
O	-0.441402	2.322321	0.004338
O	-0.417439	1.310967	1.926733
C	-0.531512	-1.142861	0.822053
H	-0.173137	-1.084338	1.848241
H	-1.629862	-0.997523	0.744885
H	-0.212708	-2.088117	0.379309
C	-0.432125	-1.263209	-2.151867
H	0.574581	-1.693386	-2.106098
H	-1.148272	-1.976307	-1.740958
H	-0.684248	-1.117359	-3.206919
F	-2.894006	0.0	0.0
