14
Coordinates from ORCA-job run
  C   0.61030238764840     -0.48387643263492      0.69581662380515
  C   -0.49380498704659     -0.15000536702302     -0.30992677264801
  Cl  0.40488955815819      0.31546497631665      2.24193665063260
  H   -0.19596935329227     -0.67870775853533     -1.22909755777436
  H   0.63534767768078     -1.55889451986376      0.84944681262011
  N   1.93979618459615     -0.13060622310574      0.06807393915645
  O   2.43108005724341     -1.02565317266771     -0.61485294768170
  O   2.38468396775997      1.00307978567795      0.20700289530636
  N   -0.62314840214601      1.28814813964234     -0.46123217020985
  H   0.27359600002153      1.75610690982014     -0.51827699420924
  H   -1.15380287329058      1.50313605011488     -1.29562308640488
  N   -1.71109026463348     -0.77601996907147      0.15688300338950
  H   -2.14939086717112     -0.15004539201406      0.82381011550451
  H   -2.35248908552838     -0.91112702665595     -0.61396051148664
