14
Coordinates from ORCA-job run
  C   0.61281666447170     -0.58174305103096      0.55256025551274
  C   -0.65300215414828      0.19661450935010      0.16059798697754
  Cl  0.64736614167135     -1.01828898526348      2.25347450125238
  H   -0.78971197958820      0.97313192869359      0.91767208188914
  H   0.74039765837672     -1.48326172577167     -0.04702151745016
  N   1.79919101989086      0.28152626154186      0.22984122535793
  O   2.51945927419006     -0.10199412787464     -0.68919098569861
  O   1.91052982927307      1.33244689005314      0.85038419230088
  N   -1.75625059719736     -0.73075956556309      0.24617948969453
  H   -1.69658297699973     -1.40509743817057     -0.50994694160590
  H   -2.61734013671744     -0.21423294296916      0.11346641225516
  N   -0.55022734797627      0.86164911807231     -1.12710652107988
  H   -0.23674768738410      0.23068055494258     -1.85593726428898
  H   0.07110229213762      1.66032857398999     -1.09597291511675
