15

C	-0.536407	0.047819	-1.421041
C	0.0	0.0	0.0
Br	0.161449	-1.479935	-2.441319
H	1.092891	0.0	0.0
H	-0.341117	-0.9483	0.425814
N	-1.987311	-0.070244	-1.438178
H	-2.372955	0.715923	-0.924903
H	-2.320858	-0.010591	-2.394181
C	-0.08673	1.257222	-2.134602
N	0.132828	2.265816	-2.698651
C	-0.480499	1.17881	0.846311
H	-1.559232	1.165461	1.035732
H	0.025087	1.137894	1.813315
H	-0.210014	2.132386	0.385024
Br	3.634449	0.0	0.0
