15

C	-0.26838	0.111893	-1.50368
C	0.0	0.0	0.0
Br	-2.170384	0.623396	-1.866309
H	1.097528	0.0	0.0
H	-0.37781	-0.947786	0.391455
N	0.572301	1.061576	-2.202739
H	1.539635	0.796263	-1.990363
H	0.430147	1.975806	-1.785493
C	-0.115406	-1.204202	-2.135583
N	0.005772	-2.266248	-2.623522
C	-0.473497	1.176842	0.838952
H	-1.55968	1.202656	0.946418
H	-0.020886	1.105406	1.830552
H	-0.146638	2.127335	0.409683
Br	3.558065	0.0	0.0
