11
Coordinates from ORCA-job run
  C   0.70567883089424     -0.36425127537991      0.40690489301641
  C   -0.37705972298815      0.32972049620114     -0.41408333791293
  Cl  0.22679136398952     -0.44403365232491      2.13125526599508
  H   0.00268262144847      0.41784661924913     -1.43616084499356
  H   0.80063577627651     -1.39618855125471      0.06475775189320
  H   -0.51542580589126      1.34436770456058     -0.01617131929004
  C   1.98683040943832      0.32416790448816      0.28606990057515
  N   3.00307488634784      0.89513532417627      0.14622222445275
  N   -1.57096244335594     -0.49966833590928     -0.43339867109271
  H   -2.18804083861614     -0.19931717282851     -1.17626445385875
  H   -2.07420507754342     -0.40877906097797      0.43986859121538
