11
Coordinates from ORCA-job run
  C   0.88957079730124     -0.45314926569197      0.06777700880544
  C   -0.60752792485042     -0.43582831888392     -0.24341108211402
  Cl  1.41043054118790     -2.07991424924794      0.58778118986549
  H   -0.79514483722423     -1.21584753492385     -0.98387078695746
  H   1.43875147130046     -0.19724664439120     -0.83933433872267
  H   -1.15859718177815     -0.70069259702254      0.66824952259256
  C   1.20627413057630      0.53016552658998      1.10006009276534
  N   1.41457512574606      1.34364174375446      1.92081701996295
  N   -0.93155763052500      0.86231494902210     -0.81349613262731
  H   -1.10095724375231      1.54258657471810     -0.08329672225505
  H   -1.76581724798187      0.80496981607677     -1.38127577131527
