11
Coordinates from ORCA-job run
  C   0.68750017052397     -0.36590740173392      0.43565883036953
  C   -0.36029803206340      0.31772240192108     -0.43767143974571
  Cl  0.19732708754718     -0.30934307823978      2.15786786120088
  H   0.02733673156801      0.32154579619843     -1.46064045762990
  H   0.73829799803828     -1.42153188922381      0.16359033672110
  H   -0.45677691131455      1.36158243451947     -0.10898226221455
  C   1.99817917874528      0.25653672001995      0.27949710613777
  N   3.03900636904685      0.77255214752809      0.10998100222489
  N   -1.58876221136011     -0.45932451233189     -0.41085878212039
  H   -2.09333236396608     -0.28708188496351      0.44923682819893
  H   -2.18747801676543     -0.18575073369411     -1.17867902314258
