11
Coordinates from ORCA-job run
  C   0.78553362698412     -0.58475929915990      0.22855172833195
  C   -0.49199842156048     -0.29661148808126     -0.55420420260716
  Cl  0.38306819617326     -1.14663532533918      1.88303457952722
  H   -0.19095186878568     -0.03163918974766     -1.57236836284804
  H   1.33636541031028     -1.40331791490460     -0.24061388260347
  H   -1.06244854068241     -1.23493896350289     -0.60573050668111
  C   1.64841048726843      0.59020154487664      0.30064639362782
  N   2.35490990414709      1.52726057804867      0.30618102012879
  N   -1.19823987715588      0.82558422691777      0.03192169701070
  H   -1.71368761019370      0.53496563644429      0.85193388110623
  H   -1.85196130650503      1.22089019444813     -0.62935234499294
