11
Coordinates from ORCA-job run
  C   0.85762464286330     -0.52020838574726      0.07535580327941
  C   -0.62952340234318     -0.40223485021920     -0.25991977396790
  Cl  1.23997473719412     -2.16147534634693      0.66777997400860
  H   -1.21158462667678     -0.66566569297144      0.63273284276920
  H   1.44104754810501     -0.35102110562607     -0.83029791995890
  H   -0.84932217534309     -1.14231574386708     -1.03236701424161
  C   1.23399925923064      0.47399563842823      1.07619165218501
  N   1.47839522646522      1.29905581213569      1.87505075801037
  N   -0.86491255044494      0.93210763084360     -0.78837455527033
  H   -1.68516551715249      0.94399151334913     -1.37867318658188
  H   -1.01053314189782      1.59477053002133     -0.03747858023196
