11
Coordinates from ORCA-job run
  C   0.72465885316923     -0.32259199448313      0.17746714595925
  C   -0.52666030600613      0.50579736979906     -0.17355582782782
  Cl  0.42523682327573     -1.32677973501670      1.62868602070466
  H   -0.75472542235871      1.14996600476405      0.67896697301989
  H   0.95201616335956     -1.01778043694392     -0.63458983338600
  H   -0.26006056266677      1.15433526990076     -1.01385942957938
  C   1.88223185301765      0.53607910388765      0.40431625351938
  N   2.81301826058690      1.23743482032352      0.54805920375481
  N   -1.70786197645022     -0.24808745950969     -0.52149098910171
  H   -1.55112642795634     -0.82531295579641     -1.33743887925071
  H   -1.99672725797089     -0.84305998692519      0.24343936218763
