11
Coordinates from ORCA-job run
  C   0.80722812396197     -0.47339457601271      0.08579591931986
  C   -0.69905330354399     -0.48150666545562     -0.23718693128149
  Cl  1.32915115984375     -2.07558522368401      0.68128382455950
  H   -0.87277345534763     -1.25928619968699     -0.98485339830185
  H   1.38312274302537     -0.27364397464532     -0.82113581333065
  H   -1.24014294914259     -0.77058469004484      0.66672884531697
  C   1.11326307042789      0.55740109823128      1.07305780892130
  N   1.29604107169849      1.41515360240556      1.85397420154184
  N   -1.21958415572133      0.77663982108164     -0.72047689739279
  H   -1.13661521000919      1.50811912431419     -0.02685436666691
  H   -0.76063709519273      1.07568768349683     -1.57033319268580
