11
Coordinates from ORCA-job run
  C   0.72499486964117     -0.59366178566354      0.27132537385093
  C   -0.52239086275584     -0.40481017916028     -0.61443214339873
  Cl  0.24839130292349     -1.08186125255013      1.92627149696919
  H   -1.07141572858429     -1.34990651024687     -0.60687784729263
  H   1.35113257311595     -1.39896273830143     -0.12037548163535
  H   -0.16721547774453     -0.23723804185711     -1.63637879250209
  C   1.50294385953857      0.63962848054624      0.32881968742940
  N   2.08529894118694      1.65931014160007      0.32056092051951
  N   -1.41790650435044      0.66482199024544     -0.25049611712118
  H   -0.95856328026853      1.56498065891634     -0.30445884048951
  H   -1.77526969270249      0.53869923647127      0.68704174367045
