11
Coordinates from ORCA-job run
  C   0.81403077030629     -0.45148611568370      0.06627883489102
  C   -0.68593453743657     -0.48614839068775     -0.28098417432474
  Cl  1.38204994266825     -2.07464686294767      0.55364819624886
  H   -0.82319988790460     -1.21114681927638     -1.08693222796237
  H   1.39516648899130     -0.16794415055360     -0.81465788249754
  H   -1.23037230417481     -0.85918553208845      0.58953253212892
  C   1.07741753207824      0.51485748597271      1.12811747322381
  N   1.28567780707429      1.31890298699312      1.95826495500908
  N   -1.24183709752966      0.78693589694573     -0.67965467367662
  H   -0.78257164565591      1.16085389433662     -1.49927992171179
  H   -1.19042706841683      1.46900760698939      0.06566688867137
