11
Coordinates from ORCA-job run
  C   0.78382278313562     -0.57531525475515      0.24474990327941
  C   -0.47174555777522     -0.29540552876067     -0.57484163519572
  Cl  0.33836800033437     -1.16490901171177      1.87782394920548
  H   -0.14257317699456     -0.01378148971597     -1.57968760011922
  H   1.36351819539418     -1.37784748625923     -0.21706091685893
  H   -1.02814624207510     -1.24016308927406     -0.65543650364130
  C   1.62721572442374      0.61105801929315      0.35932525487780
  N   2.33846005948417      1.54315789604199      0.40781999946176
  N   -1.21077040830580      0.81085751684137      0.00208901482253
  H   -1.74059920717233      0.50434612933527      0.80714208716168
  H   -1.85655017044906      1.19800229896506     -0.67192355299350
