11
Coordinates from ORCA-job run
  C   0.75189130507205     -0.57984748299799      0.22351945201715
  C   -0.53157008948568     -0.39905228182078     -0.61084957689116
  Cl  0.34995337709619     -1.14308969661815      1.87436571098219
  H   -0.21855464008494     -0.18377180692972     -1.63763693013412
  H   1.38824994762873     -1.34962702632031     -0.21966505241908
  H   -1.05096516273727     -1.36075029552300     -0.61912311159484
  C   1.49310893758873      0.67489484312285      0.30056937745946
  N   2.04320481031372      1.71228715964065      0.31078474026423
  N   -1.44558425101589      0.62791002204295     -0.17667916218867
  H   -1.76440137556593      0.45741780302598      0.76774911554817
  H   -1.01633285880972      1.54362876237753     -0.21403456304334
