18

C	-0.46292	-0.006734	-1.446985
C	0.0	0.0	0.0
Br	0.399106	-1.457214	-2.495908
H	1.107973	0.0	0.0
C	-1.908473	-0.182631	-1.577542
N	-3.080443	-0.189883	-1.682605
C	-0.032476	1.296846	-2.125197
H	-0.577133	2.141022	-1.700606
H	1.038703	1.424275	-1.958167
H	-0.237063	1.246669	-3.194821
N	-0.45418	-1.172929	0.743797
O	-0.958151	-2.124174	0.126407
O	-0.223863	-1.191991	1.961619
C	-0.354459	1.273144	0.751728
H	-1.406106	1.56133	0.641527
H	-0.134132	1.106063	1.804482
H	0.29493	2.081936	0.410259
H	2.519964	0.0	0.0
