18

C	-0.357533	-0.2152	-1.459425
C	0.0	0.0	0.0
Br	-2.339415	-0.589011	-1.693612
H	1.110242	0.0	0.0
C	-0.156187	1.041044	-2.183548
N	0.026758	2.01812	-2.812224
C	0.439435	-1.297533	-2.177443
H	0.298153	-1.215339	-3.257058
H	0.145389	-2.282191	-1.830367
H	1.490112	-1.123899	-1.908671
N	-0.372074	-1.131434	0.839882
O	-0.70903	-0.904591	2.011909
O	-0.228913	-2.276317	0.388267
C	-0.460376	1.305938	0.604104
H	-1.550065	1.373312	0.665429
H	-0.046008	1.39277	1.607486
H	-0.073419	2.134791	0.009553
H	2.505567	0.0	0.0
