18

C	-0.614534	-0.023965	-1.391788
C	0.0	0.0	0.0
F	-0.286512	-1.216664	-2.009948
H	1.096939	0.0	0.0
C	-2.112089	0.13721	-1.442115
H	-2.55185	-0.669484	-0.854337
H	-2.464332	0.076912	-2.475204
H	-2.388649	1.098385	-1.016282
N	0.034765	1.057986	-2.239658
O	-0.484849	2.172098	-2.212592
O	1.025893	0.749328	-2.888433
N	-0.491578	-1.215039	0.702649
H	0.139499	-1.293607	1.500167
H	-0.238021	-2.005236	0.113852
N	-0.43572	1.19542	0.700039
H	0.357917	1.539489	1.226241
H	-1.18516	0.95467	1.339561
F	2.648278	0.0	0.0
