18

C	-0.620199	-0.016936	-1.387598
C	0.0	0.0	0.0
F	-0.255968	-1.184663	-2.032759
H	1.09686	0.0	0.0
C	-2.121913	0.094276	-1.428077
H	-2.477293	0.051675	-2.460313
H	-2.429676	1.033329	-0.975873
H	-2.530777	-0.741554	-0.85992
N	-0.005969	1.101843	-2.214778
O	-0.604364	2.176817	-2.237674
O	1.041198	0.860761	-2.797454
N	-0.481818	-1.217838	0.698463
H	0.154765	-1.306063	1.486467
H	-0.237378	-2.004736	0.103026
N	-0.436466	1.1932	0.704069
H	-1.176907	0.948287	1.352184
H	0.360499	1.539334	1.223671
F	2.646749	0.0	0.0
