18

C	-0.358114	0.007674	-1.467958
C	0.0	0.0	0.0
F	0.148899	1.150854	-2.036636
H	1.101225	0.0	0.0
C	0.189274	-1.189891	-2.186251
H	0.054019	-1.080222	-3.264433
H	-0.296614	-2.089498	-1.818259
H	1.249001	-1.210242	-1.925892
N	-1.86718	0.128405	-1.65337
O	-2.533876	-0.850349	-1.322367
O	-2.329048	1.183155	-2.075093
N	-0.439412	-1.214205	0.644434
H	0.188241	-1.39564	1.416673
H	-1.382005	-1.092094	0.995391
N	-0.575525	1.204993	0.636203
H	-0.082815	1.290429	1.520643
H	-0.263523	2.002076	0.086626
F	2.687427	0.0	0.0
