18

C	-0.407029	0.172379	-1.452796
C	0.0	0.0	0.0
F	-1.716516	0.613926	-1.570616
H	1.095634	0.0	0.0
C	0.545194	1.098181	-2.163726
H	1.556345	0.802262	-1.870067
H	0.402188	1.071152	-3.247119
H	0.3517	2.102375	-1.785565
N	-0.388247	-1.188928	-2.121325
O	0.717793	-1.649513	-2.375782
O	-1.460648	-1.740056	-2.350906
N	-0.48939	-1.255882	0.545749
H	-1.427874	-1.15962	0.918694
H	0.135101	-1.536933	1.290734
N	-0.378878	1.237405	0.682862
H	-1.337838	1.191403	1.010934
H	0.239578	1.345081	1.477219
F	2.671323	0.0	0.0
