18

C	-0.620429	-0.038587	-1.385848
C	0.0	0.0	0.0
F	-0.027106	-1.022383	-2.13722
H	1.092733	0.0	0.0
C	-2.112425	-0.268286	-1.419422
H	-2.638251	0.513165	-0.872591
H	-2.292193	-1.243392	-0.965685
H	-2.467758	-0.273228	-2.452768
N	-0.296529	1.265617	-2.103537
O	0.829107	1.376791	-2.572179
O	-1.180468	2.122022	-2.159316
N	-0.358463	-1.258834	0.675974
H	0.49229	-1.580654	1.119933
H	-1.048476	-1.094322	1.398398
N	-0.38953	1.235609	0.66422
H	0.380138	1.500127	1.267722
H	-1.227889	1.124008	1.225597
F	2.628461	0.0	0.0
