18

C	-0.279667	-0.063546	-1.494345
C	0.0	0.0	0.0
F	0.032585	1.157047	-2.057934
H	1.101178	0.0	0.0
C	0.550246	-1.133868	-2.142685
H	0.482225	-1.064456	-3.230865
H	1.568657	-0.944529	-1.784575
H	0.218574	-2.110457	-1.799215
N	-1.76878	-0.232374	-1.766204
O	-2.447368	0.787045	-1.888159
O	-2.216218	-1.378671	-1.779614
N	-0.424794	-1.233353	0.636097
H	0.240881	-1.441731	1.369799
H	-1.3383	-1.085554	1.054126
N	-0.627677	1.183386	0.606646
H	0.014023	1.488727	1.33215
H	-0.633681	1.932108	-0.078178
F	2.694571	0.0	0.0
