15
Coordinates from ORCA-job run
  C   -0.59493771289129     -0.52040458019322     -0.02160421081030
  C   0.49612990346534      0.39593450977499     -0.62253302892362
  F   -0.82428500859373     -1.51069454377516     -0.98123059174446
  H   0.10482889747767      0.80549660691353     -1.56781141354166
  N   -1.74697763630135      0.27323863593144      0.22313257406214
  H   -2.40330207871809     -0.26885404977690      0.77132431971525
  H   -2.17905886053439      0.55567075074315     -0.64825886635501
  N   -0.22897073269682     -1.19189880599181      1.18475342011630
  H   0.20613234275827     -0.52027940102445      1.80738450254847
  H   0.44459677641636     -1.91722921135864      0.96983119408588
  C   1.68248719289558     -0.40282689708084     -0.94272066147556
  N   2.63894578174331     -1.03902172388090     -1.18197224932144
  N   0.83401036147452      1.39389489562266      0.38372522052178
  H   0.00234030787736      1.93936957581722      0.57618900752060
  H   1.56806046562726      2.00660423827893      0.05179078360162
