15
Coordinates from ORCA-job run
  C   -0.43617322952767     -0.43917681102967      0.29120853330897
  C   0.49261368889254      0.38305623200028     -0.61019510108314
  F   -0.15958085833646      0.04907801733968      1.61811420542017
  H   0.26750640828669      0.07753868990475     -1.63458248006454
  N   -0.12330230643783     -1.81799525147743      0.21277987875548
  H   -0.90764458107091     -2.39115642682108      0.49224983278664
  H   0.68294588554202     -2.03538495532406      0.78413382407381
  N   -1.77699169495183     -0.18393463226695     -0.06654129816734
  H   -1.89204417022389      0.81542006269904     -0.18904560363617
  H   -2.40157714105752     -0.50635701830957      0.66283254420018
  C   1.89519024897541      0.03040420751070     -0.32071312639205
  N   3.01997110207929     -0.22968973390285     -0.10577379972116
  N   0.18365941958611      1.79652986146914     -0.45261949198452
  H   0.48225285294696      2.10319178160275      0.46558256640990
  H   0.67117437529709      2.34647597660527     -1.14843048390623
