16

C	0.0	0.0	0.0
C	-0.615257	0.008722	-1.380741
Cl	1.782231	0.0	0.0
H	-1.699389	-0.075024	-1.193314
H	-0.295067	-0.927586	0.487259
C	-0.473164	1.200566	0.803499
H	-0.120678	2.119258	0.335544
H	-0.079798	1.138419	1.820557
H	-1.564809	1.199475	0.835253
N	-0.229493	-1.29489	-2.0889
O	0.222498	-1.218827	-3.232308
O	-0.40494	-2.340666	-1.473145
N	-0.314656	1.162599	-2.152149
H	-1.016606	1.285153	-2.867464
H	0.585689	1.061126	-2.604512
Cl	-3.759173	0.0	0.0
