16

C	0.0	0.0	0.0
C	-0.555713	-0.393536	-1.368865
Cl	1.790186	0.0	0.0
H	-1.62445	-0.585945	-1.203831
H	-0.290434	-0.777968	0.705495
C	-0.522672	1.346459	0.445545
H	-0.175244	2.139147	-0.220706
H	-1.614622	1.297076	0.439676
H	-0.174575	1.568793	1.456524
N	0.057768	-1.731792	-1.732196
O	-0.17194	-2.651412	-0.949112
O	0.759741	-1.817894	-2.73331
N	-0.396243	0.524571	-2.443882
H	-1.153907	1.191812	-2.424132
H	0.498285	0.995382	-2.418541
Cl	-3.722905	0.0	0.0
