16

C	0.0	0.0	0.0
C	-0.238778	-0.09268	-1.52914
F	1.396829	0.0	0.0
H	0.333592	0.778988	-1.890948
C	-0.505604	1.265874	0.637018
H	-0.120298	1.334639	1.657228
H	-0.152616	2.126207	0.061405
H	-1.598912	1.22936	0.644735
C	-0.409872	-1.21138	0.723585
N	-0.635173	-2.171851	1.359187
C	-1.559267	0.057444	-2.155134
N	-2.298026	0.184745	-3.063419
N	0.327483	-1.361677	-1.994402
H	0.129254	-1.474143	-2.980461
H	1.330569	-1.335604	-1.863559
Cl	-3.567808	0.0	0.0
