16

C	0.0	0.0	0.0
C	-0.381609	-0.017947	-1.518076
F	1.388859	0.0	0.0
H	0.334878	-0.725999	-1.953154
C	-0.567642	1.151499	0.791135
H	-0.230322	2.094189	0.356596
H	-0.230909	1.088999	1.827637
H	-1.661606	1.097615	0.763124
C	-0.401455	-1.298213	0.576321
N	-0.644249	-2.340634	1.059554
C	-0.043105	1.300471	-2.084389
N	0.245687	2.344313	-2.537001
N	-1.705841	-0.414777	-1.908212
H	-1.828486	-1.404095	-1.72564
H	-2.453496	0.045072	-1.37873
Cl	-4.184842	0.0	0.0
