16

C	0.0	0.0	0.0
C	-0.528753	0.189053	-1.435004
F	1.391026	0.0	0.0
H	-1.610317	-0.011353	-1.363867
C	-0.479556	1.074535	0.949473
H	-0.082001	2.040009	0.631693
H	-1.57268	1.08247	0.948141
H	-0.107658	0.857094	1.952648
C	-0.376409	-1.344517	0.485845
N	-0.563736	-2.440093	0.864721
C	0.099564	-0.804475	-2.319997
N	0.603848	-1.584988	-3.037329
N	-0.340974	1.517582	-1.99257
H	-1.04709	2.134692	-1.611211
H	0.579749	1.873664	-1.763241
Cl	-3.610289	0.0	0.0
