12

C	0.0	0.0	0.0
C	-0.431161	0.038441	-1.508045
Br	1.913206	0.0	0.0
H	-0.090759	0.938183	-2.047715
H	-0.413541	0.877562	0.535418
H	-1.544084	0.077301	-1.560421
N	-0.473946	-1.161845	0.809173
O	-1.850227	-1.197096	1.020263
O	0.25503	-2.202021	0.981952
C	-0.129177	-1.20095	-2.213344
N	0.04963	-2.212479	-2.78833
H	-1.69409	0.0	0.0
