12

C	0.0	0.0	0.0
C	-0.43095	0.038385	-1.508132
Br	1.91313	0.0	0.0
H	-0.090503	0.938203	-2.047611
H	-0.413931	0.877366	0.535486
H	-1.54385	0.0771	-1.560744
N	-0.4738	-1.162504	0.808673
O	-1.850312	-1.198543	1.018552
O	0.255536	-2.201686	0.983155
C	-0.128601	-1.200952	-2.213347
N	0.050272	-2.212513	-2.788209
H	-1.694728	0.0	0.0
