12

C	0.0	0.0	0.0
C	-0.357297	-0.031489	-1.494053
Br	1.925346	0.0	0.0
H	0.231604	-0.80975	-1.984998
H	-0.343645	0.872524	0.539835
H	-1.424376	-0.256511	-1.55496
N	-0.525504	-1.193892	0.705801
O	-0.51949	-1.136023	1.942722
O	-0.561251	-2.246885	0.048537
C	-0.094718	1.252976	-2.130363
N	0.106147	2.273633	-2.676507
H	-2.289726	0.0	0.0
