12

C	0.0	0.0	0.0
C	-0.377479	-0.072736	-1.485497
Br	1.911341	0.0	0.0
H	-1.463899	-0.234777	-1.488493
H	-0.373528	0.874618	0.516428
H	0.156485	-0.902926	-1.952723
N	-0.500166	-1.195246	0.736622
O	-0.5497	-2.255558	0.100932
O	-0.52698	-1.101813	1.967704
C	-0.066588	1.175794	-2.168734
N	0.14398	2.179765	-2.742316
H	-2.392165	0.0	0.0
