12

C	0.0	0.0	0.0
C	-0.431828	0.038162	-1.507599
Br	1.913302	0.0	0.0
H	-0.092681	0.938667	-2.046952
H	-0.413847	0.877474	0.535553
H	-1.544701	0.075587	-1.560143
N	-0.47367	-1.161984	0.809366
O	0.256083	-2.201181	0.985711
O	-1.85056	-1.197487	1.017089
C	-0.128567	-1.200674	-2.213413
N	0.050615	-2.211979	-2.788651
H	-1.694668	0.0	0.0
