15

C	0.0	0.0	0.0
C	-0.454927	-0.399827	-1.433632
F	1.386698	0.0	0.0
H	0.386377	-0.056528	-2.051011
H	-0.359003	-0.688526	0.768343
C	-0.40078	1.377815	0.330251
N	-0.607527	2.509632	0.561378
N	-1.659957	0.194533	-1.954136
H	-1.583972	1.205253	-1.969204
H	-2.47908	-0.020577	-1.376167
C	-0.554972	-1.917031	-1.510524
H	0.338377	-2.397493	-1.100317
H	-1.432598	-2.250422	-0.949471
H	-0.680931	-2.22297	-2.550103
Cl	-4.224249	0.0	0.0
