15

C	0.0	0.0	0.0
C	-0.456715	0.179667	-1.48031
F	1.385264	0.0	0.0
H	0.420188	0.6572	-1.937961
H	-0.359391	-0.930537	0.445063
C	-0.401526	1.142906	0.835956
N	-0.602515	2.098894	1.486227
N	-1.60507	1.011275	-1.74368
H	-2.447032	0.635848	-1.29481
H	-1.465702	1.940677	-1.364081
C	-0.670028	-1.195255	-2.099106
H	-1.580192	-1.637493	-1.684091
H	0.178032	-1.85779	-1.899435
H	-0.801525	-1.095925	-3.177973
Cl	-4.125227	0.0	0.0
