15

C	0.0	0.0	0.0
C	-0.456597	0.111113	-1.489553
F	1.385252	0.0	0.0
H	0.442694	0.507764	-1.978518
H	-0.357918	-0.908037	0.490035
C	-0.393872	1.184859	0.781629
N	-0.580588	2.172985	1.386296
N	-1.55797	0.989991	-1.802459
H	-1.368585	1.928346	-1.469215
H	-2.412013	0.673414	-1.330918
C	-0.756728	-1.283421	-2.02039
H	-0.903077	-1.238558	-3.100201
H	0.059929	-1.978366	-1.79764
H	-1.68067	-1.647142	-1.563065
Cl	-4.032953	0.0	0.0
