13

C	0.0	0.0	0.0
C	-0.482108	0.265633	-1.408079
F	1.35463	0.0	0.0
H	0.377696	0.461261	-2.062162
H	-0.389624	-0.910439	0.427157
H	-1.209949	1.059641	-1.432867
N	-0.381488	1.110574	0.927761
O	-0.415921	2.252592	0.474839
O	-0.463225	0.822802	2.117468
N	-1.147536	-0.926424	-1.995085
O	-0.782002	-2.040518	-1.627685
O	-1.931439	-0.720525	-2.915302
F	-2.347209	0.0	0.0
