13

C	0.0	0.0	0.0
C	-0.475979	0.31966	-1.398774
F	1.355155	0.0	0.0
H	0.387672	0.551686	-2.035511
H	-0.391367	-0.924894	0.391665
H	-1.212667	1.106512	-1.400158
N	-0.38119	1.077416	0.966731
O	-0.461847	0.749131	2.146021
O	-0.41082	2.234948	0.552955
N	-1.118532	-0.855934	-2.040464
O	-1.891243	-0.62303	-2.96371
O	-0.747418	-1.979736	-1.709879
F	-2.342731	0.0	0.0
