16

C	0.0	0.0	0.0
C	-0.483334	0.056084	-1.441862
Cl	1.795432	0.0	0.0
H	-1.572172	0.190438	-1.342188
H	-0.041211	0.934266	-1.925384
C	-0.441593	1.260104	0.731299
H	-0.054522	2.15986	0.243473
H	-1.538867	1.25403	0.719056
H	-0.080126	1.241032	1.764579
N	-0.529843	-1.209639	0.586864
H	-1.558268	-1.071683	0.508681
H	-0.30557	-1.216229	1.577493
N	-0.113228	-1.157442	-2.183809
H	-0.195126	-1.918527	-1.514134
H	-0.834545	-1.316727	-2.88132
H	-3.21437	0.0	0.0
