16

C	0.0	0.0	0.0
C	-0.382351	0.045214	-1.468838
Cl	1.93512	0.0	0.0
H	0.024903	0.953261	-1.937195
H	-1.481832	0.108959	-1.421587
C	-0.419626	1.256174	0.716194
H	-0.002302	2.144738	0.237552
H	-1.519053	1.268138	0.666575
H	-0.095709	1.213866	1.757389
N	-0.490992	-1.146765	0.672543
H	-1.510884	-0.950234	0.729926
H	-0.394847	-1.923576	0.020504
N	-0.006593	-1.191638	-2.153024
H	-0.58667	-1.310223	-2.972687
H	0.960976	-1.137745	-2.445221
H	-3.164774	0.0	0.0
