16

C	0.0	0.0	0.0
C	-0.513379	0.032659	-1.421737
Cl	1.888634	0.0	0.0
H	-1.609504	0.050645	-1.281918
H	-0.183729	0.962411	-1.90457
C	-0.462764	1.207471	0.77511
H	-1.562822	1.158862	0.752755
H	-0.10653	1.163681	1.808027
H	-0.10043	2.132026	0.319909
N	-0.425879	-1.191029	0.604059
H	-0.028325	-1.338636	1.518757
H	-0.283183	-1.974501	-0.017216
N	-0.136375	-1.180249	-2.146298
H	-0.80474	-1.345542	-2.889227
H	0.784277	-1.065982	-2.554273
H	-3.578663	0.0	0.0
