16

C	0.0	0.0	0.0
C	-0.439676	-0.085338	-1.469495
Cl	1.81176	0.0	0.0
H	-0.052715	-1.028191	-1.877574
H	-1.534931	-0.149812	-1.40888
C	-0.461506	1.285042	0.654059
H	-0.151424	1.288855	1.700847
H	-0.042261	2.160028	0.153389
H	-1.558202	1.284144	0.588937
N	-0.508055	-1.104862	0.770648
H	-0.349187	-1.960882	0.243222
H	-1.534864	-0.945401	0.757678
N	-0.070288	1.004563	-2.365477
H	0.904988	1.245069	-2.218257
H	-0.625585	1.817495	-2.126147
H	-3.207805	0.0	0.0
