16

C	0.0	0.0	0.0
C	-0.45821	-0.031353	-1.461962
Cl	1.808219	0.0	0.0
H	-1.552937	-0.099266	-1.402732
H	-0.067364	-0.952114	-1.903754
C	-0.440328	1.273244	0.704999
H	-0.115221	1.252059	1.750173
H	-1.537764	1.271647	0.658566
H	-0.028602	2.171562	0.237291
N	-0.510877	-1.197475	0.615609
H	-1.53898	-1.09487	0.501521
H	-0.330995	-1.14828	1.615333
N	-0.10025	1.106022	-2.300355
H	-0.652415	1.905344	-2.015982
H	0.876221	1.338189	-2.156364
H	-3.20271	0.0	0.0
