12

C	0.0	0.0	0.0
C	-0.472425	-0.437358	-1.380612
F	1.380669	0.0	0.0
H	-0.183759	0.340631	-2.092441
H	-0.296932	-0.747238	0.746522
H	-1.56633	-0.517712	-1.362261
N	-0.484293	1.321305	0.25728
H	-0.326079	1.538571	1.235014
H	-1.499874	1.285436	0.133818
C	0.130263	-1.703494	-1.782078
N	0.619045	-2.718426	-2.110089
Br	-3.734314	0.0	0.0
