12

C	0.0	0.0	0.0
C	-0.208933	-0.05642	-1.536693
F	1.389007	0.0	0.0
H	0.149991	0.917792	-1.884646
H	-0.321563	-0.921803	0.497287
H	0.525243	-0.793234	-1.874711
N	-0.492417	1.211127	0.564631
H	-1.502162	1.193763	0.38834
H	-0.385539	1.159475	1.572965
C	-1.437989	-0.370529	-2.268377
N	-2.19385	-0.652288	-3.123392
Br	-3.637522	0.0	0.0
