12

C	0.0	0.0	0.0
C	-0.453435	0.253343	-1.436402
F	1.410556	0.0	0.0
H	0.002851	1.187678	-1.778673
H	-0.327909	-0.988565	0.324446
H	-1.544264	0.362496	-1.405606
N	-0.464391	0.961162	0.946381
H	-1.469085	0.808362	1.045582
H	-0.344468	1.896888	0.570604
C	-0.096591	-0.836336	-2.340151
N	0.180997	-1.739169	-3.036146
Br	-3.704782	0.0	0.0
