12

C	0.0	0.0	0.0
C	-0.439891	-0.147895	-1.462161
F	1.386286	0.0	0.0
H	-0.060106	-1.086097	-1.877693
H	-0.345889	-0.877861	0.54938
H	-1.53641	-0.167396	-1.465054
N	-0.467722	1.163657	0.676074
H	-1.472891	1.045813	0.808035
H	-0.328637	1.979356	0.088586
C	0.045671	0.963742	-2.274355
N	0.414472	1.872541	-2.919459
Br	-3.702883	0.0	0.0
