13

C	0.0	0.0	0.0
C	-0.576385	0.221197	-1.392695
Br	1.94083	0.0	0.0
H	-1.658981	0.330438	-1.201074
H	-0.341197	-0.957164	0.389334
H	-0.318857	0.790131	0.676123
C	-0.366643	-0.967832	-2.327464
H	-0.817165	-0.768239	-3.301541
H	-0.865709	-1.838651	-1.897832
H	0.69362	-1.18819	-2.470339
C	-0.081087	1.45689	-1.995573
N	0.311819	2.43434	-2.515457
Cl	-3.534604	0.0	0.0
