17
Coordinates from ORCA-job run
  C   -0.72648182490712      0.12393560386890      0.62781308640333
  C   0.77092179029868      0.21906537896999      0.23360298800891
  Br  -0.87376775588283     -0.80884166446828      2.35790154094017
  H   1.29710865331363      0.61297740803296      1.11546732857828
  C   -1.22110082226192      1.48039829839968      0.85693974812923
  N   -1.57949864687725      2.59084970517000      1.00102136600944
  C   -1.58965454434914     -0.59125146618534     -0.40257664992761
  H   -2.64209337849459     -0.53578729507543     -0.12228455606057
  H   -1.30462868240175     -1.64120643184124     -0.47090908709407
  H   -1.44015598450713     -0.10574674298031     -1.36855883899662
  N   0.84153988505808      1.10880567700840     -0.92281652470302
  H   0.79114473862915      2.07911557365907     -0.63474713202313
  H   1.71949461552809      0.97465089493407     -1.40930267966971
  C   1.36703215620411     -1.12858564939080     -0.14021944943547
  H   2.45021232313427     -1.02741497582993     -0.24979587858447
  H   1.17802579196519     -1.88251150757682      0.62387820378954
  H   0.96190168555054     -1.47145280669491     -1.09441346536423
