17
Coordinates from ORCA-job run
  C   -0.74123645952091     -0.12111193129666      0.30181808652989
  C   0.71378430267923      0.20072045755370     -0.16287185728483
  Br  -1.06336611540663     -2.06529963028672      0.20899669182170
  H   0.78238927642969      1.29272055848127     -0.05800407927929
  C   -0.91143907367150      0.27554683585065      1.69591941333351
  N   -1.03592152201649      0.65621423436785      2.80161971138831
  C   -1.79473107693247      0.56767874923644     -0.55967904813831
  H   -2.79698323454466      0.36507501847641     -0.18131102308536
  H   -1.62373487561411      1.64859783926944     -0.54301172762642
  H   -1.73660733836590      0.20676684146125     -1.58670091365309
  N   0.99835501028924     -0.11262665219724     -1.54657973576540
  H   0.88522707507464     -1.10465719501202     -1.71937877253597
  H   0.40684481595586      0.40079909072713     -2.18608323645498
  C   1.77375700156814     -0.43343315317167      0.72525984746696
  H   1.61736869178001     -0.19984706733487      1.77982680958646
  H   1.77593292739424     -1.51936201928023      0.60876215078818
  H   2.75036059490160     -0.05678197684473      0.41941768290865
