17
Coordinates from ORCA-job run
  C   -0.81491115570132      0.23026290119909      0.46304185818321
  C   0.72225185371969      0.07430053551586      0.40205569568186
  Br  -1.30632370122769      0.93130547597102      2.23243782726328
  H   0.99345680661575     -0.52492235327835      1.27839424057981
  C   -1.22698265012707      1.22103175404475     -0.52887797166837
  N   -1.50943038141943      1.97981185987245     -1.38143681675536
  C   -1.57110683971724     -1.07892280074728      0.25461456078469
  H   -2.63741889426448     -0.93153752325538      0.42595394230040
  H   -1.20473288810235     -1.82881027282945      0.95948317785921
  H   -1.43154881601176     -1.44087784715139     -0.76572674008811
  N   1.33550940924504      1.38446909216599      0.55574635276335
  H   2.28827044763250      1.28967589228799      0.88277520374109
  H   1.35843750444500      1.86876604791481     -0.33522771454293
  C   1.15549836318096     -0.66191628190481     -0.86903356653457
  H   0.79950756692610     -0.13688055015387     -1.76124236353340
  H   0.80231556736353     -1.69408726790726     -0.90633587877350
  H   2.24720780744278     -0.68166866174417     -0.90662180726067
