17
Coordinates from ORCA-job run
  C   -0.80008237463968     -0.17685688818484      0.29189684581152
  C   0.60940493245514      0.23725113049246     -0.19015404241268
  Br  -0.99338884312491     -2.14017563886406      0.16636881743183
  H   0.59734855414728      1.33396256393795     -0.12239745819543
  C   -0.96478578702796      0.16941910484019      1.70088486920166
  N   -1.09415248441395      0.50474322636511      2.82032709313785
  C   -1.90374521271745      0.46187281788674     -0.54272337343972
  H   -1.76292595572693      0.18712661347756     -1.58597633878797
  H   -1.83397462562923      1.54970020092853     -0.44697410932246
  H   -2.88594516546368      0.14008055223551     -0.19528603826084
  N   0.73663877826689     -0.09503559564816     -1.60374820592499
  H   0.97531060080049     -1.07594239491083     -1.70167518108460
  H   1.49157979314480      0.44466700049100     -2.00930287315284
  C   1.73660846914489     -0.28742716156638      0.69491384016004
  H   1.61718547005764      0.01190371472081      1.73864669769775
  H   2.68870101113734      0.11033343418297      0.33482867577725
  H   1.78522283958932     -1.37762268038455      0.65037078136363
