17
Coordinates from ORCA-job run
  C   -0.75443141577498      0.24595575193945      0.40128110028666
  C   0.78727009152837      0.02404710764302      0.37249762971907
  Br  -1.21600221818401      1.12049866668660      2.11246789209742
  H   1.01017215825885     -0.57809877058534      1.26146882023578
  C   -1.12560896403087      1.17385480710394     -0.66235009113872
  N   -1.36773354328496      1.89143113655806     -1.56199665971682
  C   -1.56326118578115     -1.04346838893901      0.31099590179758
  H   -1.44394263689249     -1.49223724117670     -0.67678662184089
  H   -2.62303515545452     -0.84633841275266      0.47472469068659
  H   -1.21527022106199     -1.74593462689629      1.07179735698915
  N   1.58410222813116      1.23025136152218      0.44607939911937
  H   1.43245769131952      1.80746858486439     -0.37411165846926
  H   1.34870635209363      1.77419718646079      1.26671068504392
  C   1.19625634312368     -0.75163137928506     -0.87636754077400
  H   2.28409730490749     -0.82804463912743     -0.88244664215537
  H   0.88837621877948     -0.22457366338536     -1.78497307178361
  H   0.77884695232279     -1.75837748063058     -0.89899119009685
