17
Coordinates from ORCA-job run
  C   -0.76161243935345      0.23454294436971      0.39409537090927
  C   0.78312051609813      0.03389704005433      0.38080908874045
  Br  -1.25282764189679      1.09790700720473      2.10293534857163
  H   1.00561814006886     -0.56701720294000      1.27071158138434
  C   -1.13438387672730      1.16050147774509     -0.67067272511500
  N   -1.37695781050741      1.87761786752330     -1.57054983329669
  C   -1.55208382943696     -1.06529179368487      0.29165113586559
  H   -2.61602162250402     -0.88259869679533      0.44470803854629
  H   -1.41604914918204     -1.50904213872521     -0.69623773565050
  H   -1.20298633737124     -1.76560291288785      1.05389879314594
  N   1.56239055359579      1.25100090786521      0.46510576799067
  H   1.31025797445843      1.79009187993182      1.28395469634508
  H   1.41138385530553      1.82753358610441     -0.35567785805902
  C   1.21564660614727     -0.73333189810205     -0.86537500899123
  H   2.30445860631291     -0.79440968709354     -0.86038343704414
  H   0.90946273825765     -0.20898876540793     -1.77614813152349
  H   0.81258371673464     -1.74580961516182     -0.89382509181920
