17
Coordinates from ORCA-job run
  C   -0.74547729353515     -0.13303481397887      0.28650310252248
  C   0.71731577804187      0.20128438116855     -0.14392253677575
  Br  -1.10221549193014     -2.05537213235482      0.02445220746049
  H   0.80331838386247      1.27950438436542      0.05146642380716
  C   -0.91471897869947      0.14481081017569      1.70938181848775
  N   -1.03114986709912      0.42841634192031      2.84478925455922
  C   -1.78222836356693      0.64710656852447     -0.51532230460987
  H   -2.78989121038016      0.42948123788291     -0.16034625849600
  H   -1.59282955536788      1.71902767823877     -0.40217719172343
  H   -1.72513945608347      0.37744090335665     -1.56998163435792
  N   1.00439984234918     -0.00176427345453     -1.54744670388287
  H   0.88447063705639     -0.97559774018564     -1.79960503872135
  H   0.41897161946439      0.56541494916518     -2.14575180103727
  C   1.76170253413217     -0.52176917295926      0.69338690706246
  H   1.60966502188178     -0.36368478411286      1.76250480176960
  H   2.74667457916088     -0.14536852889479      0.41550654986937
  H   1.73913182071318     -1.59589580885717      0.49656240406592
