14

C	-0.490545	-0.007911	-1.458125
C	0.0	0.0	0.0
F	-0.133183	1.161456	-2.088446
H	1.095992	0.0	0.0
C	0.07824	-1.153998	-2.18712
N	0.474091	-2.080575	-2.789493
C	-1.96439	-0.116896	-1.488795
N	-3.137052	-0.175084	-1.485853
N	-0.439536	-1.238067	0.61993
H	-1.239735	-1.10526	1.222028
H	0.328749	-1.628292	1.151418
C	-0.48821	1.211376	0.663544
N	-0.919764	2.141488	1.237531
Br	3.35674	0.0	0.0
