14

C	-0.486153	-0.045117	-1.458941
C	0.0	0.0	0.0
F	-0.131144	1.109865	-2.118377
H	1.094738	0.0	0.0
C	0.090532	-1.206507	-2.157832
N	0.503032	-2.124834	-2.762112
C	-1.960227	-0.16153	-1.491233
N	-3.133008	-0.2283	-1.483549
N	-0.437219	-1.225078	0.647395
H	0.326006	-1.59285	1.201056
H	-1.250078	-1.084913	1.231801
C	-0.495083	1.225253	0.632415
N	-0.956874	2.1649	1.166405
Br	3.353492	0.0	0.0
