14

C	-0.400813	-0.012887	-1.497953
C	0.0	0.0	0.0
F	0.031205	1.132699	-2.119609
H	1.096111	0.0	0.0
C	0.183146	-1.191451	-2.16375
N	0.609979	-2.131189	-2.723804
C	-1.871914	-0.092892	-1.630827
N	-3.043291	-0.171312	-1.680968
N	-0.423667	-1.171622	0.725731
H	-1.36762	-1.468264	0.518298
H	0.240391	-1.921549	0.591123
C	-0.529375	1.225608	0.601163
N	-0.985438	2.201821	1.068927
Br	3.352288	0.0	0.0
