14

C	-0.493151	-0.066034	-1.446347
C	0.0	0.0	0.0
F	-1.884202	-0.105545	-1.444293
H	1.095204	0.0	0.0
C	-0.088879	1.110607	-2.233285
N	0.187992	2.042685	-2.890261
C	-0.012555	-1.296347	-2.095752
N	0.350361	-2.271281	-2.639519
N	-0.424439	-1.204103	0.687477
H	0.309246	-1.490765	1.322535
H	-1.289794	-1.069601	1.191358
C	-0.485526	1.241026	0.616301
N	-0.911515	2.200713	1.143749
Br	3.34046	0.0	0.0
