14

C	-0.492387	0.107039	-1.444693
C	0.0	0.0	0.0
F	-1.886046	0.077224	-1.450779
H	1.103045	0.0	0.0
C	-0.076969	1.365712	-2.087284
N	0.207218	2.37199	-2.622319
C	-0.025288	-1.042053	-2.23667
N	0.281355	-1.94546	-2.920579
N	-0.429037	-1.278148	0.536364
H	0.300185	-1.640135	1.137095
H	-1.297014	-1.207089	1.047618
C	-0.487224	1.158983	0.758263
N	-0.91831	2.040654	1.405345
Br	3.342681	0.0	0.0
