14

C	-0.424133	-0.014347	-1.480525
C	0.0	0.0	0.0
F	-1.817342	-0.10686	-1.550359
H	1.095986	0.0	0.0
C	-0.023091	1.200662	-2.203036
N	0.260433	2.168558	-2.805159
C	0.116103	-1.209395	-2.148845
N	0.510388	-2.168747	-2.699461
N	-0.429996	-1.1808	0.71614
H	0.282452	-1.895354	0.638886
H	-1.32195	-1.526991	0.389246
C	-0.530611	1.217581	0.620259
N	-0.967732	2.187017	1.119081
Br	3.340007	0.0	0.0
