14

C	-0.461083	-0.004264	-1.46732
C	0.0	0.0	0.0
F	0.057078	-1.133688	-2.063499
H	1.108369	0.0	0.0
C	-1.932871	-0.075573	-1.556543
N	-3.104161	-0.10355	-1.642047
C	0.006619	1.183795	-2.203361
N	0.323173	2.137413	-2.811921
N	-0.512207	-1.22709	0.615912
H	0.245088	-1.903949	0.585152
H	-0.720657	-1.056965	1.593553
C	-0.508379	1.19403	0.663136
N	-0.941015	2.13504	1.218614
Br	3.366247	0.0	0.0
