14

C	-0.414889	0.264057	-1.462153
C	0.0	0.0	0.0
F	-1.808668	0.253882	-1.549284
H	1.105138	0.0	0.0
C	0.06144	1.561168	-1.961507
N	0.420466	2.599796	-2.378157
C	0.070328	-0.824272	-2.327168
N	0.375811	-1.713924	-3.030651
N	-0.446811	-1.281913	0.492383
H	-1.356358	-1.538068	0.130793
H	0.241589	-1.9882	0.266984
C	-0.525826	1.095819	0.81936
N	-0.988716	1.972683	1.448459
Br	3.344503	0.0	0.0
