16

C	0.0	0.0	0.0
C	-0.439732	0.068777	-1.457458
Cl	1.865291	0.0	0.0
H	-0.021477	0.972115	-1.902054
H	-0.241063	0.958864	0.45882
N	-0.577932	-1.038849	0.726965
H	-0.395698	-1.950061	0.334968
H	-0.397014	-0.997025	1.717195
C	-1.948452	-0.002385	-1.609894
H	-2.449297	0.760487	-1.013228
H	-2.344827	-0.947278	-1.246523
H	-2.225683	0.137441	-2.657105
N	0.179634	-1.037946	-2.256779
O	0.696169	-0.739416	-3.330955
O	0.094196	-2.18302	-1.812724
Br	-5.144189	0.0	0.0
