16

C	0.0	0.0	0.0
C	-0.500093	0.003438	-1.439854
Cl	1.822889	0.0	0.0
H	-1.587038	0.151677	-1.354405
H	-0.258595	0.959542	0.452878
N	-0.501153	-1.159705	0.677717
H	-0.276213	-1.07863	1.663386
H	-1.523432	-1.101829	0.598607
C	-0.168475	-1.239489	-2.228537
H	-0.574629	-2.096051	-1.691576
H	-0.619716	-1.189538	-3.219683
H	0.90845	-1.364597	-2.339023
N	0.015249	1.24288	-2.107952
O	-0.224473	2.312057	-1.549644
O	0.635571	1.133801	-3.165987
Br	-3.713312	0.0	0.0
