11

C	-0.572217	-0.015796	-1.384745
C	0.0	0.0	0.0
F	-0.208207	1.076063	-2.110975
H	1.091261	0.0	0.0
H	-1.662893	-0.088915	-1.415073
H	-0.36407	-0.872323	0.547168
H	-0.353652	0.905512	0.502379
N	-0.12833	-1.250372	-2.143203
O	-0.589104	-2.305358	-1.70985
O	0.601983	-1.123271	-3.112992
H	3.043251	0.0	0.0
