11

C	-0.459987	0.00961	-1.423399
C	0.0	0.0	0.0
F	-0.272819	-1.196522	-2.028603
H	1.090287	0.0	0.0
H	0.021543	0.784881	-2.020385
H	-0.344359	0.906621	0.503506
H	-0.395975	-0.884729	0.503619
N	-1.944194	0.312673	-1.508033
O	-2.251885	1.501431	-1.435965
O	-2.730946	-0.622866	-1.595223
H	2.972144	0.0	0.0
