14
Coordinates from ORCA-job run
  C   -0.24208034754283      0.16734937511929      0.05369007995316
  C   1.06728684802367      0.45664150492762      0.02562474306158
  H   1.47554379329550      1.43473273273357      0.24585106392558
  C   -1.20765639394839      1.28512716761529      0.33036936800121
  H   -0.71044811964906      2.24917000860948      0.44845938525050
  H   -1.77899939022907      1.07328022573215      1.23933151151478
  H   -1.92935789147332      1.36377717920522     -0.48872195915902
  C   -0.85259091004849     -1.18317525093206     -0.19230591048954
  H   -1.85742059556432     -1.21790366454580      0.23334681560062
  H   -0.92941106666369     -1.37109565595503     -1.26691387717653
  H   -0.25464952218744     -1.99264416374130      0.22277811614021
  N   2.12289665367449     -0.51205231060395     -0.22128523549990
  O   3.24242820495503     -0.19203050459718      0.18139880681823
  O   1.85645873735792     -1.55917664356728     -0.81162290794087
