14
Coordinates from ORCA-job run
  C   -0.24679240106869      0.17070849261820     -0.00264395003449
  C   1.06022616931523      0.47031390763469     -0.03590367642954
  H   1.44798724614524      1.47776103448822     -0.11657534159598
  C   -1.23235595071880      1.30497749816331      0.00220195833873
  H   -0.74704748014247      2.28220585406824      0.00855111140586
  H   -1.88176011806069      1.24326062319828     -0.87645164135068
  H   -1.87892129789598      1.23133907293115      0.88224903226699
  C   -0.83299301837355     -1.21164198097268      0.05652458454515
  H   -0.78480492619357     -1.59860395023321      1.07801213804935
  H   -0.29044410696995     -1.91937786171750     -0.56826919320103
  H   -1.88004445982340     -1.18374044559799     -0.25127529116506
  N   2.13353285664194     -0.51015304961026     -0.05358469542739
  O   3.21863487118718     -0.10252918920450     -0.47125482186864
  O   1.91478261595751     -1.65352000576595      0.34741978646672
