14
Coordinates from ORCA-job run
  C   -0.24943260324019     -0.16270950962938     -0.03808906334484
  C   0.97388295628685     -0.23942156733459     -0.58288467743661
  H   1.27425180723102     -1.00207827589208     -1.28993906477896
  C   -1.28787961257546     -1.14978140338524     -0.49127697906677
  H   -2.16209173995197     -0.61786770705925     -0.87953133827577
  H   -1.63086130864245     -1.75107582510549      0.35628698021737
  H   -0.91739569038159     -1.82142828704009     -1.26727525897846
  C   -0.69808653125478      0.84419553363692      0.98305135440303
  H   -1.60266532411413      0.48933213769015      1.48068518409031
  H   0.06897745563997      1.04905782826898      1.72823039815230
  H   -0.92340215852609      1.79839787086717      0.49912131094924
  N   2.08633343568797      0.63373717169498     -0.24581274866851
  O   3.20514131200059      0.20231768064636     -0.52882643829341
  O   1.86122800184026      1.72632435264157      0.27526034103109
