14
Coordinates from ORCA-job run
  C   -0.22664839754723      0.17680868678424      0.08523556654916
  C   1.03812991058209      0.43906793127186     -0.27638841956105
  H   1.47201689512830      1.43078304060732     -0.28250154826766
  C   -0.85831244670156     -1.18463667054711      0.15985424260606
  H   -0.17945581875218     -1.93505455740674      0.56196943547078
  H   -1.75828011269443     -1.14240535704031      0.77637821594162
  H   -1.14118517983898     -1.52527371848028     -0.83983522485576
  C   -1.11911707815495      1.33643467955390      0.42713777773918
  H   -0.62019156015597      2.29942189405078      0.30781280717927
  H   -2.00717711225660      1.32232537730346     -0.21250349968029
  H   -1.46938345705565      1.25026088714906      1.46031054232687
  N   2.02392303465490     -0.56969017338359     -0.62869577362677
  O   3.20038245099281     -0.21098815974949     -0.55588060003084
  O   1.64629887179947     -1.68705386011310     -0.98189352179058
