19

C	-0.356987	0.069087	-1.469001
C	0.0	0.0	0.0
F	-1.640744	0.510635	-1.697543
H	1.089288	0.0	0.0
C	0.656468	0.947846	-2.179333
H	1.64533	0.684299	-1.781646
H	0.440098	1.992792	-1.95029
H	0.584097	0.806824	-3.260552
N	-0.252851	-1.292961	-2.144339
O	0.748061	-1.945504	-1.880965
O	-1.117634	-1.588868	-2.961304
N	-0.577281	-1.16787	0.698418
O	-1.347265	-1.918092	0.090647
O	-0.273284	-1.311203	1.881411
C	-0.42266	1.256768	0.746731
H	-0.060962	1.179288	1.771469
H	-1.507149	1.402248	0.743428
H	0.060715	2.122578	0.292841
F	2.587004	0.0	0.0
