19

C	-0.287288	-0.000546	-1.500514
C	0.0	0.0	0.0
F	-0.375857	1.324646	-1.91109
H	1.095694	0.0	0.0
C	0.7792	-0.676845	-2.314873
H	1.731025	-0.366152	-1.867285
H	0.691267	-1.757615	-2.22135
H	0.684464	-0.385881	-3.361265
N	-1.690677	-0.525856	-1.832757
O	-2.587024	-0.247779	-1.039338
O	-1.853169	-1.11047	-2.899515
N	-0.415404	-1.278563	0.598147
O	-0.52174	-2.262933	-0.142919
O	-0.583461	-1.325338	1.816863
C	-0.504421	1.183798	0.79209
H	-0.111492	2.092461	0.337462
H	-0.108193	1.115275	1.804318
H	-1.594649	1.23124	0.828685
F	2.582585	0.0	0.0
