19

C	-0.466173	-0.006823	-1.451451
C	0.0	0.0	0.0
F	0.156933	-1.002823	-2.140533
H	1.091217	0.0	0.0
C	-1.95356	-0.135356	-1.700879
H	-2.284589	-1.109022	-1.337701
H	-2.146937	-0.077018	-2.775046
H	-2.507401	0.648728	-1.190297
N	-0.006097	1.299045	-2.104211
O	-0.656923	2.304267	-1.820457
O	0.934624	1.253905	-2.881228
N	-0.508899	-1.275531	0.57692
O	-1.514968	-1.237385	1.301271
O	0.081085	-2.314212	0.287404
C	-0.465806	1.170606	0.838327
H	-0.194746	0.962997	1.874448
H	0.087441	2.055864	0.529384
H	-1.537659	1.37257	0.79627
F	2.532991	0.0	0.0
