16

C	0.0	0.0	0.0
C	-0.523942	-0.015336	-1.426256
F	1.377179	0.0	0.0
H	-0.439448	1.016848	-1.782553
H	-1.600537	-0.230124	-1.341986
C	-0.561066	1.132024	0.800927
H	-0.174327	1.118867	1.819028
H	-0.293964	2.070723	0.310688
H	-1.658416	0.998002	0.78275
N	-0.310122	-1.323378	0.718831
O	-0.334674	-1.305947	1.946273
O	-0.405722	-2.343131	0.036788
N	0.151762	-0.887925	-2.381619
H	1.15253	-0.777681	-2.263875
H	-0.062534	-1.842306	-2.123815
H	-3.310299	0.0	0.0
