16

C	0.0	0.0	0.0
C	-0.305972	0.605519	-1.40305
F	1.36632	0.0	0.0
H	0.535406	1.281393	-1.592764
H	-0.229472	-0.219089	-2.116545
C	-0.493698	0.833782	1.152902
H	-0.168227	1.872467	1.050856
H	-1.590893	0.784694	1.15925
H	-0.103843	0.401223	2.076119
N	-0.625475	-1.316064	0.134528
O	-1.7893	-1.320471	-0.474853
O	-0.339515	-1.998697	1.156289
N	-1.536695	1.330545	-1.646005
H	-2.298684	0.755393	-1.274266
H	-1.534023	2.166113	-1.07005
H	-3.050731	0.0	0.0
