16

C	0.0	0.0	0.0
C	-0.306343	0.131603	-1.522338
F	1.366303	0.0	0.0
H	0.533497	0.715664	-1.915327
H	-0.227043	-0.875457	-1.93998
C	-0.49452	1.154244	0.831216
H	-0.103848	1.035329	1.843591
H	-0.170457	2.108222	0.406642
H	-1.591761	1.108339	0.853128
N	-0.62343	-1.207187	0.543548
O	-1.788525	-1.404593	-0.030176
O	-0.332954	-1.532638	1.727639
N	-1.538532	0.739875	-1.981669
H	-1.539027	1.713591	-1.696424
H	-2.299758	0.3085	-1.448746
H	-3.053312	0.0	0.0
