15
Coordinates from ORCA-job run
  C   1.00025779269683     -0.59985154944698      0.06815260880452
  C   -0.38720146268378     -0.30613603595104     -0.50261929647346
  Cl  0.97952038619467     -2.29578265850379      0.64729029516618
  H   -0.67109902952911     -1.11588161003683     -1.17677909828677
  H   1.72668562932612     -0.59462924448589     -0.75292208779426
  N   1.32624439175795      0.25680236393755      1.17987087023430
  H   1.44527016012773      1.19694949704505      0.81921035402588
  H   2.20152510884244     -0.04078013937886      1.59373767291962
  N   -0.33033353661688      0.90653262598026     -1.39096881399048
  O   0.55417014779087      1.74016266038553     -1.18665284127894
  O   -1.20508366386218      0.99837435667282     -2.24544399842217
  C   -1.46381392856668     -0.07265595338973      0.54245116724068
  H   -2.43002533094938      0.05340474554643      0.05225937883572
  H   -1.51180791898652     -0.93276510641092      1.21011738841318
  H   -1.23330874554208      0.80725604803639      1.14129640060599
