15

C	-0.432412	-0.072732	-1.529645
C	-0.036112	-0.145521	-0.052902
Br	-2.380883	0.158868	-1.718891
H	1.049307	-0.336611	-0.054124
H	-0.230747	-1.035318	-2.006881
C	0.290616	1.061458	-2.223641
H	0.075297	1.065722	-3.294243
H	-0.015375	2.008997	-1.782012
H	1.365836	0.950789	-2.053333
C	-0.688322	-1.276579	0.6164
N	-1.216317	-2.167999	1.170955
N	-0.246532	1.123234	0.629623
H	-0.885226	1.027872	1.406046
H	0.667759	1.425428	0.961743
Cl	3.048867	0.951391	0.446804
