15

C	-0.492665	-0.179472	-1.594774
C	0.166171	0.014003	-0.224607
Br	-0.083328	1.371906	-2.734865
H	1.255831	0.078697	-0.328597
H	-1.57661	-0.142946	-1.465692
C	-0.046211	-1.435726	-2.319534
H	1.038709	-1.435792	-2.444541
H	-0.510091	-1.499763	-3.305275
H	-0.33182	-2.316526	-1.739737
C	-0.132899	-1.203769	0.548699
N	-0.414378	-2.200679	1.101935
N	-0.387757	1.159866	0.491324
H	-0.23823	1.965382	-0.109664
H	0.270312	1.310319	1.261455
Cl	2.619008	1.214992	1.711302
