15

C	-0.525873	-0.020515	-1.512093
C	0.167792	-0.050009	-0.140653
Br	0.01004	1.601699	-2.461936
H	1.258025	-0.029561	-0.268709
H	-1.603142	0.090781	-1.361526
C	-0.209059	-1.227085	-2.378729
H	0.870446	-1.311088	-2.524345
H	-0.568274	-2.140442	-1.897676
H	-0.683229	-1.137244	-3.357511
C	-0.181905	-1.339473	0.490232
N	-0.554234	-2.338961	0.985049
N	-0.18624	1.086316	0.689355
H	0.649238	1.293035	1.243693
H	-0.936869	0.840528	1.322941
Cl	2.851449	0.794325	1.71372
