14

C	0.0	0.0	0.0
C	-0.50136	0.256358	-1.420368
F	1.387548	0.0	0.0
H	-1.60221	0.256816	-1.383132
H	-0.164497	-0.549884	-2.078316
C	-0.467622	1.045642	0.989052
H	-0.07922	0.802331	1.980009
H	-0.071933	2.016335	0.680627
H	-1.559219	1.064401	1.005358
C	-0.393567	-1.360995	0.419137
N	-0.567728	-2.46424	0.780714
C	0.011723	1.525519	-1.927667
N	0.439195	2.539931	-2.335274
Br	-3.781784	0.0	0.0
