14

C	0.0	0.0	0.0
C	-0.520131	0.248012	-1.415865
F	1.387834	0.0	0.0
H	-0.19922	-0.563564	-2.07454
H	-1.620957	0.247144	-1.361573
C	-0.481573	1.040063	0.987432
H	-0.115298	0.786802	1.983557
H	-1.575084	1.061883	0.987021
H	-0.080815	2.012991	0.694039
C	-0.390278	-1.362707	0.418546
N	-0.568022	-2.466866	0.775925
C	-0.024156	1.514382	-1.942613
N	0.39154	2.530923	-2.358646
Br	-3.809568	0.0	0.0
