14

C	0.0	0.0	0.0
C	-0.522141	0.151363	-1.427914
F	1.387732	0.0	0.0
H	-0.196497	-0.699258	-2.033392
H	-1.623034	0.148985	-1.366765
C	-0.480429	1.103447	0.917501
H	-0.118627	2.061508	0.536265
H	-0.076743	0.942015	1.91898
H	-1.57248	1.093215	0.944491
C	-0.389183	-1.331201	0.512407
N	-0.569736	-2.407151	0.94608
C	-0.035392	1.383888	-2.039656
N	0.362068	2.368611	-2.539879
Br	-3.812186	0.0	0.0
