14

C	0.0	0.0	0.0
C	-0.518678	-0.29897	-1.403435
F	1.387414	0.0	0.0
H	-1.616021	-0.372111	-1.335002
H	-0.266494	0.545986	-2.051484
C	-0.487615	1.344025	0.495954
H	-0.134273	2.119894	-0.188478
H	-1.579848	1.336861	0.528382
H	-0.079573	1.533952	1.490436
C	-0.381554	-1.086633	0.928452
N	-0.601936	-1.983038	1.653616
C	0.063459	-1.514844	-1.963184
N	0.539186	-2.481286	-2.428896
Br	-3.815435	0.0	0.0
