14

C	0.0	0.0	0.0
C	-0.529296	-0.317682	-1.393862
F	1.387883	0.0	0.0
H	-1.625403	-0.397075	-1.30799
H	-0.294937	0.522449	-2.054982
C	-0.491821	1.349146	0.477868
H	-1.585124	1.342175	0.491474
H	-0.125751	2.119205	-0.206587
H	-0.104362	1.546946	1.479257
C	-0.375318	-1.07704	0.942666
N	-0.586844	-1.964966	1.680659
C	0.052941	-1.534217	-1.95147
N	0.531137	-2.498081	-2.420714
Br	-3.826543	0.0	0.0
