14

C	0.0	0.0	0.0
C	-0.524754	0.122334	-1.427661
F	1.385955	0.0	0.0
H	-1.621209	0.021316	-1.37832
H	-0.28821	1.123633	-1.800289
C	-0.494109	1.138645	0.865008
H	-0.108601	1.020652	1.879486
H	-0.126328	2.080787	0.449561
H	-1.587128	1.126759	0.873125
C	-0.378951	-1.309456	0.575808
N	-0.562806	-2.362731	1.060815
C	0.061293	-0.868381	-2.324966
N	0.539704	-1.648901	-3.059664
Br	-3.822039	0.0	0.0
