14

C	0.0	0.0	0.0
C	-0.526492	-0.303554	-1.398352
F	1.387802	0.0	0.0
H	-1.622857	-0.382609	-1.317685
H	-0.287645	0.541826	-2.051119
C	-0.490066	1.344626	0.491462
H	-0.127094	2.119699	-0.18903
H	-1.582511	1.336979	0.5089
H	-0.096117	1.534675	1.491515
C	-0.371791	-1.080345	0.941497
N	-0.521893	-1.930901	1.736207
C	0.054619	-1.516296	-1.965677
N	0.529144	-2.47537	-2.447792
Br	-3.809683	0.0	0.0
