14

C	0.0	0.0	0.0
C	-0.534039	-0.232878	-1.411455
F	1.390534	0.0	0.0
H	-0.211495	-1.212441	-1.773659
H	-1.634271	-0.226136	-1.333094
C	-0.477023	1.303749	0.600503
H	-0.059363	1.41495	1.602408
H	-0.132452	2.129868	-0.026246
H	-1.568534	1.298434	0.645303
C	-0.381501	-1.155766	0.843891
N	-0.54439	-2.100859	1.522022
C	-0.087732	0.801048	-2.336322
N	0.247768	1.641398	-3.085004
Br	-3.825113	0.0	0.0
