14

C	0.0	0.0	0.0
C	-0.232465	0.044934	-1.532223
F	1.389766	0.0	0.0
H	0.110425	-0.914994	-1.93461
H	0.498374	0.792585	-1.863925
C	-0.513919	1.200092	0.752869
H	-1.607809	1.173883	0.734799
H	-0.151979	1.164923	1.783409
H	-0.145871	2.109102	0.269856
C	-0.427103	-1.269987	0.610119
N	-0.647548	-2.300347	1.127684
C	-1.482918	0.407318	-2.195205
N	-2.247518	0.771432	-3.010278
Br	-3.784619	0.0	0.0
