15
Coordinates from ORCA-job run
  C   -0.66064346708365      0.10720911755956     -0.32296051113219
  C   0.78833796324328     -0.40851215953323     -0.28947133076871
  Cl  -1.24409179439496      0.23946029441118     -1.98709719651956
  H   0.87640344374818     -1.28974426028490     -0.92283231892812
  N   -0.80625778717317      1.31986644490895      0.34443009714578
  H   -1.76961807449150      1.62734871110857      0.36787655128476
  H   -0.40711766584737      1.31032331241138      1.27542047765360
  N   -1.52111367304461     -1.06363860184723      0.29052440062761
  O   -1.17510236647725     -2.20683658381643      0.02322924989434
  O   -2.48107921274483     -0.71581368686801      0.96206395467059
  C   1.18224653095846     -0.69970175452217      1.08235543203070
  N   1.45629820791991     -0.92672519172455      2.20205066256909
  N   1.70560895715839      0.65025427832037     -0.86549039403526
  O   2.11482103201433      1.50959991442854     -0.09595403210977
  O   1.94030790621477      0.54691016544796     -2.06314504238287
