15

C	-0.373401	-0.011958	-1.462285
C	0.0	0.0	0.0
Br	0.136223	-1.858589	-2.143688
H	1.087999	0.0	0.0
H	-0.437226	-0.825278	0.555411
N	-1.880739	0.000267	-1.722904
O	-2.273208	0.694967	-2.654515
O	-2.570173	-0.715812	-1.013769
N	0.250936	1.046598	-2.105554
H	1.246209	1.058682	-1.882149
H	0.082507	1.078026	-3.10071
N	-0.468509	1.275168	0.628286
O	-1.663535	1.549592	0.511471
O	0.353829	1.949182	1.237079
Br	3.457921	0.0	0.0
