15

C	-0.625177	0.149269	-1.37749
C	0.0	0.0	0.0
Br	0.34208	1.387608	-2.520392
H	1.101143	0.0	0.0
H	-0.368766	-0.917532	0.45913
N	-0.469054	-1.224814	-2.102774
O	0.413177	-1.9825	-1.723916
O	-1.266464	-1.435801	-3.013775
N	-1.979069	0.539277	-1.307979
H	-2.483922	-0.019588	-0.628595
H	-2.416085	0.483757	-2.21817
N	-0.495222	1.109028	0.855238
O	-1.399099	0.833014	1.652859
O	0.004516	2.217862	0.706222
Br	3.470644	0.0	0.0
