15

C	-0.555224	-0.040695	-1.413012
C	0.0	0.0	0.0
Br	0.113699	1.575772	-2.370951
H	1.083981	0.0	0.0
H	-0.386758	-0.857094	0.553778
N	0.044828	-1.242568	-2.149604
O	0.639987	-2.069115	-1.473491
O	-0.219675	-1.32512	-3.342496
N	-1.944434	-0.237551	-1.499466
H	-2.424102	0.393749	-0.87024
H	-2.266625	-0.13666	-2.453557
N	-0.493931	1.214425	0.716338
O	0.327494	1.955165	1.236375
O	-1.720847	1.37585	0.777996
Br	3.512693	0.0	0.0
