15

C	-0.485817	-0.010598	-1.426997
C	0.0	0.0	0.0
Br	-2.60265	-0.162594	-1.342981
H	1.092455	0.0	0.0
H	-0.398922	0.847674	0.544296
N	-0.379599	1.382062	-2.052218
O	-0.345953	2.3452	-1.300396
O	-0.358514	1.414235	-3.276038
N	0.116379	-0.910718	-2.242477
H	0.307259	-1.801311	-1.807836
H	-0.188385	-0.920941	-3.202369
N	-0.42055	-1.223384	0.724452
O	-0.248736	-2.310274	0.169225
O	-0.86647	-1.080194	1.858771
Br	3.397794	0.0	0.0
