15

C	-0.623009	0.003914	-1.38766
C	0.0	0.0	0.0
Br	0.342359	1.126075	-2.649859
H	1.085178	0.0	0.0
H	-0.368788	-0.867279	0.549718
N	-0.447004	-1.437292	-1.967581
O	0.497663	-2.105354	-1.569632
O	-1.285012	-1.781695	-2.799333
N	-1.978445	0.386739	-1.362765
H	-2.416744	0.21716	-2.258809
H	-2.478805	-0.085586	-0.618006
N	-0.503392	1.187619	0.735529
O	0.037837	2.267217	0.523466
O	-1.455481	1.001605	1.503705
Br	3.497239	0.0	0.0
