15

C	-0.472456	-0.000241	-1.432235
C	0.0	0.0	0.0
Br	0.2204	-1.732199	-2.23809
H	1.088079	0.0	0.0
H	-0.400679	-0.854931	0.535202
N	-1.989491	-0.211837	-1.554853
O	-2.5379	-0.880948	-0.689875
O	-2.530174	0.278614	-2.54114
N	-0.122886	1.154975	-2.105422
H	-0.357667	1.138206	-3.0867
H	0.843111	1.409015	-1.927728
N	-0.486236	1.223656	0.698553
O	-1.490096	1.107892	1.407081
O	0.143335	2.264807	0.526244
Br	3.449068	0.0	0.0
