15

C	-0.488173	-0.005128	-1.426143
C	0.0	0.0	0.0
Br	-2.604475	-0.118224	-1.34103
H	1.092473	0.0	0.0
H	-0.393474	0.850005	0.544961
N	-0.349466	1.384518	-2.051905
O	-0.329649	1.416466	-3.275639
O	-0.290608	2.344997	-1.299951
N	0.0973	-0.916949	-2.243816
H	0.249111	-1.815653	-1.811135
H	-0.216497	-0.917968	-3.201728
N	-0.426386	-1.219943	0.725543
O	-0.857078	-1.073404	1.864869
O	-0.275775	-2.308084	0.166966
Br	3.400518	0.0	0.0
