20

C	0.0	0.0	0.0
C	-0.498639	-0.159203	-1.444145
Br	1.98384	0.0	0.0
H	-1.58795	-0.222326	-1.313585
C	-0.417677	1.33134	0.61336
H	-1.51047	1.379789	0.558033
H	0.026023	2.187252	0.102662
H	-0.111215	1.36432	1.66296
N	-0.452042	-1.141335	0.761949
H	-0.250208	-0.98357	1.744417
H	-1.471908	-1.150573	0.663188
C	-0.014464	-1.449106	-2.101685
H	-0.627644	-1.65924	-2.983663
H	-0.094512	-2.289035	-1.411517
H	1.027589	-1.359911	-2.422463
C	-0.216792	1.04503	-2.336352
H	-0.752334	1.934049	-1.999327
H	-0.558068	0.826395	-3.352661
H	0.853994	1.26807	-2.379703
Br	-3.912256	0.0	0.0
