20

C	0.0	0.0	0.0
C	-0.50158	0.082088	-1.444273
Br	2.062479	0.0	0.0
H	-1.587665	0.182176	-1.290433
C	-0.429711	1.184065	0.843109
H	-1.525653	1.199689	0.82337
H	-0.085167	1.05831	1.873365
H	-0.024153	2.121379	0.465905
N	-0.44013	-1.185054	0.608337
H	-0.259582	-1.208821	1.601295
H	-0.101099	-2.023619	0.162843
C	-0.26635	-1.202241	-2.235034
H	-0.851049	-2.028834	-1.82689
H	0.795102	-1.471888	-2.253508
H	-0.597831	-1.060548	-3.267373
C	0.008439	1.291073	-2.220784
H	-0.162088	2.228105	-1.68804
H	1.07683	1.205181	-2.436694
H	-0.531165	1.356297	-3.170484
Br	-4.088296	0.0	0.0
