16
Coordinates from ORCA-job run
  C   -0.80719729894818     -0.21631912445109     -0.02532036813715
  C   0.71203000529100     -0.46773820856426      0.01666647443330
  F   -1.40668055270674     -1.23661526039430      0.74564369405606
  H   0.89638561304173     -1.54278067399976      0.07456170198279
  N   -1.11081943584985      1.06317176523110      0.52140843595065
  H   -1.17911192249817      1.02419996547171      1.53061329290646
  H   -1.96719706282263      1.41665313509736      0.11826110020871
  N   -1.28750763664452     -0.29495678926373     -1.36744072073505
  H   -0.63169612894413     -0.76680864605408     -1.97317004286503
  H   -2.18014943938990     -0.77097389760629     -1.36871023164191
  N   1.24470960415656      0.07293121612069      1.35665457905428
  O   0.71674258420211     -0.36057141559473      2.37590805636925
  O   2.16743929782482      0.87921442133941      1.31308267745526
  N   1.34710570537750      0.10889923594995     -1.10746913128716
  H   2.35009760477627     -0.00748339699803     -1.06209582395084
  H   1.13584906313413      1.09917767371607     -1.14959369379962
