16
Coordinates from ORCA-job run
  C   -0.79775140083405     -0.22805741586079     -0.03858549807957
  C   0.72579949245653     -0.46053762938601     -0.00848951865959
  F   -1.37755010655129     -1.31293578791803      0.66000345864088
  H   0.92462026422589     -1.53433017122852      0.01111094532222
  N   -1.12979895936733      1.00140734243315      0.59941679632098
  H   -1.98268249129240      1.37825756743203      0.21056029075881
  H   -1.21488691056262      0.88143942630721      1.60064017326010
  N   -1.26746738810763     -0.21298195540183     -1.38313765941153
  H   -0.65437555871981     -0.72427761124180     -2.00140718336481
  H   -2.20154637209406     -0.60192115885373     -1.40975083516807
  N   1.24738424569253      0.03393724296696      1.35348008015265
  O   2.15569745516027      0.85720739295662      1.34564548263809
  O   0.72580580163629     -0.45176344660814      2.35228977031291
  N   1.35785759504579      0.16254127182545     -1.10879336013321
  H   1.12625192484261      1.14876560108425     -1.12676949345201
  H   2.36264240846930      0.06524933149316     -1.05621344913787
