16
Coordinates from ORCA-job run
  C   -0.61612691436329     -0.01250031069512     -0.42767887851494
  C   0.87575298268741     -0.28811945099372     -0.14937692977336
  F   -0.69874820321414      0.00905630027292     -1.83490931539698
  H   1.16516758861391     -1.21135174763177     -0.65229660825566
  N   -1.41931156982857     -1.03066561683665      0.13680479008199
  H   -2.39892102490979     -0.88545164931637     -0.07075322465326
  H   -1.13622521796587     -1.95694947639939     -0.15876271809113
  N   -0.97869575194855      1.31244712963393     -0.02062868079954
  H   -1.79180252504063      1.62239124607475     -0.53690855447340
  H   -1.15759590733647      1.33719803682385      0.97448486118591
  N   0.99730760284330     -0.59352862405076      1.32462484131458
  O   1.20586675414958     -1.76113025178573      1.64317615179948
  O   0.85754357590566      0.35201839470708      2.09358468972800
  N   1.74671195697398      0.78331168746916     -0.48444003541860
  H   1.23676974558294      1.65694211947071     -0.41782983116495
  H   2.11130690785055      0.66633221325713     -1.41809055756814
