16
Coordinates from ORCA-job run
  C   -0.62444545455528      0.00341762949233     -0.41649466037643
  C   0.86401083326283     -0.31180814889422     -0.16502259719459
  F   -0.73361734687362      0.02521156322790     -1.82169309611035
  H   1.11877057714774     -1.24346978886656     -0.67110392853184
  N   -1.44332914860741     -0.99324696140247      0.16425443840942
  H   -2.42274302061323     -0.82124328438654     -0.02283878083984
  H   -1.19221508477979     -1.92616267521855     -0.13939808288580
  N   -0.94349668194393      1.33832450615535     -0.00545703531588
  H   -1.76753025987522      1.66256394813716     -0.49513734030761
  H   -1.08827699984813      1.37128177036337      0.99503710436236
  N   1.00595698352981     -0.61544736092016      1.30688293591570
  O   1.19914038002531     -1.78540158957016      1.62591886347642
  O   0.89881227239825      0.33531667905997      2.07486609753603
  N   1.75906185895818      0.73389599174351     -0.52045310201359
  H   2.09492067897799      0.60619395031246     -1.46360847903930
  H   1.27498041279650      1.62157377076663     -0.44475233708470
