16
Coordinates from ORCA-job run
  C   -0.67973926412102     -0.27212769098495     -0.09083275402100
  C   0.85292386557386     -0.26039729850349      0.02807059645444
  F   -1.11337293995618     -1.25835544347745      0.84295187996195
  H   1.22780961358303     -1.22683950057480     -0.30737133102455
  N   -1.24451467211994      0.99242936110467      0.18894757836469
  H   -0.93805291711750      1.31601128382005      1.09826599244350
  H   -2.25574781359054      0.93795839723120      0.17704776435666
  N   -1.00638878693261     -0.68764382383243     -1.41422325973793
  H   -0.99937241651833     -1.69810245004866     -1.46925216084101
  H   -1.91359314416822     -0.34295778199601     -1.69848295927928
  N   1.23328581458586     -0.19458248382298      1.48428951246919
  O   0.91635137448760      0.83189770217949      2.08563467786782
  O   1.84045582102425     -1.14461688603151      1.96267766957313
  N   1.51611822182196      0.80568406235955     -0.65538601836824
  H   1.61626490218169      0.55640007181950     -1.62979806710122
  H   0.94857234126611      1.64324248075783     -0.60253912111814
