16
Coordinates from ORCA-job run
  C   -0.71261599180142     -0.17060322952420     -0.08547529338377
  C   0.80317415537711     -0.38460518704664      0.05622388103543
  F   -1.29728867092304     -1.02370925967515      0.89648281450116
  H   1.02836641207068     -1.41474666858556     -0.21782942441604
  N   -1.08042858856825      1.17892289188535      0.11300282118465
  H   -0.73463210130989      1.50486565098099      1.00725060151501
  H   -2.08800528800135      1.27800074046136      0.08788769854295
  N   -1.09006974031470     -0.60909123565509     -1.38772225903836
  H   -1.93067498844248     -0.14631363253947     -1.70672118062556
  H   -1.23846523838723     -1.61008186780588     -1.38444487359592
  N   1.18026626361243     -0.29153539584231      1.51190966973723
  O   1.63508166720844     -1.29203408256321      2.05242888555701
  O   1.01753628520209      0.80419454946710      2.04915519399316
  N   1.62531059884165      0.52665948152438     -0.67666579301911
  H   1.69314043222200      0.20798065814919     -1.63349223489595
  H   1.19130479321395      1.44209658676913     -0.68099050709189
