16
Coordinates from ORCA-job run
  C   -0.74416962297919      0.09568014501885      0.00866225856305
  C   0.75302958099322     -0.12546566824652     -0.25453147571770
  F   -0.83229030236049      1.08748229529863      1.00262310923792
  H   0.87020355864839     -0.82086335968657     -1.08519582445149
  N   -1.32663138858622      0.52845086555829     -1.21082475536833
  H   -2.29713690569444      0.78033744502807     -1.06848228170828
  H   -0.81082590955795      1.31997942348825     -1.57774130841139
  N   -1.35557937196715     -1.05935883117691      0.58993493706672
  H   -2.20001894641709     -0.78837172092994      1.07688878354136
  H   -1.57593303724740     -1.73516166031564     -0.12943655352781
  N   1.34110823675770     -0.85812333082133      0.94111213490451
  O   1.65512061690728     -0.17355490652710      1.91062029152709
  O   1.46081758588358     -2.07453364936442      0.84014819401386
  N   1.37586048635939      1.12340644000034     -0.52677325429546
  H   2.33505804600157      1.00335834745312     -0.82333438625452
  H   1.35138737325881      1.69873816522291      0.30633013088047
