16
Coordinates from ORCA-job run
  C   -0.68478667657390      0.10427710375428      0.01608406802051
  C   0.82163672058622     -0.17290438245768     -0.14564554766871
  F   -0.81878523831998      1.12833446207693      0.96556200226919
  H   0.96054834996733     -0.88126934933224     -0.96113057301608
  N   -1.18814408469518      0.52957446343207     -1.25060803812080
  H   -2.18128044830247      0.71753326672791     -1.17935073636804
  H   -0.72207987158440      1.37790074957166     -1.55009489956421
  N   -1.36423128884171     -1.02015254137700      0.57452263615607
  H   -2.27906079870175     -0.74480110253044      0.90863306679856
  H   -1.45387726601146     -1.75843568864260     -0.11096049125942
  N   1.28609241683573     -0.90198637233931      1.09045805532199
  O   1.41126188727371     -2.11981336330252      0.99928059041557
  O   1.48705108941531     -0.22041067022373      2.08733125043588
  N   1.63346643666995      0.98241488348276     -0.33424629701671
  H   1.79235014818018      1.20283753458836     -1.30410210048419
  H   1.30083862410242      1.77590100657157      0.19326701408040
