16
Coordinates from ORCA-job run
  C   -0.71040790236999     -0.18616052937766     -0.07093843717818
  C   0.81114097862612     -0.36754260778678      0.05448992071154
  F   -1.26506364237142     -1.02353776149314      0.94098755979495
  H   1.05301117378211     -1.39959066448085     -0.19730081471396
  N   -1.10109771057976      1.16121101221630      0.09800007321755
  H   -2.11072951056234      1.24004458825338      0.08473871495836
  H   -0.75007097898794      1.51598829511018      0.97917521782589
  N   -1.09706955887842     -0.66506981626027     -1.35592253934474
  H   -1.95243437534498     -0.22950192855611     -1.67398633045778
  H   -1.22229564476070     -1.66879300656224     -1.32612452786588
  N   1.20552380567632     -0.23052467087046      1.50167326988042
  O   1.68349725960174     -1.20913864596241      2.06193930767423
  O   1.03113081868965      0.87596423019911      2.01252692783562
  N   1.60523736034313      0.54059160402279     -0.71266086496674
  H   1.15313560514695      1.44697181644906     -0.73362104648241
  H   1.66649232198954      0.19908808509910     -1.66197643088888
