16
Coordinates from ORCA-job run
  C   -0.60359555350401     -0.06518762880588     -0.44099660235324
  C   0.90620042059289     -0.17186941954383     -0.14496622426149
  F   -0.66847082859518      0.01926789924566     -1.84628658622550
  H   1.31372386910568     -1.02566033142487     -0.68718600821614
  N   -1.28366000440858     -1.20256185734544      0.05460497549244
  H   -0.88876352780767     -2.06973390682840     -0.28846758082798
  H   -2.27143516288071     -1.16379078109805     -0.16142042776768
  N   -1.13156394727097      1.18268593900178      0.02410871262838
  H   -1.97636049139283      1.41100422165651     -0.48386217108909
  H   -1.31408376317568      1.13834445335679      1.01787867218959
  N   1.04294269983650     -0.53420293792145      1.31397372617354
  O   1.39755711570988     -1.67912832217010      1.58065443582366
  O   0.76928774282632      0.34539955767549      2.12424481356309
  N   1.64614724269375      1.01287032877219     -0.40954076281373
  H   1.03223360434609      1.81364481319333     -0.31001219823861
  H   2.02984058392452      0.98891797223627     -1.34272677407724
