16
Coordinates from ORCA-job run
  C   -0.81672837621252      0.18976606176950      0.05552181945537
  C   0.67397111750484     -0.12220523593829     -0.21661409574881
  F   -0.74848264136468      1.21658302738064      1.03497327765735
  H   0.74739271788344     -0.87281659107752     -1.00488816294280
  N   -1.48487188112156      0.79828459346656     -1.05342293142750
  H   -0.96310423314259      1.60768492271179     -1.36569322905708
  H   -1.55761602069766      0.13448212122295     -1.81324572292377
  N   -1.51945693481797     -0.91808743866865      0.49669753024656
  H   -1.05583799717627     -1.77182439116557      0.74119397942947
  H   -2.51018821406648     -0.92332560690792      0.34425863759771
  N   1.26241386070515     -0.82195143302347      1.01632362704522
  O   1.04467486217110     -2.03049410362469      1.11860313272702
  O   1.89966698204652     -0.14066839434207      1.81034067606742
  N   1.35957614718883      1.06743117546421     -0.55960022746983
  H   2.31543467114515      0.88292550631545     -0.83123534672816
  H   1.35215593995468      1.70421578641709      0.22678703607182
