16
Coordinates from ORCA-job run
  C   -0.72396259748423     -0.13057567553415     -0.05408034741917
  C   0.78186122990894     -0.43057980275674      0.02739461795913
  F   -1.31471153037833     -0.93722150661765      0.96278405042059
  H   0.93595186923951     -1.47488663856448     -0.24227874212635
  N   -1.00490631851039      1.24011607870167      0.14115560204700
  H   -2.00534197734822      1.39659903114457      0.15922176711521
  H   -0.60161654008483      1.55621865391230      1.01462493976676
  N   -1.18029997963388     -0.56068790044933     -1.33371858713359
  H   -1.38659942464319     -1.55114711150464     -1.31075214909576
  H   -2.00506647921663     -0.05286541976717     -1.62428618688644
  N   1.22338647597980     -0.34339728514070      1.46480670213985
  O   1.15355178147024      0.76784219458198      1.99029322625696
  O   1.63265889729814     -1.36426380416181      2.00339952641875
  N   1.62414084939628      0.42285068782967     -0.75099749236443
  H   1.62214402826584      0.09675163461276     -1.70784785973288
  H   1.24980971574092      1.36424686371373     -0.74071906736563
