16
Coordinates from ORCA-job run
  C   -0.61533993700180     -0.00623163915185     -0.42961745917810
  C   0.87224870174741     -0.29819529263799     -0.14677927142810
  F   -0.69512603400355      0.01537321582878     -1.83663804845265
  H   1.15292421778415     -1.22504688946768     -0.64795301260166
  N   -1.43047072562765     -1.01694792859571      0.13263276060670
  H   -2.40821711717690     -0.85811768934761     -0.07414955552673
  H   -1.16011778126830     -1.94459680991702     -0.17089141208609
  N   -0.96435020545478      1.32245783022014     -0.02402999119384
  H   -1.12797339617130      1.35379749107853      0.97350122587582
  H   -1.78282709656906      1.63512691004023     -0.53011914465139
  N   0.98775296508790     -0.60174610404618      1.32743428139176
  O   0.84775801825077      0.34574828809508      2.09412498008809
  O   1.19424947642476     -1.76862415399618      1.64910097296591
  N   1.75802494576297      0.76226220526979     -0.48176124495068
  H   2.11447235223330      0.64196386867173     -1.41835124824255
  H   1.25799161598207      1.64177669795595     -0.41450383261649
