16
Coordinates from ORCA-job run
  C   -0.79045335729950      0.22695703134676     -0.16782990172739
  C   0.63154115426214     -0.34123475689209      0.05280736600236
  F   -0.53444961327288      1.46341362601468     -0.82170221690867
  H   0.55857747819711     -1.32788122193890      0.51252509371254
  N   -1.56575814939807     -0.52032878448689     -1.10908519397626
  H   -1.04443747376273     -0.63402835118668     -1.96935987128553
  H   -1.78118745356930     -1.43110957085641     -0.72545643704778
  N   -1.48870959834091      0.38416917960739      1.01575098038026
  H   -2.48937426276017      0.40360144625145      0.96292850017547
  H   -1.04254707286270      0.30006085563862      1.90854079597306
  N   1.34136089017359      0.51048637017272      1.11453251250612
  O   2.11856454744825      1.37488672283512      0.72789333810212
  O   1.07125957408122      0.26061176425795      2.29055869483828
  N   1.32791718040646     -0.38624911286109     -1.17845966579347
  H   1.46014104032335      0.55341079602725     -1.52992684391653
  H   2.22755511637415     -0.83676599392989     -1.08271715103458
