16
Coordinates from ORCA-job run
  C   -0.81748351046922     -0.22500152942649     -0.00722496474825
  C   0.72138640675012     -0.33212237979588      0.02356372575412
  F   -1.25447814013617     -1.18308302053944      0.91465940273180
  H   1.01561820117922     -1.34584021824634     -0.27302832034146
  N   -1.40155219809075      1.01440397745679      0.38315030939866
  H   -1.12854340150406      1.22226514889380      1.33556524311883
  H   -1.03161741658039      1.75232143395767     -0.20330940164472
  N   -1.22853714741273     -0.51143069336958     -1.33608604521146
  H   -2.22370196387200     -0.33854307467862     -1.41147179785132
  H   -1.02960454933725     -1.47421167785287     -1.57823325405961
  N   1.20777329106019     -0.24872174215549      1.44934564701035
  O   0.93728278178730      0.75883176119921      2.09550166784804
  O   1.85589542517251     -1.20972054395762      1.85976689724704
  N   1.28836356732102      0.74500309254416     -0.73289335870712
  H   0.81196916588973      0.78084615107574     -1.62684383871421
  H   2.27622948824248      0.59500331489496     -0.89646191183068
