16
Coordinates from ORCA-job run
  C   -0.77518737797317     -0.26520442749822      0.00066316921531
  C   0.76604015231964     -0.29693342783892      0.02796154847733
  F   -1.16665216270417     -1.21588947170600      0.95665606606648
  H   1.09958540724823     -1.28305046242083     -0.29613752471516
  N   -1.25837932227514      1.03414276854879      0.25705984044197
  H   -2.26773872945937      1.03744425637971      0.19127360085534
  H   -0.94328339174779      1.37483175337010      1.15618991589356
  N   -1.34412088641255     -0.71178346074780     -1.23510249524055
  H   -1.08072090306377     -1.66909554619286     -1.42823039619524
  H   -1.05923221745113     -0.10986264678068     -1.99511458726842
  N   1.23398809481370     -0.22781936829430      1.47525392076388
  O   1.88591279447586     -1.17517757634635      1.90140669463341
  O   0.94025575161543      0.78424690618498      2.10723525208297
  N   1.37249367923805      0.75306605275817     -0.70777234570535
  H   0.73850719335573      1.51968621458623     -0.87812790392629
  H   1.86053191802045      0.45039843599797     -1.53321475537925
