16
Coordinates from ORCA-job run
  C   -0.75873357781307      0.16032144612627     -0.05827870572444
  C   0.76202587980738     -0.11371688131315     -0.10001983015723
  F   -0.94049824629691      1.23100106318069      0.83627480819244
  H   0.97649512456257     -0.71741787574277     -0.98099781483098
  N   -1.27711688735432      0.63389090333633     -1.30819596285387
  H   -1.20635261610387     -0.08835902137847     -2.01277397798253
  H   -0.78254136364909      1.46311902458554     -1.60912351262829
  N   -1.47813335543514     -0.99518010567549      0.30750525738494
  H   -2.46892026335989     -0.80513021323227      0.22108202125687
  H   -1.26908104514647     -1.27336835610414      1.25751802109872
  N   1.15625051327233     -1.00995634546927      1.05591169013749
  O   0.89493850169736     -0.59817784888625      2.18419249604751
  O   1.71719609102446     -2.06814657816744      0.78522654074770
  N   1.57979898986929      1.04942106382845     -0.05580745452874
  H   1.13496349652122      1.81581494058466      0.42529269608380
  H   1.95770875840418      1.31688478432731     -0.94880627224339
