16
Coordinates from ORCA-job run
  C   -0.76550926944426     -0.17836420646252     -0.06253525484797
  C   0.75571524478738     -0.39279578834717     -0.08469180884516
  F   -1.23375269080464     -1.03660005402321      0.97122435463444
  H   0.97915823320752     -1.43864542371937     -0.30358489997939
  N   -1.08654664032509      1.17193208254908      0.23757959844592
  H   -2.00044586120303      1.41514383282652     -0.11757740561038
  H   -1.01853509113269      1.36471810274529      1.22741801303126
  N   -1.33552610799558     -0.54273446649058     -1.30971063660642
  H   -2.30936338312063     -0.78629189337706     -1.17225988362980
  H   -0.85685129909181     -1.33167403940831     -1.72093049162985
  N   1.24701693729285     -0.24513289610363      1.36426169987695
  O   1.36354290063820      0.90007882279514      1.79848506509357
  O   1.50299915871107     -1.27698406282809      1.97642520701984
  N   1.35865520512475      0.49373592111864     -0.99675518828277
  H   2.36787817862718      0.44813848068112     -0.98052012200670
  H   1.03156448472878      1.43647558804413     -0.82682824666353
