16
Coordinates from ORCA-job run
  C   -0.73904687292929     -0.08774485462224     -0.40707427463763
  C   0.79862243465843     -0.22225526721653     -0.36485321196885
  F   -1.08625782753697     -0.38283259512806     -1.73913678540971
  H   1.09132584809175     -0.94728051030640     -1.12133054280284
  N   -1.36260273098101     -1.11355240105194      0.37705583363930
  H   -2.25841027313224     -1.35134901906743     -0.02670854721549
  H   -1.47753900318108     -0.80414982060114      1.33319292322936
  N   -1.13545303542566      1.22694056420473     -0.05998300302080
  H   -2.14533938095534      1.29662422948132     -0.06436594259827
  H   -0.74294905456499      1.89204144820203     -0.71570870772332
  N   1.18573526047018     -0.87098540285438      0.95401643916149
  O   1.67016702810007     -1.99673103362713      0.91616160219140
  O   1.00682048002872     -0.19365034362847      1.96595523946665
  N   1.44396157136314      1.03129342882067     -0.56051203984035
  H   1.32042824458194      1.60757235185660      0.26409657761844
  H   2.43053731141235      0.91505922553839     -0.74980556008941
