16
Coordinates from ORCA-job run
  C   -0.60862294626135     -0.01145778714621     -0.43897841824037
  C   0.87885282237325     -0.28297551111449     -0.13655896935548
  F   -0.66669036747075      0.02485442939753     -1.84700543676919
  H   1.18125189557111     -1.20031649846458     -0.64253258749394
  N   -1.41572855497438     -1.04157967530822      0.09881713664606
  H   -1.12655304677946     -1.96140094606093     -0.21097176170434
  H   -2.39305625836159     -0.89580350920011     -0.11901507280258
  N   -0.98539623381994      1.30664878187828     -0.02405803167854
  H   -1.16385152812013      1.32354988977163      0.97133097134591
  H   -1.80234770082045      1.61081784102034     -0.53779666242095
  N   0.97834585756628     -0.59775824276328      1.33566995937356
  O   1.19939979569523     -1.76396387349441      1.65004918412245
  O   0.81229815232517      0.34050889268978      2.10859158341559
  N   1.75396726630652      0.79366977219988     -0.44921535677358
  H   2.11555796707370      0.69181242628522     -1.38615153684571
  H   1.24157287969679      1.66539401030958     -0.37317500081888
