16
Coordinates from ORCA-job run
  C   -0.77966895066816     -0.33243253014272      0.02672575695176
  C   0.75876749227977     -0.38453160794515     -0.04241343561128
  F   -1.21651438064057     -1.50291140807782      0.65741243982748
  H   1.03810708989764     -1.44071201866054     -0.12387019358080
  N   -1.23698503450495      0.82735679231915      0.70911092988057
  H   -2.22364350407413      0.96778520081767      0.53579743077594
  H   -1.08409518241413      0.74520754675321      1.70667919580547
  N   -1.23883808448457     -0.43650832192141     -1.32761091616383
  H   -1.09191997071560      0.44891092964907     -1.79357476683736
  H   -2.21976868416981     -0.68739084315025     -1.33379433156865
  N   1.35493789913783      0.07169576558976      1.27240175299628
  O   0.83228723187401     -0.37678868196912      2.28820278586084
  O   2.32174379715872      0.82698864231155      1.24934831194362
  N   1.24276146302514      0.45236029070435     -1.10830122401398
  H   2.07489819316276      0.94135356010999     -0.80449661931502
  H   1.46793062513603     -0.11838331638775     -1.91061711695106
