16
Coordinates from ORCA-job run
  C   -0.61904807380789     -0.00948251699974     -0.50584415485697
  C   0.86930406572917     -0.31269774836003     -0.20880905463886
  F   -0.63709571273432      0.17610296650192     -1.89714674072493
  H   1.14291279910231     -1.23963702484548     -0.71307477557791
  N   -1.44615285363455     -1.09615824679186     -0.16094034900791
  H   -1.01646986481356     -1.83896817575106      0.36627150383124
  H   -2.36301272110917     -0.84941328706618      0.17108624923295
  N   -0.97392279973335      1.28843109844912      0.01149534418651
  H   -1.71339673820164      1.68915605027286     -0.55058321905906
  H   -1.25274142683945      1.24119741596829      0.98175801443959
  N   0.96354314036843     -0.61871316277635      1.26686902949777
  O   0.88716715453142     -1.80392179750018      1.59766485090813
  O   1.05690796258565      0.33287583714484      2.03399333133120
  N   1.76695242664127      0.74025463741847     -0.52749366430589
  H   2.03637241725192      0.67500910614105     -1.49883943565833
  H   1.29968022466377      1.62596484819433     -0.36640692959752
