16
Coordinates from ORCA-job run
  C   -0.75903866007942     -0.32209101403682      0.01448293100938
  C   0.76622019205849     -0.40041129257061     -0.11118795970636
  F   -1.12194168588120     -1.22097750276522      1.02378729108702
  H   1.03128368223990     -1.41462075485937     -0.40408313775458
  N   -1.17269592297287      1.00359830725726      0.33772257430409
  H   -2.18238191301892      1.06954157862456      0.31325297568957
  H   -0.83513585632281      1.28280762962507      1.25124008912375
  N   -1.31371605906395     -0.83141865991703     -1.20102777532021
  H   -1.04306079229236     -0.22314707176118     -1.96303668142206
  H   -2.32386469533792     -0.87240979946127     -1.13343931227867
  N   1.36865935932890     -0.25129959710887      1.28660015143917
  O   1.33416463498007      0.87233828087087      1.79109392796174
  O   1.85839348565317     -1.25148555498760      1.79978959418517
  N   1.21882023619791      0.56352134020290     -1.04382346333897
  H   2.21288212440548      0.50119999875101     -1.21519730027050
  H   0.95841187010553      1.49485411213632     -0.74617390470856
