16
Coordinates from ORCA-job run
  C   -0.79737173094611     -0.01271874627991     -0.44133922444591
  C   0.75025042328927     -0.17531121168554     -0.37600998695237
  F   -1.06674773940481     -0.16867737863401     -1.81320127317918
  H   1.05149516820160     -0.88853315904155     -1.14174375434959
  N   -1.59187578677237     -0.99095142030364      0.22484283725130
  H   -1.51786899205779     -0.88790494131472      1.22765841534282
  H   -1.32899401019031     -1.92951740892199     -0.04292844476474
  N   -1.16345081717584      1.26282085296163      0.03927117271024
  H   -2.17292867607230      1.33866738912851      0.02197226601019
  H   -0.75306752162550      1.97998060536071     -0.54462774363894
  N   1.08307044390931     -0.87442290459375      0.93782348322403
  O   1.30714890318251     -0.16613078188409      1.91606925465921
  O   1.06342052338360     -2.10393571564114      0.92974194938320
  N   1.41665359730441      1.06754746832117     -0.52896672848375
  H   1.31908134101835      1.60994498246670      0.32138938596827
  H   2.39918487395597      0.93914237006162     -0.72995160873478
