15

C	-0.575608	0.032595	-1.397964
C	0.0	0.0	0.0
Cl	-2.298992	0.408993	-1.382514
H	1.090124	0.0	0.0
H	-0.316486	0.920835	0.496167
N	0.078692	1.086257	-2.274578
O	0.202293	0.828156	-3.465161
O	0.358246	2.136043	-1.71145
N	-0.335292	-1.305363	-2.085888
O	0.846841	-1.611451	-2.131116
O	-1.28642	-1.938811	-2.515075
N	-0.483437	-1.217925	0.641649
H	0.297532	-1.661625	1.107407
H	-1.2031	-1.019101	1.322477
Cl	3.391826	0.0	0.0
