15

C	-0.519129	0.011801	-1.421808
C	0.0	0.0	0.0
Cl	0.312707	1.187601	-2.402919
H	1.091388	0.0	0.0
H	-0.314202	0.950807	0.446944
N	-0.389686	-1.387048	-2.028499
O	0.728956	-1.712758	-2.387
O	-1.40498	-2.073623	-2.036784
N	-2.024039	0.311078	-1.487194
O	-2.624753	0.381286	-0.418257
O	-2.516804	0.44546	-2.599157
N	-0.46689	-1.182861	0.695751
H	-1.280873	-0.989346	1.261292
H	0.284089	-1.53727	1.272549
Cl	3.385579	0.0	0.0
