15

C	-0.520489	-0.099176	-1.416301
C	0.0	0.0	0.0
Cl	-2.24693	-0.43642	-1.476532
H	1.093539	0.0	0.0
H	-0.327798	-0.916874	0.494442
N	-0.241417	1.161871	-2.224973
O	-0.870482	1.31256	-3.264764
O	0.632786	1.896438	-1.78431
N	0.209928	-1.231621	-2.140503
O	0.058742	-2.337706	-1.641641
O	0.881198	-0.944289	-3.11972
N	-0.576901	1.181611	0.634434
H	0.153484	1.878652	0.701818
H	-0.861675	0.948301	1.575181
Cl	3.383374	0.0	0.0
