15

C	-0.477628	0.186467	-1.422193
C	0.0	0.0	0.0
Cl	-0.09869	1.778768	-2.027772
H	1.107389	0.0	0.0
H	-0.341682	0.885927	0.539375
N	0.083911	-0.862987	-2.382459
O	0.016359	-0.619405	-3.579586
O	0.511163	-1.887133	-1.866341
N	-1.996953	-0.022155	-1.460747
O	-2.648891	0.793645	-0.827455
O	-2.426244	-0.996142	-2.062963
N	-0.617903	-1.190375	0.579657
H	0.01765	-1.96697	0.452292
H	-0.726667	-1.041933	1.57419
Cl	3.395965	0.0	0.0
