18

C	0.0	0.0	0.0
C	-0.353719	0.009632	-1.518048
F	1.386512	0.0	0.0
H	0.487934	0.52268	-1.988925
C	-0.377963	1.311804	0.567287
N	-0.552937	2.371898	1.041524
C	-0.612982	-1.123566	0.793345
H	-1.708228	-1.02906	0.706197
H	-0.315431	-1.03478	1.840592
H	-0.278822	-2.087502	0.40586
C	-1.685686	0.596657	-1.915704
H	-1.88617	0.365862	-2.965771
H	-2.522912	0.248022	-1.273687
H	-1.626604	1.682762	-1.806358
N	-0.20489	-1.407301	-2.001197
O	-1.214723	-2.096579	-2.107967
O	0.943853	-1.798515	-2.225881
H	-3.741849	0.0	0.0
