18

C	0.0	0.0	0.0
C	-0.248956	-0.010152	-1.561427
F	1.385646	0.0	0.0
H	0.653657	0.479639	-1.931993
C	-0.673483	1.172903	0.567474
N	-0.615351	2.255931	1.067446
C	-0.29901	-1.28377	0.779817
H	0.243613	-2.112827	0.317974
H	0.108858	-1.136642	1.786076
H	-1.363603	-1.4752	0.821649
C	-1.44325	0.625448	-2.236181
H	-1.60998	1.613502	-1.807214
H	-1.207319	0.727266	-3.306452
H	-2.344569	0.045303	-2.08249
N	-0.079924	-1.423389	-2.047406
O	-1.087084	-2.093641	-2.274467
O	1.074337	-1.847712	-2.156619
H	-2.358384	0.0	0.0
