18

C	0.0	0.0	0.0
C	-0.585426	0.054534	-1.40173
F	1.387986	0.0	0.0
H	-1.67594	0.250424	-1.195176
C	-0.360913	1.206462	0.786397
N	-0.479877	2.119656	1.515204
C	-0.499225	-1.222672	0.740565
H	-0.110094	-2.126172	0.267134
H	-0.151633	-1.182261	1.775115
H	-1.599245	-1.181167	0.701072
C	-0.396142	-1.214993	-2.202536
H	-0.666508	-1.036396	-3.243883
H	-1.067705	-1.977502	-1.805704
H	0.636406	-1.569466	-2.175388
N	-0.000698	1.22186	-2.122029
O	0.808371	1.01253	-3.031163
O	-0.363148	2.342184	-1.764821
H	-3.10191	0.0	0.0
