18

C	0.0	0.0	0.0
C	-0.19295	-0.010047	-1.559491
F	1.390295	0.0	0.0
H	0.413549	0.843259	-1.875354
C	-0.708065	1.174497	0.524914
N	-0.652808	2.251583	1.040476
C	-0.296677	-1.255777	0.821322
H	-1.361596	-1.436232	0.897799
H	0.215405	-2.109852	0.376073
H	0.135317	-1.073139	1.812236
C	-1.51627	0.024431	-2.293127
H	-2.134527	-0.831069	-2.039901
H	-1.28879	0.041323	-3.37009
H	-2.067126	0.915881	-2.011875
N	0.573832	-1.178551	-2.12046
O	1.625675	-0.950292	-2.719775
O	0.084172	-2.299994	-1.983646
H	-2.355994	0.0	0.0
