14
Coordinates from ORCA-job run
  C   -0.65380825087705     -0.48096916895201      0.29700968236787
  C   0.49863083513671     -0.11958476010843     -0.64153714636471
  F   -0.07662470626981     -0.95379173585005      1.47830233104599
  H   0.06548545833035      0.29359509966830     -1.55892970131391
  H   -1.22244304307202     -1.31315022487423     -0.12920742874761
  C   -1.54770740261314      0.69098127970422      0.62075230845641
  H   -2.30122413748782      0.38454993637582      1.34792526516709
  H   -2.05795315249441      1.03947536073745     -0.28050720867621
  H   -0.95813554882818      1.50919611235752      1.03081619992598
  C   1.23796209223832     -1.34626545398977     -1.01056943672301
  N   1.85975645374937     -2.30030755644595     -1.29740642105854
  N   1.32949767790385      0.90265903394184     -0.02325365998068
  H   2.07754060208475      1.17423542688093     -0.64897228139449
  H   1.74802312219907      0.52037665055436      0.81657749729582
