14
Coordinates from ORCA-job run
  C   -0.61107252929242      0.52072950464677     -0.03766468011894
  C   0.68938588494463     -0.22275732990879     -0.33838394767001
  F   -1.17089929880687      0.81944790970405     -1.28560209664134
  H   0.41340328894696     -1.15174447426859     -0.86311193859574
  H   -0.36302794705062      1.47567919769093      0.43375588287772
  C   -1.60960633138929     -0.27438353340248      0.76568730641786
  H   -2.53963763636428      0.28933937803145      0.85053458586175
  H   -1.82611203768598     -1.22490239498986      0.27323903344320
  H   -1.23059676858829     -0.47221377695514      1.76978004428831
  C   1.33993408798991     -0.59941453556253      0.92156231466424
  N   1.85170692552555     -0.90841786710933      1.93142324833910
  N   1.56836136328819      0.65529485622360     -1.10219174615497
  H   1.07920966352994      0.93294066203391     -1.94463640815416
  H   2.40895133495256      0.16040240386601     -1.37439159855702
