14
Coordinates from ORCA-job run
  C   -0.83494542414395      0.09618570962429     -0.47306682152305
  C   0.66562818264305     -0.18477272592416     -0.60892415924789
  F   -1.50511066167405     -0.91487562781205     -1.15610050832438
  H   0.85304479671978     -0.41168905778432     -1.66892825950582
  H   -1.04369862100697      1.03161350138201     -1.00594927018641
  C   -1.32644322614744      0.15880568630862      0.94977360437871
  H   -2.38264071472766      0.43211664242456      0.96743418778744
  H   -0.75198852060539      0.89877021718644      1.50723659508876
  H   -1.21247462335469     -0.81605306507172      1.42720429375598
  C   1.03602594556420     -1.38036891089561      0.15615481109650
  N   1.34665224369583     -2.33033111083383      0.77093579982181
  N   1.41070484113282      0.96836408462044     -0.10224715057461
  H   1.35813696582861      1.72042378498354     -0.77978508293044
  H   2.38810881607586      0.73181087179178      0.01626196036340
