14
Coordinates from ORCA-job run
  C   -0.66489334006461     -0.47436298993105      0.07261701971331
  C   0.67917532758291     -0.13455851988455     -0.58988764377516
  F   -0.37444523156011     -1.16636222566478      1.24900385029782
  H   0.47183931055476      0.43862992102133     -1.50118935096979
  H   -1.22751558057259     -1.16013576930276     -0.56911649729837
  C   -1.49045303072355      0.74114262831132      0.42103932077631
  H   -2.41417248430966      0.43122577450046      0.91131216856975
  H   -0.94616690831907      1.39034088571613      1.10835296529487
  H   -1.74882149163088      1.30605667526330     -0.47795123637911
  C   1.33119772028513     -1.38780473419593     -1.00433481824608
  N   1.82114947886707     -2.40253969114452     -1.33062069181449
  N   1.60577929167246      0.63330854871192      0.22714778029248
  H   1.68494550408190      0.20383705689800      1.14115167847918
  H   1.27538143413625      1.58222243970113      0.34147545505926
