14
Coordinates from ORCA-job run
  C   -0.61469551939507      0.51782709425188     -0.01020185990951
  C   0.69978818465275     -0.18916174988171     -0.33697484901292
  F   -1.14549996342444      0.91453540354884     -1.24358398635609
  H   0.44595692480240     -1.07588257108227     -0.93997067881243
  H   -0.38750794176683      1.43229419154016      0.54456941318648
  C   -1.62618403216901     -0.34801567389900      0.69821698509627
  H   -2.56116898865232      0.20255874886361      0.81081337246429
  H   -1.82599221275888     -1.25251262663739      0.11935731246655
  H   -1.26851658398162     -0.63170568472255      1.68961432931390
  C   1.32313013305742     -0.65967469139570      0.90483222018050
  N   1.81430307140096     -1.04397376036835      1.89919846489682
  N   1.58816598223970      0.75349681931317     -1.00663017105562
  H   2.44241408680307      0.29024759776479     -1.29188684707313
  H   1.11880685919187      1.09096690270452     -1.83835370538512
