16

C	-0.34305	0.15225	-1.490173
C	-0.169645	0.145782	0.016425
Cl	-0.178118	1.847569	-2.088353
H	0.822405	0.57659	0.206185
H	-0.952535	0.762319	0.46255
C	0.631878	-0.757485	-2.189431
H	0.281333	-1.78079	-2.059367
H	0.70077	-0.528574	-3.252931
H	1.587288	-0.698609	-1.648286
N	-1.790285	-0.218591	-1.837407
O	-2.679815	0.240374	-1.127276
O	-1.982038	-0.922722	-2.825324
N	-0.214467	-1.245288	0.451686
H	-0.534102	-1.267254	1.412911
H	0.804615	-1.485665	0.43556
F	2.373857	-1.079844	0.074501
