16

C	-0.176349	-0.044787	-1.456871
C	0.03858	0.025925	0.040914
Cl	0.170667	1.552983	-2.1762
H	1.11416	0.177544	0.15632
H	-0.193598	-0.968537	0.430283
C	0.708203	-1.084877	-2.103322
H	1.724397	-0.877244	-1.694167
H	0.388037	-2.073182	-1.76468
H	0.643117	-1.025439	-3.193057
N	-1.652925	-0.367622	-1.715445
O	-2.032323	-1.421649	-1.20838
O	-2.358007	0.370397	-2.392026
N	-0.887241	0.99285	0.650747
H	-0.886987	0.830963	1.650739
H	-0.5039	1.921202	0.513109
F	2.760382	-0.385402	-0.368984
