16
Coordinates from ORCA-job run
  C   -0.30501134849385     -0.71180581906389      0.37799676415311
  C   0.84273097648766      0.19186514160491     -0.07799516251934
  Cl  0.36093387184935     -2.25615279791413      0.93402200101447
  H   1.68972565148812      0.14792572882545      0.59960528517371
  N   -0.86171416240701     -0.04903437158203      1.68958436424560
  O   -0.05504950255945      0.55721686794859      2.38315645106746
  O   -2.04678242126101     -0.23290909352722      1.91394132161924
  N   -1.26417232167314     -0.93205017288334     -0.60832336021471
  H   -1.67370148013293     -0.06023278247864     -0.92164231689379
  H   -1.97957519758178     -1.57546556635639     -0.29614389843082
  N   0.43695565109545      1.63082680762712     -0.19188866036916
  O   1.36439742498186      2.42891458545073     -0.21220161896239
  O   -0.76034146094136      1.88478670883525     -0.28467514702614
  N   1.30764528195532     -0.23237362194078     -1.44543461547509
  O   2.16110109142708     -1.10880200930372     -1.45690073735933
  O   0.78285794576569      0.31829039475811     -2.40410067002282
