16
Coordinates from ORCA-job run
  C   -0.57688127154191     -0.51648961514225     -0.07493964180240
  C   0.57013357057109      0.49574829896059     -0.02386992311623
  Cl  -0.44761691893799     -1.63214349311538     -1.40935901727173
  H   0.54682036112609      1.02542682851868      0.92815333595105
  N   -0.50843178304927     -1.32336946697421      1.27711009568520
  O   -0.62830488345472     -2.53282543270668      1.26474649149174
  O   -0.44120042536745     -0.59330621807892      2.26243946501513
  N   -1.79263396201607      0.20321537842539     -0.15574645259181
  H   -2.58312060703532     -0.40976060843878     -0.30953022828119
  H   -1.93846876213112      0.78794265014932      0.65961425039274
  N   0.39200391479376      1.52001133390800     -1.09885878255606
  O   0.59418563721225      1.16555747515751     -2.25106242890221
  O   0.03041304065834      2.62566719319279     -0.70694480207756
  N   1.93061998037288     -0.12967409082951     -0.12520527287147
  O   2.80956161128150      0.53821658516859     -0.64976595960053
  O   2.04392049751794     -1.22421681819513      0.41321887053534
