16
Coordinates from ORCA-job run
  C   -0.73583249978509     -0.49162780630689      0.02070732200276
  C   0.60510014562447      0.03136008259853     -0.53409485779130
  Cl  -1.62528699059139     -1.08957083241085     -1.40672814528233
  H   1.20075295194777     -0.77506294610400     -0.95836398538581
  N   -0.38464434862185     -1.74400299620421      0.86671859312448
  O   0.41044086713405     -2.51848943564333      0.35431172458344
  O   -0.93569223807952     -1.85682271735902      1.94736360897571
  N   -1.54400075205221      0.35289916688412      0.78680296648084
  H   -1.22096634965445      0.43970146767661      1.74007894044824
  H   -1.69014150030337      1.24615533927204      0.33759261657178
  N   1.42622665289752      0.68627543117727      0.54527113737306
  O   2.18490133169979      1.58126959658351      0.20168006618779
  O   1.29371213441574      0.21634185181123      1.67040532871662
  N   0.39062514289242      1.05550858319924     -1.59956352090929
  O   0.93956916222271      0.85093451328299     -2.67510683009009
  O   -0.31376370974658      2.01513070154277     -1.29807496500591
