17

C	0.0	0.0	0.0
C	-0.41979	0.073401	-1.506341
Br	1.946576	0.0	0.0
H	0.472633	0.405529	-2.042129
N	-0.263498	1.388152	0.697844
O	-0.110929	2.39724	0.023206
O	-0.524306	1.344603	1.892892
N	-0.535057	-1.069437	0.703652
H	-1.563275	-0.981194	0.608701
H	-0.294634	-0.987741	1.685153
C	-1.416696	1.073451	-1.912917
N	-2.028523	1.855863	-2.542668
C	-0.803849	-1.30904	-2.039987
H	-0.019819	-2.033671	-1.813727
H	-0.93522	-1.240785	-3.123661
H	-1.743233	-1.625897	-1.591411
Cl	-3.400185	0.0	0.0
