17

C	0.0	0.0	0.0
C	-0.405928	-0.085156	-1.505819
Br	1.962373	0.0	0.0
H	0.466802	0.262971	-2.06212
N	-0.252163	1.462932	0.524634
O	-0.53357	1.567326	1.711656
O	-0.068258	2.383214	-0.261483
N	-0.544442	-0.974716	0.816205
H	-0.317946	-0.779086	1.784964
H	-1.573996	-0.897799	0.697737
C	-1.456363	0.815835	-2.006206
N	-2.051974	1.546897	-2.710928
C	-0.690693	-1.532995	-1.904427
H	-0.789161	-1.590038	-2.991179
H	-1.619758	-1.867718	-1.444475
H	0.128986	-2.177186	-1.583682
Cl	-3.392753	0.0	0.0
