13
Coordinates from ORCA-job run
  C   0.30672680395811      0.11158405727302     -0.07349606537854
  C   -0.69441191179125     -0.70623483507649      0.35583663185933
  H   -0.51262869792214     -1.60598617240770      0.92236924725732
  N   0.15274503944678      1.21750758063668     -0.84261493904987
  H   -0.78620943216740      1.56891101822937     -0.95346119810163
  H   0.91470987130836      1.87198838108713     -0.88267927564776
  C   1.72677644968570     -0.26052590087537      0.24342666401858
  H   2.29308123027398     -0.39654059795403     -0.68139878681150
  H   1.78069637150392     -1.18041838057655      0.82350809638888
  H   2.20684926151838      0.53673026733866      0.81880950728534
  N   -2.08257294144311     -0.45180532127024      0.14389465908283
  O   -2.87881879773199     -1.26495244535470      0.61680319281520
  O   -2.42694324663934      0.55974234895022     -0.48999773371819
