13
Coordinates from ORCA-job run
  C   0.18567937083217      0.42667077390681     -0.13944440553685
  C   -1.11509317550679      0.04529341112109     -0.08092706373184
  H   -1.93361767192042      0.68025087525141     -0.39378888378725
  N   0.49487328435247      1.71160855645389     -0.52396051383868
  H   1.40026704407945      1.84499036004829     -0.94304259089246
  H   -0.23931549143858      2.24754118388521     -0.96036414396136
  C   1.36379415980549     -0.40973098517320      0.26808573341944
  H   1.36485191237967     -1.36594053559056     -0.25259835926267
  H   2.29499028514004      0.12234296993391      0.06376429865697
  H   1.31690818251329     -0.63832008107320      1.33274348223252
  N   -1.57451928324193     -1.21821234419923      0.41350576412813
  O   -0.76499432567209     -2.04287959044882      0.84873823037375
  O   -2.79382429132276     -1.40261459411560      0.36528845220029
