13
Coordinates from ORCA-job run
  C   0.30901823676400      0.12778059771907      0.00521888016907
  C   -0.72608114445246     -0.74016825565797      0.18050027409506
  H   -0.58280756439787     -1.77420852734936      0.45239655744680
  N   0.19692221050856      1.44937930186179     -0.27517375490626
  H   1.00922808808852      1.92576483867295     -0.62696969476150
  H   -0.71289700284869      1.78128119101983     -0.55709999860728
  C   1.70967979098206     -0.36833399497945      0.22310127937077
  H   1.72551030271136     -1.42835540533856      0.47153724828270
  H   2.30901285647769     -0.21887831286081     -0.68001638807015
  H   2.18141770789674      0.18926038664259      1.03617298725402
  N   -2.09729933905630     -0.40255461569551     -0.02162317571515
  O   -2.39730141052769      0.76005825107443     -0.34173117734379
  O   -2.92440273214593     -1.30302545510901      0.13268696278571
