13
Coordinates from ORCA-job run
  C   0.18787910871445      0.42420216228407     -0.14318488691260
  C   -1.11501051196491      0.08906112929594      0.03351431836526
  H   -1.92963887485231      0.78881152624496     -0.09965845257570
  N   0.50418978630464      1.68178472257733     -0.60421342312533
  H   -0.22687646350074      2.37576393121122     -0.58028118609272
  H   1.41052139747639      2.03586424834741     -0.34687304878351
  C   1.36178729714580     -0.49443431535132      0.03633205275096
  H   1.35703357084099     -0.94845787496732      1.02589841430110
  H   2.29573153387788      0.05042566571799     -0.11473048873979
  H   1.31447022480623     -1.31475017631896     -0.67975317407666
  N   -1.58094655645112     -1.21679763233296      0.39347855881394
  O   -2.80133090919499     -1.33027758555588      0.53848303354004
  O   -0.77580960320229     -2.14119580115246      0.54198828253501
