13
Coordinates from ORCA-job run
  C   0.31058588429096      0.12066779138305     -0.02847049223411
  C   -0.71790683431084     -0.75909035110093      0.12613409457874
  H   -0.57028633557388     -1.78447404554817      0.42697144919990
  N   0.20256620652349      1.39795023911658     -0.46981328908781
  H   0.97505106448797      2.01950298136078     -0.30392507159653
  H   -0.72617033130712      1.78891772824775     -0.51450807801906
  C   1.71178529644367     -0.35864056006027      0.22169761781857
  H   2.18032718704152      0.23714025776247      1.01082879113572
  H   1.72947779471308     -1.40358356647641      0.52731309999914
  H   2.31209104978136     -0.24848171993431     -0.68492541297921
  N   -2.09271306880556     -0.42457703657413     -0.05678049468943
  O   -2.39763800973971      0.72912635204756     -0.40336618473867
  O   -2.91816990354494     -1.31645807022396      0.14784397061274
