13
Coordinates from ORCA-job run
  C   0.30221228049978      0.12756522627059     -0.06712935877068
  C   -0.69160859255426     -0.77909037773875      0.14621596652661
  H   -0.50436521915213     -1.83280817904417      0.28164730242999
  N   0.13041619966534      1.45008185241065     -0.31228563783157
  H   -0.78843995278803      1.82937369259802     -0.14076298371324
  H   0.92464871735575      2.05548657451322     -0.19642584875884
  C   1.72130044724404     -0.36018810380523     -0.12836435464706
  H   2.32572695520366      0.13649146245550      0.63661609604292
  H   2.15460858113812     -0.12647959246455     -1.10410886417312
  H   1.78305773805526     -1.43522216952368      0.03328309143337
  N   -2.07405652404142     -0.44242596097862      0.25228254614318
  O   -2.85869354202203     -1.36473614861085      0.48135662279687
  O   -2.42480708860407      0.74195172391787      0.11767542252158
