13
Coordinates from ORCA-job run
  C   0.30368317094144      0.13837085342890     -0.01875043490441
  C   -0.67593127421542     -0.79334569414205      0.14750812443573
  H   -0.47469395357359     -1.85222791116072      0.19152726255440
  N   0.12823416643500      1.48241222498746     -0.01890493624799
  H   0.86601276428020      2.05385821564277     -0.39256575299883
  H   -0.81996322246938      1.82029793597312     -0.08289990498047
  C   1.72776670287791     -0.32554024361131     -0.12952477309454
  H   2.32631196118288      0.10792280066049      0.67568448095476
  H   1.80132633028121     -1.41048323899362     -0.07369457765430
  H   2.15819966114822     -0.00117332921220     -1.08172571346014
  N   -2.06616081748862     -0.48608529266391      0.23686045010883
  O   -2.84333163343643     -1.43588431206198      0.34932305965906
  O   -2.43145385596344      0.70087799115305      0.19516271562788
