13
Coordinates from ORCA-job run
  C   0.17687503332931      0.43975298806369     -0.10627680599683
  C   -1.11660823559364      0.03182504419052     -0.06694584709466
  H   -1.95300655493868      0.69591988801365     -0.24138130651911
  N   0.46502301140437      1.73369588232045     -0.47543594105430
  H   1.32472267919707      2.11809845225518     -0.12035754833776
  H   -0.30151947210130      2.38853163173697     -0.48693151323029
  C   1.37726033279285     -0.42781069881726      0.13946209617505
  H   2.29056966534274      0.16905529048331      0.09995903974655
  H   1.43858344302220     -1.21359497866155     -0.61325645007821
  H   1.30745798389998     -0.92918130954459      1.10347006227233
  N   -1.54195745346778     -1.31215512549877      0.18760453997534
  O   -0.70483930245336     -2.20208385613236      0.36696896836704
  O   -2.76256113043376     -1.49305320840924      0.21412070577487
