13
Coordinates from ORCA-job run
  C   0.19970585872798      0.44284374782231     -0.01292680508513
  C   -1.07198756620826      0.09427397416481      0.30646599447135
  H   -1.84190064157498      0.81477614453353      0.54965736817807
  N   0.57438339314353      1.76559089684487      0.05804560808227
  H   1.33081637220985      2.04570124630625     -0.54414396861452
  H   -0.16602909750023      2.44683283467502      0.12507276225257
  C   1.30626534595960     -0.50739001129769     -0.36853306413734
  H   2.20919997984717      0.04573279262004     -0.63445833933333
  H   1.53066884592224     -1.16110964206456      0.47417695375989
  H   1.01589524063837     -1.15645291968753     -1.19308468425944
  N   -1.55334461553062     -1.25275106934392      0.38848861844060
  O   -2.74773642047595     -1.37995785996472      0.67204542998058
  O   -0.78593669515869     -2.19709013460841      0.17819412626444
