13
Coordinates from ORCA-job run
  C   0.30084368957741      0.14174192496176     -0.03303376064735
  C   -0.68820107008887     -0.79479567863760     -0.05251404397683
  H   -0.49458187617606     -1.84687290985102     -0.19143292594469
  N   0.12258662103568      1.48107035554101      0.07362518848482
  H   0.91695734425347      2.04414532288768      0.32311489476770
  H   -0.79649359700450      1.80194107129880      0.33723506229346
  C   1.72081719982850     -0.30601021283916     -0.22956883891021
  H   2.14265592620316      0.16745477329632     -1.11972726509193
  H   2.33193847201103     -0.01331909202735      0.62950998798805
  H   1.78829680165575     -1.38671845271547     -0.34409868484511
  N   -2.07055033406518     -0.50407423289136      0.14683790116170
  O   -2.85029276905356     -1.45829906252391      0.13877707539458
  O   -2.42597640817683      0.67373619350031      0.32127540932579
