13
Coordinates from ORCA-job run
  C   0.19146714677093      0.39226790237332     -0.21246443063956
  C   -1.11229451734849      0.02752162345161     -0.12124136270319
  H   -1.92399455137600      0.63132950526075     -0.50538072485697
  N   0.52529531633118      1.53364069732262     -0.90474029025380
  H   -0.22337069842596      2.17100803862651     -1.12781679744274
  H   1.38015263224396      1.98830027654214     -0.63006413897239
  C   1.35984407937904     -0.39251181168120      0.30994241368291
  H   1.43289307804094     -1.35154655848659     -0.20269945809361
  H   1.23947793884219     -0.61686526340868      1.36852124458503
  H   2.28800024333867      0.16089800906947      0.15406235191793
  N   -1.58009656334708     -1.19160207214325      0.46750249433590
  O   -0.77244419455583     -2.01140334593761      0.91533634307760
  O   -2.80492990989356     -1.34203700098909      0.48904235536291
