13
Coordinates from ORCA-job run
  C   0.31952679184127      0.08639638075331      0.02606578558603
  C   -0.75390537188822     -0.71776575235786     -0.16224204704779
  H   -0.66338549819674     -1.75797222621127     -0.43644723620654
  N   0.27247467218731      1.38451851893656      0.46767190893221
  H   -0.64157203231438      1.81097037591187      0.42659958368619
  H   1.00850249839066      1.98668543710428      0.13459738723033
  C   1.70213142273461     -0.45004664921694     -0.19627286491731
  H   2.17767403125264      0.08446106475147     -1.02486024204495
  H   2.30668751457022     -0.29255367119378      0.69953491058885
  H   1.69265092028022     -1.51162534084852     -0.44021346652955
  N   -2.11064159680010     -0.31004330809283      0.09097689803232
  O   -2.40024297457812      0.89234597389389      0.04218551356712
  O   -2.90990037747937     -1.20337080343018      0.37140386912308
