13
Coordinates from ORCA-job run
  C   0.32171185478418      0.08762494274297      0.03097163204969
  C   -0.79443018204944     -0.58580382356219     -0.36481724995721
  H   -0.75381188977221     -1.53772235369671     -0.87063911808591
  N   0.34423937836656      1.31246850534789      0.61134235926340
  H   1.18631878663170      1.59581760441823      1.08150051894031
  H   -0.53605127905989      1.67812186111567      0.94107953901717
  C   1.66696606260011     -0.51297757241837     -0.25975051565808
  H   1.57642369105453     -1.47403016878514     -0.76352223020744
  H   2.24861312359613      0.16125813036282     -0.89347309225318
  H   2.22288519832090     -0.66442461062238      0.67038007121903
  N   -2.12782011144450     -0.13814873744969     -0.12551179617706
  O   -3.04162344468620     -0.86981701414518     -0.51054297878123
  O   -2.31142118834187      0.94663323669208      0.45198286063054
