13
Coordinates from ORCA-job run
  C   0.30914846756082      0.12736804370511      0.00667327789796
  C   -0.71633854029159     -0.74849488588812     -0.18516627790346
  H   -0.55936362140963     -1.79189113546923     -0.40960451278163
  N   0.18345446402710      1.45976445521040      0.22242502876487
  H   0.97622289732390      1.95369895825276      0.59386616700212
  H   -0.74020915897037      1.80381374809454      0.43629183084747
  C   1.71898385691161     -0.37725720144839     -0.10652191307681
  H   1.74668518729701     -1.44383699167065     -0.32394763876407
  H   2.24425458093308      0.15627847556649     -0.90270472332512
  H   2.25925277639546     -0.20397014560674      0.82900311230860
  N   -2.09629008457133     -0.40221723116461     -0.08175147018461
  O   -2.41187881549175      0.77259908216268      0.17170922936129
  O   -2.91492200971433     -1.30785517174424     -0.25027211014661
