13
Coordinates from ORCA-job run
  C   0.30995485420516      0.13615193863421      0.03800828925782
  C   -0.70685416818690     -0.71109396582849     -0.28523921317446
  H   -0.53964559868276     -1.68668381776572     -0.71626696144211
  N   0.17731202073589      1.31223690666865      0.70362063941162
  H   -0.75926576955476      1.68565835987526      0.76332142860653
  H   0.93588563483018      1.96904593605890      0.63224071062901
  C   1.71892143626908     -0.30703091510358     -0.26018235649686
  H   1.77739091226309     -0.78539055136668     -1.23787816056145
  H   2.05777867527824     -1.02181373733496      0.49301406168145
  H   2.40991252904640      0.53820083696199     -0.25275242491063
  N   -2.08361764939083     -0.44526253386690     -0.02701869089785
  O   -2.88920639093546     -1.33189008149449     -0.31509026534876
  O   -2.41156648587731      0.64787162456182      0.46422294324568
