13
Coordinates from ORCA-job run
  C   0.17671079128982      0.45226584194733      0.01286233651704
  C   -1.09820488974601      0.03275421017921      0.21212595728771
  H   -1.90771818577218      0.70135411508572      0.47419191083723
  N   0.45691464675648      1.79903742271241      0.04926136951402
  H   -0.24896629199631      2.40352944376382      0.44028272198647
  H   1.39725499479653      2.05243326024106      0.30328801550096
  C   1.34279850917662     -0.42485838148579     -0.34028497213788
  H   2.26061969286263      0.16469883215494     -0.38511331615841
  H   1.18212044095383     -0.89779428358597     -1.30902010073648
  H   1.45925455917904     -1.23202956223749      0.38104341134038
  N   -1.54159050280331     -1.32338830222418      0.08393174860933
  O   -0.74507704754095     -2.20509355127831     -0.25226330887474
  O   -2.73411671715620     -1.52390904527275      0.33069422631438
