13
Coordinates from ORCA-job run
  C   0.31017796953950      0.11663529854089      0.04552487910907
  C   -0.71400987408375     -0.73279867332293     -0.24664501801722
  H   -0.57425946371388     -1.79518279985833     -0.37103294411476
  N   0.21538028083029      1.46452799511171      0.15402745321123
  H   0.96467354580360      1.95361223117102      0.61202027607360
  H   -0.71305335339070      1.85594550131181      0.19951825500431
  C   1.69637021615255     -0.44510825980457      0.17982164542796
  H   1.70516021277410     -1.52600482480350      0.04882015837362
  H   2.10412974804561     -0.21626789124990      1.16899780666518
  H   2.35495130540865      0.00411633027840     -0.56783820421550
  N   -2.07678442653017     -0.33080023398685     -0.37356031102021
  O   -2.37156476995272      0.86998962109988     -0.25001065342233
  O   -2.90317139088307     -1.21666429448763     -0.59964334307494
