13
Coordinates from ORCA-job run
  C   0.30955339681788      0.12488519582906      0.02830511852831
  C   -0.70851574461601     -0.77235413929277     -0.08978853684146
  H   -0.54641096963896     -1.81241782631377     -0.32581942614550
  N   0.18045583215101      1.42761019423485      0.38092446798133
  H   -0.75240665363552      1.81124011135217      0.37853276321309
  H   0.95149982205617      2.04440281285364      0.19239037896888
  C   1.71992060957052     -0.35737224774433     -0.15397729520439
  H   2.20906637350095      0.19981105527005     -0.95860543392136
  H   1.75199655003795     -1.41670666171249     -0.40377594270390
  H   2.29206295530320     -0.19639323224285      0.76318900337895
  N   -2.08993217829383     -0.43790131281872      0.03181957202801
  O   -2.90369722542443     -1.34700326402683     -0.14162657190598
  O   -2.41159276782894      0.73219931461201      0.29943190262402
