13
Coordinates from ORCA-job run
  C   0.32144706140019      0.08866945126683      0.02799151962362
  C   -0.81751661997038     -0.48407351363959     -0.45401430936729
  H   -0.81482544367874     -1.22601071421534     -1.23699463897511
  N   0.38015654230840      1.04121844752391      0.98610876639626
  H   1.27169272420713      1.27598675020675      1.38408336957587
  H   -0.46372237211718      1.24871502615642      1.49655511940822
  C   1.63965363440606     -0.32711749176096     -0.55876574812191
  H   2.21712696780448      0.55274038345952     -0.85374933310630
  H   1.50495737753594     -0.95936731149100     -1.43525456670988
  H   2.22105395573716     -0.88520994341994      0.18090138331190
  N   -2.12648896624855     -0.19276322145298      0.03137315638855
  O   -2.26406375679532      0.61510630093675      0.96580416644042
  O   -3.07047110458918     -0.74789416357039     -0.53403888486433
