13
Coordinates from ORCA-job run
  C   0.17286763558267      0.42993725393303     -0.14557604563866
  C   -1.10458732447474     -0.02632590957268     -0.17632730123058
  H   -1.94082842987566      0.57377514906729     -0.51035975747720
  N   0.45548775676688      1.67764490939874     -0.65367061875945
  H   1.26002690815000      2.14341336896214     -0.26772015355175
  H   -0.32769934164906      2.28999519679313     -0.82231749180279
  C   1.36992242200823     -0.34576146358475      0.32249764638456
  H   1.53415605920198     -1.21367396763175     -0.31596631608325
  H   1.21966675591946     -0.72797571700988      1.33082328774307
  H   2.26186109921164      0.28338435303399      0.29582919220512
  N   -1.51041095853802     -1.34414254772745      0.21202768900072
  O   -0.66677042404199     -2.16747900649254      0.57974109435651
  O   -2.72169215826140     -1.57279161916927      0.15101877485372
