13
Coordinates from ORCA-job run
  C   0.19805435125566      0.42385042270561     -0.13058900432276
  C   -1.07528465272669     -0.00908239369504     -0.30991396710208
  H   -1.85002581594790      0.59722172507978     -0.76063734526897
  N   0.56739277935111      1.65465282649803     -0.62224819027404
  H   1.33219133653541      2.11185391565714     -0.15435289586282
  H   -0.17353028991711      2.27889214258996     -0.90123540110034
  C   1.31102313349151     -0.36402421515963      0.49764908534827
  H   1.53497003466703     -1.24741102446509     -0.10015124147982
  H   2.21241151991584      0.24742161538229      0.57291640423638
  H   1.02785184640426     -0.72358650198018      1.48551045408542
  N   -1.55355863527871     -1.31130432880987      0.04785807217899
  O   -0.77955672241712     -2.14295220008991      0.53178016002485
  O   -2.75293888533330     -1.51753198371308     -0.15758613046309
