13
Coordinates from ORCA-job run
  C   0.31004593827264      0.12559088519730      0.00447617924662
  C   -0.72292955599047     -0.74193895883628     -0.18452901451100
  H   -0.57524426804117     -1.78509246776196     -0.41625355954523
  N   0.19559923718820      1.45753207214116      0.22934290404185
  H   0.99463592079940      1.94272520095931      0.59891169970661
  H   -0.72381471497541      1.80596904451753      0.45425013548329
  C   1.71524916341879     -0.38830750103743     -0.12369921595790
  H   2.26497618411368     -0.22299085585664      0.80776522173220
  H   1.73367367149132     -1.45401412432434     -0.34622122158605
  H   2.23714559268173      0.14539480012969     -0.92199096789852
  N   -2.09962991940952     -0.38695318500452     -0.06687536679146
  O   -2.40480744487407      0.78809009990820      0.19813201948773
  O   -2.92589980467511     -1.28600501003201     -0.23330881340816
