19

C	-0.326648	0.060786	-1.498807
C	0.0	0.0	0.0
Br	-2.274124	0.438431	-1.806037
H	1.100255	0.0	0.0
C	0.48649	1.123301	-2.231296
H	0.224575	2.117481	-1.869227
H	1.544445	0.933128	-2.017972
H	0.301659	1.080855	-3.306088
C	-0.11465	-1.237545	-2.139109
N	0.051042	-2.272716	-2.671323
C	-0.513341	-1.259021	0.682598
H	-0.206024	-1.24772	1.731369
H	-0.097122	-2.160547	0.229107
H	-1.606748	-1.315628	0.643858
C	-0.434457	1.248431	0.761878
H	-1.520032	1.288189	0.889022
H	0.031784	1.223279	1.75012
H	-0.103959	2.168178	0.276825
Br	3.581126	0.0	0.0
