19

C	-0.398402	-0.029836	-1.484876
C	0.0	0.0	0.0
Br	0.215214	1.618025	-2.395972
H	1.097316	0.0	0.0
C	0.246964	-1.197824	-2.228036
H	0.076499	-1.111706	-3.302211
H	-0.182298	-2.13951	-1.881192
H	1.319272	-1.182836	-2.015981
C	-1.853687	-0.045544	-1.641228
N	-3.024607	-0.09685	-1.73769
C	-0.453221	-1.28924	0.693204
H	-0.186506	-1.225438	1.751125
H	0.054431	-2.167547	0.293047
H	-1.537428	-1.435952	0.624174
C	-0.536098	1.210463	0.751734
H	-1.632735	1.21946	0.766215
H	-0.180002	1.171511	1.784404
H	-0.181502	2.144878	0.316821
Br	3.644308	0.0	0.0
