19

C	-0.328206	0.029173	-1.49569
C	0.0	0.0	0.0
Br	-2.308308	0.173629	-1.807704
H	1.100291	0.0	0.0
C	0.348744	1.185548	-2.223655
H	1.418437	1.137106	-1.991229
H	-0.056635	2.137156	-1.880094
H	0.194161	1.108146	-3.301227
C	0.039915	-1.234053	-2.136661
N	0.335051	-2.249713	-2.651857
C	-0.499502	-1.250732	0.708142
H	-1.592829	-1.267691	0.769326
H	-0.094304	-1.268354	1.7231
H	-0.160879	-2.16002	0.206992
C	-0.437744	1.263392	0.733204
H	-1.524477	1.390593	0.715576
H	-0.115691	1.186216	1.774804
H	0.034151	2.157729	0.323284
Br	3.567639	0.0	0.0
