19

C	-0.506037	-0.076642	-1.452021
C	0.0	0.0	0.0
Br	0.368089	-1.580268	-2.396268
H	1.096095	0.0	0.0
C	-2.015931	-0.287143	-1.578126
H	-2.311605	-0.296967	-2.628724
H	-2.545325	0.524921	-1.071622
H	-2.299494	-1.238382	-1.126941
C	-0.144082	1.125777	-2.204523
N	0.045887	2.115406	-2.811201
C	-0.456808	-1.190721	0.838564
H	0.101175	-1.180631	1.778247
H	-1.52558	-1.147556	1.076885
H	-0.239806	-2.140008	0.343988
C	-0.429488	1.312608	0.661141
H	-1.516679	1.39537	0.772401
H	-0.060881	2.180673	0.110348
H	0.015641	1.351735	1.658788
Br	3.600835	0.0	0.0
