19

C	-0.39447	-0.050818	-1.4885
C	0.0	0.0	0.0
Br	0.059053	1.657457	-2.388903
H	1.097317	0.0	0.0
C	0.365021	-1.144907	-2.238664
H	1.431542	-1.018398	-2.032931
H	0.043533	-2.12825	-1.888806
H	0.177534	-1.079762	-3.311591
C	-1.841573	-0.201375	-1.65063
N	-3.002036	-0.369288	-1.745483
C	-0.44851	-1.28631	0.702571
H	-1.538239	-1.402971	0.690838
H	-0.120872	-1.23979	1.74418
H	0.010545	-2.175667	0.268685
C	-0.542957	1.211279	0.744491
H	-0.14376	2.14259	0.344218
H	-0.241285	1.147109	1.79313
H	-1.638362	1.248866	0.705231
Br	3.617759	0.0	0.0
