19

C	-0.337693	0.020444	-1.492875
C	0.0	0.0	0.0
Br	-2.323258	0.101177	-1.792433
H	1.100283	0.0	0.0
C	0.292485	1.201133	-2.224748
H	1.36507	1.192623	-1.999939
H	-0.147323	2.137356	-1.880068
H	0.134552	1.116373	-3.301385
C	0.068192	-1.229208	-2.138851
N	0.39173	-2.233079	-2.658302
C	-0.486049	-1.253344	0.714555
H	-0.155068	-2.161342	0.205741
H	-0.059949	-1.271406	1.720939
H	-1.577735	-1.272528	0.797417
C	-0.443426	1.262217	0.731207
H	-1.529482	1.393694	0.698542
H	-0.138088	1.179264	1.777434
H	0.038751	2.15609	0.33224
Br	3.559707	0.0	0.0
