10
Coordinates from ORCA-job run
  C   -0.95490332599785     -0.23072800483355     -0.49181564333739
  C   0.07765756633878      0.39812732297478      0.41850334827078
  Br  -2.68266813314596      0.57172353262275     -0.12434904200115
  H   -0.14558404184219      0.25223144929843      1.47312053782116
  H   -1.04669473251428     -1.30028128962435     -0.30914482281603
  H   -0.72273017441866     -0.05371163450906     -1.53776507325952
  H   0.19409823613294      1.46347083998927      0.21196395119684
  N   1.42187832978518     -0.22251942307191      0.18160901712058
  O   1.71240364853898     -0.49625861888010     -0.98102183999887
  O   2.14454262712305     -0.38205417396626      1.15989956700361
