10
Coordinates from ORCA-job run
  C   -0.97600682507234     -0.03260069116576     -0.58918014719655
  C   0.19652880932842      0.62050903228325      0.09882501473011
  Br  -1.96029408843718     -1.16795170106197      0.63729967279226
  H   0.71255102927302      1.28888501935404     -0.59646442988713
  H   -0.64068699426231     -0.65740560408773     -1.41348865531252
  H   -1.66718447155251      0.72770973569187     -0.95088711537432
  H   -0.08449695957605      1.15791420568384      1.00170955200763
  N   1.21369004233127     -0.39857268162616      0.50854161548050
  O   1.52678736393384     -1.23253113422148     -0.33598897184316
  O   1.67911209403384     -0.30495618084990      1.63963346460318
