10
Coordinates from ORCA-job run
  C   -0.97697618190089     -0.30006825875480     -0.32766627120713
  C   0.13063076871714      0.52510243343427      0.29870904887980
  Br  -2.66500342554858      0.63006384541026     -0.13277382041372
  H   0.25320850840764      1.48210737265040     -0.20437398492540
  H   -0.80101557068854     -0.44115666050314     -1.39294324770632
  H   -1.07331442701859     -1.26308619572456      0.17133421454182
  H   -0.02051994971567      0.65575806158590      1.36831424754623
  N   1.40955340381314     -0.22902981779197      0.12505465325210
  O   2.03835208292104     -0.02699351833594     -0.91140244938611
  O   1.70508479101330     -1.03369726197041      1.00574760941872
