10
Coordinates from ORCA-job run
  C   -1.13643524586020     -0.03040393323232     -0.09015716745511
  C   0.21968907704846      0.61972287837272      0.02329765301114
  Br  -1.22438331415893     -1.19426075313636     -1.63944275917944
  H   0.51967342997153      1.13930120582230     -0.88392001216981
  H   -1.90526619028454      0.73115508735004     -0.21500877573089
  H   -1.34861874921147     -0.63809492452689      0.78614649686264
  H   0.23572257146022      1.30426860500089      0.87627566144624
  N   1.28112698696066     -0.39790613551720      0.30280128270128
  O   2.32009661519493     -0.31897470560273     -0.34468279585217
  O   1.03939481887933     -1.21580732453045      1.18569041636612
