13
Coordinates from ORCA-job run
  C   -0.78680378076003     -0.96922874290717     -0.52439368652478
  C   0.00128147622023     -0.02932335700274      0.35616214051235
  F   -2.03897385283500     -1.20017413902374      0.04817994140810
  H   0.10028638515261     -0.51752546476246      1.33992552187437
  H   -0.28721790799868     -1.93611672907899     -0.62465376960935
  H   -0.95049546772885     -0.51721452312701     -1.50573135130260
  N   -0.72138238380038      1.23777105940191      0.41846939885648
  H   -1.65546154916886      1.06861049475797      0.77270216397038
  H   -0.26060043652513      1.86559090079822      1.06657111421593
  C   1.38676896703175      0.19990120820010     -0.22754570349551
  H   1.30351842367515      0.65396652389923     -1.21744548133875
  H   1.94764649945776     -0.73500802552636     -0.30589939678835
  H   1.96243362727944      0.87975079437104      0.40565910822172
