13
Coordinates from ORCA-job run
  C   -0.82277332210742     -1.02051426367659     -0.46021544405389
  C   -0.02038997276762     -0.04325163971038      0.37581733008255
  F   -0.90770428035998     -0.60506154612739     -1.77857978834071
  H   0.14213130011460     -0.54949691019303      1.34491126998838
  H   -1.84386326003151     -1.11629201559052     -0.07641083482591
  H   -0.34337823596909     -2.00442575712920     -0.44953431975473
  N   -0.75667118869542      1.21225169855547      0.50348096574432
  H   -1.60560547305881      1.07052839292936      1.03865317849261
  H   -0.19455885080417      1.89055311286760      1.00330548372757
  C   1.33439497870206      0.23610687456395     -0.25699620328719
  H   1.93091590597044      0.89275609684446      0.38200687010870
  H   1.89743636624253     -0.68822412232922     -0.40662923522581
  H   1.19106603276438      0.72407007899549     -1.22080927265588
