13
Coordinates from ORCA-job run
  C   -0.80144024020517     -0.95940251305911     -0.62646522159497
  C   -0.09002449264140     -0.10795234400415      0.40481766542758
  F   -1.98895845648810     -1.46028639887067     -0.12469248611588
  H   -0.04446967599679     -0.69940096099048      1.32586678736870
  H   -1.03643632577212     -0.36398389310144     -1.51631743255756
  H   -0.17782022928278     -1.80936890205352     -0.91877288513450
  N   -0.89742645964136      1.07406618204870      0.69424786508410
  H   -0.51698534670409      1.56449480967242      1.49463006699311
  H   -0.86066143517389      1.71236037557779     -0.09366422085551
  C   1.33265849056328      0.19671539645720     -0.06951112394986
  H   1.31157200523248      0.73311902979515     -1.02399793972829
  H   1.92632795199148     -0.71235453838806     -0.20307076769889
  H   1.84566421411847      0.83099375691616      0.65692969276197
