13
Coordinates from ORCA-job run
  C   -0.79037550620560     -0.90279113160056     -0.52000182017859
  C   0.04290638789841     -0.06971513232545      0.43577224158255
  F   -2.04217790983114     -1.14216065367796      0.04595833736465
  H   0.15545559374073     -0.65188467673771      1.35783085108828
  H   -0.95219821825677     -0.36503202270607     -1.46039347265739
  H   -0.32989133573548     -1.87388771031060     -0.72493332451799
  N   -0.58986829510748      1.19249031253060      0.80649983350215
  H   -1.52657360356788      1.00643658293403      1.14587728687709
  H   -0.68178355958760      1.77850408652557     -0.01722289326109
  C   1.41801888388975      0.19907194350886     -0.15486964713230
  H   1.95333532056590     -0.72844620140537     -0.37169096282030
  H   2.00822160084123      0.78938273570386      0.54661185185629
  H   1.33393064135593      0.76703186756080     -1.08743828170336
