13
Coordinates from ORCA-job run
  C   -0.82240570413539     -0.94113095982211     -0.43500306965848
  C   0.04283415852917     -0.06988593468471      0.46030354737771
  F   -1.06020396899748     -0.27532179455147     -1.63776932304528
  H   0.18866761939339     -0.62478564026603      1.39604295654389
  H   -1.79571933051529     -1.13277165212847      0.02689991281782
  H   -0.33722876872524     -1.89266277573417     -0.67318035279213
  N   -0.57867620562351      1.20872101227967      0.80179081425003
  H   -1.44885430237531      1.05273521162461      1.29854704895722
  H   -0.81105158835273      1.69294572960569     -0.05852892044406
  C   1.40189115739945      0.19247068341110     -0.17449196805006
  H   1.93200395690784     -0.74115142578040     -0.37891557978662
  H   1.28088050993825      0.72522704920177     -1.12037052526844
  H   2.00686246655686      0.80661049684451      0.49267545909840
