13

C	0.0	0.0	0.0
C	-0.465221	-0.636551	-1.310361
Cl	1.775797	0.0	0.0
H	0.029782	-0.138757	-2.144754
H	-0.365618	1.023327	0.04832
H	-0.357918	-0.570913	0.853868
N	-1.860163	-0.73461	-1.559712
H	-2.246872	0.142921	-1.879332
H	-2.42629	-0.997251	-0.756647
N	0.083086	-2.049372	-1.348695
O	0.738323	-2.393212	-2.32741
O	-0.204211	-2.769676	-0.396888
Br	-4.610621	0.0	0.0
