13

C	0.0	0.0	0.0
C	-0.477068	0.509797	-1.355191
Cl	1.778357	0.0	0.0
H	-0.028927	1.482765	-1.561162
H	-0.356838	0.665212	0.784179
H	-0.351239	-1.015722	0.168508
N	-1.870525	0.53449	-1.589707
H	-2.291357	1.433115	-1.409962
H	-2.434532	-0.147178	-1.086597
N	0.140016	-0.394127	-2.418576
O	-0.021676	-1.60257	-2.27268
O	0.703456	0.141598	-3.3694
Br	-4.687084	0.0	0.0
