17

C	-0.481173	0.01612	-1.423054
C	0.0	0.0	0.0
F	0.04559	1.052209	-2.074597
H	1.090652	0.0	0.0
N	-0.063989	-1.240235	-2.209476
O	-0.930737	-2.075326	-2.431707
O	1.09775	-1.248721	-2.574368
N	-1.999553	0.077015	-1.588796
O	-2.652004	-0.482949	-0.720025
O	-2.417721	0.637691	-2.590759
N	-0.431042	-1.197675	0.751799
O	-1.02028	-1.067633	1.817798
O	-0.102048	-2.263716	0.235732
N	-0.442633	1.226531	0.697901
O	-1.263775	1.95892	0.136475
O	0.07833	1.444891	1.785659
F	2.403647	0.0	0.0
