17

C	-0.629038	0.026295	-1.365387
C	0.0	0.0	0.0
F	-1.931572	-0.26819	-1.384608
H	1.08744	0.0	0.0
N	-0.438605	1.381198	-2.043881
O	-1.230898	1.615368	-2.949207
O	0.497242	2.070173	-1.673135
N	0.065973	-0.932611	-2.351585
O	1.23117	-0.666789	-2.59466
O	-0.622215	-1.822829	-2.82311
N	-0.409211	-1.263028	0.66397
O	-0.206111	-2.273905	-0.005525
O	-0.865555	-1.23805	1.800706
N	-0.480421	1.141557	0.817465
O	0.114457	1.339964	1.870053
O	-1.429973	1.808511	0.392575
F	2.408547	0.0	0.0
