17

C	-0.569868	-0.002411	-1.398551
C	0.0	0.0	0.0
F	-1.84508	-0.353939	-1.484857
H	1.08742	0.0	0.0
N	-0.401853	1.368547	-2.043926
O	-1.244774	1.670165	-2.876917
O	0.587686	1.999626	-1.699773
N	0.219653	-0.925055	-2.355326
O	-0.462505	-1.693803	-3.023226
O	1.433196	-0.766357	-2.364028
N	-0.482612	-1.251439	0.668331
O	-1.013316	-1.160591	1.769421
O	-0.20021	-2.279804	0.064176
N	-0.506205	1.151028	0.798065
O	-1.532277	1.713205	0.396103
O	0.196759	1.494148	1.739182
F	2.48081	0.0	0.0
