17

C	-0.578263	0.010369	-1.382489
C	0.0	0.0	0.0
F	-1.870613	0.344432	-1.502631
H	1.087433	0.0	0.0
N	0.183865	0.935031	-2.371466
O	-0.528026	1.72356	-3.002492
O	1.393925	0.723533	-2.49495
N	-0.406563	-1.35433	-2.043812
O	0.56795	-2.011345	-1.71078
O	-1.249701	-1.643839	-2.889118
N	-0.506091	-1.172315	0.753038
O	-1.584674	-1.674193	0.413574
O	0.10281	-1.449627	1.79027
N	-0.444503	1.227969	0.681122
O	-0.299766	2.266305	0.021824
O	-1.026669	1.147886	1.760437
F	2.438353	0.0	0.0
