14
Coordinates from ORCA-job run
  C   -0.56469761500746      0.08362833441540      0.14821594418648
  C   0.80780514515719     -0.37771110206043      0.60141726322987
  Br  -1.65843994781864     -0.25500676570364      2.02878402095896
  H   1.17486916671593      0.24023309603413      1.41730542981146
  H   0.78841987351802     -1.42597166882075      0.88961722004639
  N   -1.10415267425518     -0.72210405190200     -0.84623167612192
  H   -2.02541251442652     -0.43388831562684     -1.14705063416870
  H   -1.10514844386703     -1.70182644393766     -0.60236892666699
  N   -0.60378197740428      1.43549304363537     -0.16724963472111
  H   -0.22909954337580      2.02224347655945      0.56391141350694
  H   -1.51983873376209      1.76131385080407     -0.44461733437965
  N   1.77614402794496     -0.24287810460455     -0.53276497732785
  O   2.36641568203899      0.82979395239253     -0.63186410149641
  O   1.89691755454190     -1.21231930118507     -1.27710400685746
