14
Coordinates from ORCA-job run
  C   -0.54288641240795     -0.01311957275728      0.17711842647814
  C   0.75244309853574     -0.64512688611456     -0.33897779051046
  Br  -0.79103719626442     -0.52753375402158      2.10531940849148
  H   0.78982229283124     -0.49606967284679     -1.41793365729056
  H   0.80379807093484     -1.70295241028042     -0.08541301819090
  N   -1.60518791306241     -0.52431703531518     -0.63513043697742
  H   -2.48933907757219     -0.12082751171688     -0.34742379486903
  H   -1.68208135594081     -1.53295684494196     -0.55892997666814
  N   -0.43370378651848      1.41213361078371      0.17764002361651
  H   -0.34217553859702      1.74761004625377     -0.77546075629143
  H   -1.23343160926720      1.84431923005831      0.62168356477859
  N   1.95788604112686      0.01737698640381      0.22246638858191
  O   2.41438201063954      0.95707424765447     -0.42506773000935
  O   2.40251137556227     -0.41661043315943      1.28110934886067
