14
Coordinates from ORCA-job run
  C   -0.64359239524207      0.05919819405456      0.28575673722219
  C   0.79107836522357     -0.37941425085669      0.61428892296662
  Br  -1.58486984611583     -0.23799682509481      2.08582835313547
  H   0.82245075318229     -1.44640895955543      0.82744575305502
  H   1.21476880947099      0.19600643666576      1.43485382865343
  N   -1.38767206048862     -0.72296404392278     -0.65099468164107
  H   -0.88966095498535     -0.73263624935518     -1.53509643048898
  H   -1.51098427805416     -1.67170372640424     -0.32348722261701
  N   -0.64180768579097      1.38466906554973     -0.15978615518651
  H   -0.16744765559475      2.03252800951454      0.45365407734075
  H   -1.57548401228407      1.69826500169268     -0.38768950758968
  N   1.65173855358422     -0.12782402886112     -0.57799847036647
  O   1.47944400586278     -0.86281600135937     -1.54984461509444
  O   2.44203840123197      0.81009737793235     -0.51793058938934
