14
Coordinates from ORCA-job run
  C   -0.48541586366637      0.11345538981554      0.36297164600340
  C   1.00079122508961      0.32288015932101      0.07139203879708
  Br  -0.70460154519862     -0.63035199187868      2.17769130087262
  H   1.49158495214421      0.77339931806519      0.92919722254518
  H   1.09968774337338      0.95851343123689     -0.81054432693234
  N   -1.03327977604760     -0.83498766426130     -0.55261279293336
  H   -0.71535283824345     -0.69195964725095     -1.50307155612927
  H   -2.04135838083245     -0.88031707987063     -0.49906524808130
  N   -1.05061725844862      1.45472046199736      0.43070720235401
  H   -1.22802638198486      1.77555806598013     -0.51668657898140
  H   -1.92766952978504      1.44779638065607      0.93687764601175
  N   1.69575397734142     -0.95001186061919     -0.25622027740256
  O   2.21213129618849     -1.56949460452916      0.66819794229370
  O   1.68737238006990     -1.29020035866228     -1.43983421841752
