15

C	-0.447171	-0.086436	-1.445457
C	0.0	0.0	0.0
F	0.024878	0.960018	-2.202913
H	1.091073	0.0	0.0
H	-0.001988	-1.002733	-1.84811
C	-1.911521	-0.181877	-1.601858
N	-3.067022	-0.336011	-1.738559
C	-0.475051	-1.189315	0.818155
H	-0.108099	-2.111102	0.361278
H	-1.565917	-1.229889	0.888753
H	-0.046886	-1.119313	1.816811
N	-0.47932	1.254525	0.650075
O	-0.132685	1.43232	1.814264
O	-1.195421	2.019567	0.001615
Br	3.426574	0.0	0.0
