15

C	-0.436699	-0.001815	-1.450293
C	0.0	0.0	0.0
F	-1.825254	0.118537	-1.540851
H	1.094257	0.0	0.0
H	0.003804	0.853762	-1.963937
C	-0.050386	-1.247081	-2.126667
N	0.200842	-2.242181	-2.698274
C	-0.548273	-1.143065	0.820622
H	-0.180308	-2.081287	0.400723
H	-0.186087	-1.066772	1.844103
H	-1.639301	-1.147973	0.829011
N	-0.419088	1.332758	0.554121
O	-0.957266	1.360082	1.6604
O	-0.170853	2.325587	-0.130831
Br	3.395979	0.0	0.0
