15

C	-0.436331	-0.002021	-1.450445
C	0.0	0.0	0.0
F	-1.824864	0.117942	-1.541703
H	1.094232	0.0	0.0
H	0.004107	0.853712	-1.963908
C	-0.049247	-1.246942	-2.126967
N	0.203076	-2.24124	-2.699525
C	-0.548289	-1.143234	0.820437
H	-0.186422	-1.06701	1.844032
H	-1.639329	-1.148075	0.828572
H	-0.180277	-2.081489	0.400585
N	-0.420291	1.332816	0.553387
O	-0.958153	1.360108	1.660059
O	-0.173246	2.325682	-0.132353
Br	3.395905	0.0	0.0
