15

C	-0.436034	-0.091593	-1.448768
C	0.0	0.0	0.0
F	-0.044195	1.011686	-2.171807
H	1.0911	0.0	0.0
H	0.087816	-0.957305	-1.868736
C	-1.885509	-0.301721	-1.628064
N	-3.021638	-0.54499	-1.794233
C	-0.468486	-1.190532	0.820954
H	-0.093961	-2.11139	0.368258
H	-0.039989	-1.114122	1.819851
H	-1.559115	-1.238562	0.888829
N	-0.503218	1.245192	0.644946
O	-0.03747	1.515997	1.746822
O	-1.373255	1.897256	0.064457
Br	3.432561	0.0	0.0
