15

C	-0.432099	-0.107801	-1.449207
C	0.0	0.0	0.0
F	-0.091064	1.022642	-2.157784
H	1.091064	0.0	0.0
H	0.133781	-0.942891	-1.875854
C	-1.868398	-0.385668	-1.639122
N	-2.984771	-0.695981	-1.825474
C	-0.472471	-1.177371	0.836939
H	-1.562658	-1.221767	0.903419
H	-0.09987	-2.105769	0.398275
H	-0.044544	-1.088737	1.835774
N	-0.515117	1.249017	0.622491
O	-1.494931	1.791543	0.106302
O	0.040601	1.624322	1.648674
Br	3.445132	0.0	0.0
