15

C	-0.553435	-0.017546	-1.421683
C	0.0	0.0	0.0
F	-0.332646	-1.28001	-1.956183
H	1.090983	0.0	0.0
H	-1.634703	0.14549	-1.412173
C	0.050115	0.973217	-2.324671
N	0.460674	1.738438	-3.113793
C	-0.480299	-1.188589	0.811548
H	-1.573571	-1.229501	0.866171
H	-0.068228	-1.116016	1.816633
H	-0.10625	-2.101299	0.350262
N	-0.440677	1.260363	0.666186
O	-0.182295	1.38833	1.857784
O	-1.04413	2.097519	-0.014626
Br	3.408557	0.0	0.0
