15

C	-0.55304	-0.058516	-1.419648
C	0.0	0.0	0.0
F	-0.240512	-1.301503	-1.951953
H	1.090965	0.0	0.0
H	-1.643467	0.027229	-1.411489
C	-0.02186	0.978155	-2.318359
N	0.331026	1.779488	-3.099253
C	-0.472591	-1.171025	0.843006
H	-0.113935	-2.094819	0.390615
H	-1.564804	-1.202011	0.920777
H	-0.037511	-1.084179	1.837814
N	-0.454185	1.267842	0.640022
O	-1.196026	2.016014	-0.007083
O	-0.076262	1.481544	1.785566
Br	3.417719	0.0	0.0
