15

C	-0.398384	0.010658	-1.470832
C	0.0	0.0	0.0
Cl	0.206606	1.495361	-2.273227
H	1.094964	0.0	0.0
H	0.093109	-0.822018	-1.96837
C	-1.844511	-0.07071	-1.682088
N	-3.008581	-0.140845	-1.824685
N	-0.405517	-1.302741	0.559653
O	-0.54314	-1.394054	1.780729
O	-0.52482	-2.262755	-0.213194
C	-0.54188	1.136818	0.831669
H	-0.12845	1.065642	1.835953
H	-1.636035	1.133795	0.896766
H	-0.208197	2.07941	0.397577
F	2.510127	0.0	0.0
