15

C	-0.332782	0.027454	-1.463784
C	0.0	0.0	0.0
Cl	-2.112992	0.16034	-1.826313
H	1.093533	0.0	0.0
H	0.102797	0.953195	-1.84482
C	0.22139	-1.059857	-2.268641
N	0.658075	-1.85199	-3.017108
N	-0.49274	-1.211937	0.662134
O	-0.708884	-2.214672	-0.024043
O	-0.622108	-1.18248	1.889144
C	-0.41971	1.247461	0.746162
H	0.035044	1.234442	1.734719
H	-0.027561	2.116497	0.212017
H	-1.504738	1.344333	0.849388
F	2.490449	0.0	0.0
