15

C	-0.465049	0.017139	-1.447818
C	0.0	0.0	0.0
Cl	0.251125	1.415585	-2.311733
H	1.093312	0.0	0.0
H	-0.095057	-0.872629	-1.951753
C	-1.921238	0.090082	-1.585137
N	-3.089533	0.183663	-1.668646
N	-0.417248	-1.280894	0.600559
O	-0.344801	-1.38794	1.825115
O	-0.766947	-2.206106	-0.146528
C	-0.490053	1.156008	0.843421
H	-1.578389	1.15665	0.973885
H	-0.011549	1.101937	1.819373
H	-0.183732	2.089916	0.370888
F	2.511401	0.0	0.0
