15

C	-0.434321	-0.053271	-1.443272
C	0.0	0.0	0.0
F	-1.80718	-0.345023	-1.571543
H	1.096489	0.0	0.0
H	0.107961	-0.851239	-1.962031
C	-0.204053	1.214463	-2.154332
N	-0.052061	2.188469	-2.790538
C	-0.436965	-1.262184	0.73147
H	0.030534	-1.271595	1.71966
H	-0.104709	-2.160644	0.202203
H	-1.52552	-1.310365	0.845638
N	-0.453065	1.236282	0.633104
H	-1.217882	1.057243	1.271579
H	0.326524	1.61099	1.162958
H	2.876685	0.0	0.0
