15

C	-0.473681	-0.031231	-1.441447
C	0.0	0.0	0.0
F	-0.229489	-1.260349	-2.04626
H	1.100356	0.0	0.0
H	0.065306	0.736927	-2.001412
C	-1.92784	0.222035	-1.537812
N	-3.087268	0.390676	-1.619689
C	-0.517099	-1.172661	0.809162
H	-0.236424	-2.118021	0.340699
H	-1.609347	-1.146029	0.919945
H	-0.060353	-1.142831	1.801704
N	-0.392457	1.317439	0.510256
H	0.401501	1.698524	1.014677
H	-1.173859	1.24023	1.151346
H	2.894908	0.0	0.0
