15

C	-0.436602	-0.044507	-1.443178
C	0.0	0.0	0.0
F	-1.805443	-0.343984	-1.572256
H	1.096394	0.0	0.0
H	0.109593	-0.835613	-1.967128
C	-0.213581	1.22937	-2.143602
N	-0.051253	2.234867	-2.725722
C	-0.43487	-1.26976	0.719474
H	0.036262	-1.289277	1.705176
H	-0.105364	-2.163227	0.180352
H	-1.522574	-1.318546	0.836958
N	-0.454355	1.229833	0.644702
H	0.328486	1.609427	1.166587
H	-1.210297	1.044656	1.288834
H	2.874941	0.0	0.0
