15

C	-0.543933	0.005113	-1.409698
C	0.0	0.0	0.0
F	-0.120617	1.139719	-2.098624
H	1.101883	0.0	0.0
H	-1.639723	0.057795	-1.376173
C	-0.156277	-1.181433	-2.191824
N	0.072211	-2.135308	-2.836363
C	-0.497308	-1.217279	0.755174
H	-1.591514	-1.233696	0.821523
H	-0.088641	-1.193033	1.769481
H	-0.140554	-2.14029	0.291909
N	-0.522104	1.22815	0.63523
H	-0.03923	1.998391	0.179445
H	-0.149439	1.225404	1.581135
H	2.952054	0.0	0.0
