17

C	0.0	0.0	0.0
C	-0.698165	-0.040236	-1.339771
Br	1.933639	0.0	0.0
H	-1.817213	0.079504	-0.950913
N	-0.347345	1.329627	0.693587
O	-0.478713	2.315153	-0.024222
O	-0.417914	1.331354	1.916853
C	-0.485207	-1.135855	0.866177
H	-0.064633	-1.062048	1.867148
H	-0.204194	-2.074885	0.394168
H	-1.581529	-1.042728	0.890342
N	-0.575838	-1.370541	-1.934457
H	0.215814	-1.39045	-2.569041
H	-1.418508	-1.558398	-2.466722
C	-0.334485	0.994881	-2.297473
N	-0.052193	1.707681	-3.192947
H	-3.051604	0.0	0.0
