17

C	0.0	0.0	0.0
C	-0.494028	-0.01367	-1.529801
Br	1.933563	0.0	0.0
H	-1.556125	0.029674	-1.606084
N	-0.403107	1.338431	0.423246
O	-1.758655	1.689226	0.626081
O	0.263594	1.841013	1.489912
C	-0.366759	-1.321507	0.85711
H	-0.032249	-2.211971	0.352229
H	-1.440101	-1.345953	0.89268
H	-0.004816	-1.155884	1.865673
N	-0.078429	-1.257714	-2.164923
H	0.908836	-1.203141	-2.358998
H	-0.613103	-1.34022	-3.016855
C	-0.084568	1.251555	-2.179173
N	0.239988	2.205848	-2.76612
H	-1.753449	0.0	0.0
