17

C	0.0	0.0	0.0
C	-0.265145	-0.091244	-1.577851
Br	1.944225	0.0	0.0
H	0.520558	0.52576	-2.012986
N	-0.559969	1.251317	0.514457
O	-0.534766	2.229532	-0.280407
O	-0.611084	1.384465	1.755773
C	-0.279885	-1.180499	0.938568
H	0.278784	-1.029978	1.862851
H	-1.340029	-1.252567	1.161508
H	0.063405	-2.102035	0.464545
N	-1.487568	0.36059	-2.226328
H	-1.549364	1.343409	-1.974764
H	-2.258877	-0.07786	-1.728143
C	-0.004377	-1.475794	-1.995133
N	0.186346	-2.583714	-2.33567
H	-2.098705	0.0	0.0
