16

C	-0.406627	-0.086022	-1.46726
C	0.0	0.0	0.0
Br	-0.22444	1.700936	-2.326252
H	1.093628	0.0	0.0
H	-0.288239	-0.977377	0.421973
N	0.470017	-0.953588	-2.241375
H	0.425056	-1.868261	-1.796918
H	1.43169	-0.636455	-2.107706
N	-1.793676	-0.460148	-1.606428
H	-1.956617	-0.69093	-2.581633
H	-1.950181	-1.294498	-1.049328
C	-0.608547	1.116786	0.830045
H	-0.176472	2.078796	0.552844
H	-0.39552	0.949791	1.889902
H	-1.691811	1.168146	0.690819
Br	3.671624	0.0	0.0
