16

C	-0.331325	0.019513	-1.472916
C	0.0	0.0	0.0
Br	-2.41209	0.653621	-1.62173
H	1.097175	0.0	0.0
H	-0.326756	0.949733	0.425191
N	0.389372	1.048194	-2.115518
H	0.313638	1.001625	-3.123509
H	1.366014	0.99318	-1.822955
N	-0.264598	-1.244882	-2.082652
H	-0.895429	-1.9072	-1.653013
H	-0.452578	-1.193494	-3.075589
C	-0.540686	-1.182068	0.782887
H	-0.077889	-2.113944	0.449937
H	-0.291013	-1.064293	1.839524
H	-1.628937	-1.260987	0.696458
Br	3.633698	0.0	0.0
