16

C	-0.269989	-0.076125	-1.49039
C	0.0	0.0	0.0
Br	-2.357509	-0.635218	-1.729572
H	1.097103	0.0	0.0
H	-0.364542	0.94991	0.404014
N	-0.036904	1.129886	-2.12458
H	-0.167806	1.071441	-3.123068
H	-0.500075	1.922314	-1.706401
N	0.422312	-1.103871	-2.214476
H	1.415398	-0.953369	-2.020869
H	0.16356	-2.011925	-1.847741
C	-0.471048	-1.168352	0.849387
H	-0.161538	-2.120785	0.411971
H	0.000355	-1.103246	1.833009
H	-1.555001	-1.184052	0.969636
Br	3.616798	0.0	0.0
