16

C	-0.459456	0.029342	-1.448392
C	0.0	0.0	0.0
Br	0.098112	-1.749311	-2.311578
H	1.092937	0.0	0.0
H	-0.309942	0.977283	0.396882
N	-1.861451	0.223187	-1.574384
H	-2.364483	-0.516885	-1.101943
H	-2.105061	0.213891	-2.557737
N	0.198744	1.029141	-2.252877
H	1.204712	0.915039	-2.141462
H	-0.052465	1.926909	-1.846805
C	-0.549129	-1.106267	0.888583
H	-0.10817	-1.019072	1.884609
H	-0.285169	-2.088473	0.495114
H	-1.637988	-1.051947	1.0034
Br	3.698221	0.0	0.0
