16

C	-0.398192	-0.161758	-1.465202
C	0.0	0.0	0.0
Br	-0.29161	1.736129	-2.355342
H	1.092804	0.0	0.0
H	-0.299644	-0.953441	0.458323
N	0.471719	-1.069387	-2.066347
H	1.445379	-0.887462	-1.834077
H	0.318871	-1.13949	-3.062742
N	-1.757063	-0.553509	-1.77433
H	-1.906802	-1.451842	-1.323789
H	-2.404305	0.122997	-1.389409
C	-0.592076	1.158124	0.780475
H	-0.159702	2.105478	0.463114
H	-0.375712	1.026283	1.843453
H	-1.679557	1.221192	0.664078
Br	3.649768	0.0	0.0
