16

C	-0.363969	0.172437	-1.46892
C	0.0	0.0	0.0
Br	-0.280386	-1.70609	-2.344591
H	1.091633	0.0	0.0
H	-0.384554	-0.946364	0.378114
N	-1.750744	0.545106	-1.686106
H	-1.814734	1.536111	-1.465509
H	-1.980908	0.43112	-2.666873
N	0.564513	1.049126	-2.066483
H	0.475596	1.088832	-3.073511
H	1.523967	0.827925	-1.798846
C	-0.496828	1.171499	0.843799
H	-1.588764	1.19891	0.899176
H	-0.103604	1.07669	1.858969
H	-0.130619	2.117897	0.439156
Br	3.671179	0.0	0.0
