16

C	-0.378832	-0.056524	-1.479547
C	0.0	0.0	0.0
Br	-0.116087	1.876769	-2.176014
H	1.092084	0.0	0.0
H	-0.371418	0.910879	0.474362
N	0.492197	-0.849027	-2.304376
H	1.457287	-0.600751	-2.089433
H	0.356731	-1.818138	-2.031418
N	-1.709816	-0.482232	-1.710201
H	-2.368054	0.102106	-1.211323
H	-1.905105	-0.444953	-2.703164
C	-0.465289	-1.241107	0.761645
H	-0.115316	-2.153348	0.272716
H	-0.030143	-1.226198	1.764029
H	-1.552802	-1.302896	0.848493
Br	3.661967	0.0	0.0
