13

C	0.0	0.0	0.0
C	-0.279847	0.05263	-1.517769
Cl	1.770349	0.0	0.0
H	0.108359	-0.898387	-1.882669
H	0.398437	0.818196	-1.88621
N	-0.371219	1.30121	0.713203
O	-0.386359	2.302214	0.015407
O	-0.431341	1.236863	1.931558
C	-0.425077	-1.167378	0.749036
N	-0.675525	-2.173631	1.3096
C	-1.547232	0.293189	-2.210393
N	-2.185013	0.493658	-3.181725
Br	-3.175315	0.0	0.0
