18

C	-0.111055	0.097249	-1.538537
C	0.0	0.0	0.0
Cl	-1.632197	0.936195	-2.130767
H	1.093146	0.0	0.0
N	1.022047	0.757527	-1.97381
H	1.856212	0.496215	-1.382726
H	1.171954	0.679791	-2.968457
N	-0.285557	-1.331604	-2.197873
O	0.638263	-1.710037	-2.909642
O	-1.318239	-1.947188	-1.972844
N	-0.492062	-1.27548	0.563066
O	-1.469767	-1.251612	1.316795
O	0.142433	-2.291259	0.279837
C	-0.557416	1.199212	0.719736
H	-0.241339	1.166694	1.764273
H	-0.134098	2.0915	0.257057
H	-1.645152	1.243081	0.678202
F	2.651853	0.0	0.0
