18

C	-0.163135	0.082093	-1.512071
C	0.0	0.0	0.0
Cl	-1.741388	0.735925	-2.073888
H	1.091056	0.0	0.0
N	0.907248	0.886346	-1.955515
H	1.014908	0.865378	-2.960971
H	1.769722	0.616413	-1.421591
N	-0.027101	-1.339741	-2.15166
O	-0.54643	-1.545438	-3.244586
O	0.742392	-2.096625	-1.574407
N	-0.621821	-1.179465	0.624854
O	-0.251633	-1.457699	1.764351
O	-1.519372	-1.771605	0.020904
C	-0.479608	1.24294	0.725292
H	-0.082894	1.223087	1.742089
H	-1.573003	1.306662	0.753316
H	-0.079363	2.115846	0.207066
F	2.627653	0.0	0.0
