18

C	-0.18496	0.191969	-1.51163
C	0.0	0.0	0.0
Cl	-1.758173	0.92785	-1.930646
H	1.094332	0.0	0.0
N	0.889036	0.993973	-2.032707
H	1.729923	0.728769	-1.477337
H	0.679098	1.969097	-1.866672
N	-0.063615	-1.147297	-2.286218
O	1.065244	-1.613546	-2.273537
O	-1.037348	-1.613263	-2.85979
N	-0.578064	-1.213748	0.603904
O	-0.859637	-1.166393	1.804502
O	-0.70533	-2.228856	-0.083524
C	-0.407075	1.228308	0.792137
H	-0.034234	2.119412	0.284226
H	-1.489959	1.311451	0.913263
H	0.061475	1.183742	1.773409
F	2.574153	0.0	0.0
