18

C	-0.522017	0.030753	-1.424424
C	0.0	0.0	0.0
Cl	0.160793	-1.435212	-2.286933
H	1.086986	0.0	0.0
N	-1.913166	0.184103	-1.580385
H	-2.373713	-0.522356	-1.020118
H	-2.169241	0.112198	-2.557195
N	0.086378	1.211072	-2.200136
O	-0.335445	1.348232	-3.346614
O	0.89764	1.932546	-1.645016
N	-0.440889	-1.278343	0.645205
O	0.357475	-1.845672	1.382739
O	-1.605818	-1.674761	0.470587
C	-0.528049	1.122086	0.879118
H	-0.196053	2.075783	0.473534
H	-0.074047	1.009732	1.86656
H	-1.61801	1.118386	0.965743
F	2.543082	0.0	0.0
