18

C	-0.418515	0.015216	-1.435728
C	0.0	0.0	0.0
Cl	-2.176629	-0.546856	-1.578252
H	1.091945	0.0	0.0
N	-0.213795	1.29149	-2.029976
H	-0.793524	2.005693	-1.58976
H	-0.400394	1.258181	-3.032343
N	0.46027	-0.936967	-2.298289
O	-0.054485	-1.516854	-3.262462
O	1.627997	-1.005439	-1.956503
N	-0.395459	-1.29216	0.587073
O	-0.882114	-1.291274	1.726565
O	-0.08437	-2.326253	-0.013421
C	-0.535764	1.142934	0.768038
H	-0.28573	1.038187	1.825839
H	-0.092319	2.092163	0.439893
H	-1.629835	1.220917	0.745465
F	2.496682	0.0	0.0
