18

C	-0.151697	0.261088	-1.514162
C	0.0	0.0	0.0
Cl	-1.692147	1.067284	-1.948854
H	1.093072	0.0	0.0
N	0.947555	1.032649	-1.998628
H	0.763511	2.012321	-1.828305
H	1.777627	0.7383	-1.441805
N	-0.122699	-1.085005	-2.284681
O	-1.179333	-1.680361	-2.462046
O	0.988036	-1.464196	-2.621961
N	-0.552759	-1.276053	0.4932
O	-0.103063	-2.317234	0.010729
O	-1.396376	-1.243177	1.398181
C	-0.465984	1.164377	0.842403
H	-0.095888	1.029919	1.859402
H	-0.01991	2.078248	0.446456
H	-1.550395	1.26823	0.869068
F	2.596693	0.0	0.0
