18

C	-0.532221	0.036546	-1.421414
C	0.0	0.0	0.0
Cl	0.143142	-1.425552	-2.297034
H	1.086973	0.0	0.0
N	-1.924953	0.190153	-1.565094
H	-2.379224	-0.517416	-1.001522
H	-2.188901	0.119689	-2.539114
N	0.072826	1.217989	-2.196109
O	-0.377302	1.378183	-3.328946
O	0.912559	1.917732	-1.652519
N	-0.446111	-1.279385	0.642168
O	0.35747	-1.866745	1.355852
O	-1.619003	-1.658817	0.486799
C	-0.524504	1.123338	0.879873
H	-0.071326	1.011503	1.86748
H	-0.188996	2.075638	0.473116
H	-1.61439	1.123964	0.965442
F	2.546253	0.0	0.0
