18

C	-0.117431	0.017991	-1.530348
C	0.0	0.0	0.0
Cl	-0.575292	1.83249	-2.11995
H	1.092687	0.0	0.0
N	1.0301	-0.436325	-2.07264
H	1.107443	-0.449109	-3.075743
H	1.876246	-0.289296	-1.46254
N	-1.360394	-0.671665	-2.099768
O	-2.377754	-0.633818	-1.420169
O	-1.255622	-1.184983	-3.207617
N	-0.392575	-1.346599	0.512308
O	-0.642297	-1.448518	1.713281
O	-0.369591	-2.299819	-0.262241
C	-0.609389	1.116918	0.805431
H	-1.66382	1.26149	0.566638
H	-0.503791	0.883552	1.862543
H	-0.066201	2.034732	0.598071
F	2.642992	0.0	0.0
