13

C	0.0	0.0	0.0
C	-0.518114	-0.3532	-1.384169
F	1.413246	0.0	0.0
H	0.225318	-0.996316	-1.864782
H	-0.285194	-0.76844	0.721563
H	-1.454637	-0.904133	-1.253317
N	-0.503148	1.245798	0.413551
H	-0.216065	1.965101	-0.234952
H	-0.26221	1.472151	1.365564
N	-0.708205	0.863581	-2.184451
H	-0.704191	0.614854	-3.165317
H	-1.642039	1.199696	-1.966665
Cl	-4.097508	0.0	0.0
