13

C	0.0	0.0	0.0
C	-0.277897	-0.304296	-1.491594
F	1.38729	0.0	0.0
H	0.381328	0.389891	-2.030853
H	-0.34485	-0.796363	0.662975
H	0.104261	-1.310983	-1.693322
N	-0.506774	1.2413	0.493889
H	-1.492189	1.099533	0.71243
H	-0.464592	1.939	-0.241101
N	-1.610979	-0.186465	-2.036331
H	-1.972155	0.742158	-1.857217
H	-2.267509	-0.769194	-1.527762
Cl	-4.057481	0.0	0.0
