13

C	0.0	0.0	0.0
C	-0.421145	-0.343259	-1.425842
F	1.411873	0.0	0.0
H	0.015522	-1.316113	-1.674526
H	-0.317031	-0.758371	0.718727
H	0.079452	0.390651	-2.073645
N	-0.51411	1.253943	0.394877
H	-0.294969	1.482561	1.35278
H	-0.197287	1.987238	-0.224599
N	-1.836735	-0.350862	-1.724534
H	-2.334843	-1.032788	-1.164199
H	-2.265325	0.521158	-1.437176
Cl	-4.766612	0.0	0.0
