13

C	0.0	0.0	0.0
C	-0.411003	-0.236893	-1.440964
F	1.415118	0.0	0.0
H	-0.029205	-1.216084	-1.770883
H	-0.321057	-0.833185	0.629291
H	-1.502427	-0.260554	-1.449363
N	-0.468843	1.222673	0.56202
H	-0.440138	1.912218	-0.182501
H	-1.453541	1.074597	0.780748
N	0.065479	0.880646	-2.261371
H	-0.412847	0.881125	-3.151628
H	1.056794	0.772777	-2.431008
Cl	-3.691219	0.0	0.0
