13

C	0.0	0.0	0.0
C	-0.425635	-0.161033	-1.452888
F	1.390947	0.0	0.0
H	-1.514324	-0.19976	-1.49766
H	-0.29317	-0.880705	0.587171
H	-0.032478	-1.118988	-1.809693
N	-0.476571	1.2448	0.531022
H	-0.274694	1.276823	1.524402
H	-1.49543	1.201417	0.441948
N	0.075292	0.902686	-2.326303
H	-0.355836	1.766374	-2.016736
H	1.064512	1.00999	-2.125704
Cl	-3.651197	0.0	0.0
