18
Coordinates from ORCA-job run
  C   0.79672063929395     -0.15718916667858     -0.27711152056079
  C   -0.68428259002881      0.15942815696120     -0.54780782578519
  Br  1.87356444692100      1.01544416829548     -1.54138819776537
  H   -0.91145485870712     -0.14349486303010     -1.57219788587517
  N   0.97917154023558     -1.53472351710152     -0.57222629546104
  H   0.80026134654819     -1.74107348520976     -1.54786050234293
  H   1.91802820238451     -1.83676411735749     -0.34312241373889
  C   1.30001083755093      0.14619884222066      1.12088514801442
  H   1.15199642919529      1.19135268441218      1.37821037194527
  H   0.77235322908587     -0.48496532948744      1.83956597541309
  H   2.36681072764928     -0.08076168280748      1.17684110514126
  N   -0.96764471545108      1.63084542326810     -0.53901312714588
  O   -0.80603911294246      2.22953662179789      0.52272201706804
  O   -1.38409369265828      2.12622902856373     -1.58271234372176
  C   -1.62496159539897     -0.50828047430074      0.44330599837287
  H   -1.49784516240204     -0.08624920464504      1.43974950702798
  H   -1.42209385099229     -1.57800402730729      0.47132859578465
  H   -2.65950182028354     -0.34852905759378      0.13083139362944
