18
Coordinates from ORCA-job run
  C   0.84048057642119     -0.02438171423168     -0.10782062818855
  C   -0.70925952095145      0.01044700693454     -0.23017006397764
  Br  1.47851254288166      1.84353843652376      0.04161204944007
  H   -0.99777289617620     -1.00644141199953     -0.51805020441093
  N   1.53444873467305     -0.61915308071390     -1.21446453874890
  H   1.44627019283848     -1.62866991317753     -1.17056999758883
  H   1.16267571495979     -0.29863318271614     -2.10028775727147
  C   1.24521804221366     -0.75489024128992      1.16315089691156
  H   2.33220256722432     -0.83877354324693      1.17740992918845
  H   0.81212032153535     -1.76238489631111      1.16358049651862
  H   0.92122391572376     -0.23144204457825      2.06018746848256
  N   -1.10627910630125      0.84205025223926     -1.42005045634778
  O   -0.85052032443582      0.36897399483538     -2.52991784499256
  O   -1.63379546802590      1.93120665182506     -1.22189414143375
  C   -1.47011900001142      0.46175604739980      0.99830635075377
  H   -1.35325822690574     -0.27362739686545      1.79485311333314
  H   -1.11897914595463      1.43289217501798      1.34432252280212
  H   -2.53316891970884      0.54653286035466      0.76980280553015
