18
Coordinates from ORCA-job run
  C   0.79309109519449      0.06764814857678     -0.06924846003142
  C   -0.74080283279395     -0.01705367457089     -0.14760765490413
  Br  1.37850026436731      1.87015615807668      0.49436385714318
  H   -0.97150723973047     -1.07128069469751     -0.33172939651826
  N   1.32751329736885     -0.13948147201457     -1.38940260706202
  H   0.91858219627088     -0.95798529767585     -1.82733482450331
  H   2.33519509482211     -0.23185223778971     -1.36004017641512
  C   1.31147540613663     -0.90391596536269      0.98901491877204
  H   1.01347433750282     -1.92185907153414      0.71535288586946
  H   2.40188704227260     -0.85933487956011      1.01728334911205
  H   0.94108288680199     -0.67652689763470      1.98909257502293
  N   -1.21908132882157      0.66499337706058     -1.39830846244068
  O   -1.39958008223818     -0.05501325631559     -2.37993095780253
  O   -1.39414769291112      1.87763383195864     -1.35500984538751
  C   -1.52179100772644      0.49703341004456      1.04326015967637
  H   -1.36847054966775      1.56626810437884      1.17045315994940
  H   -2.58685832666951      0.31189066217120      0.88749784430990
  H   -1.21756256017869     -0.02132024511153      1.95329363520965
