18
Coordinates from ORCA-job run
  C   0.78658649303779     -0.10866174051662     -0.38260003494595
  C   -0.71111115897491      0.19548273555699     -0.57254067704822
  Br  1.76804164441381      0.90641141914940     -1.75271493452950
  H   -0.94777085338366     -0.00709963225852     -1.61640898084813
  N   0.93864667552181     -1.52212317228967     -0.72195551183101
  H   1.88224432012513     -1.69344306616308     -1.04861332755010
  H   0.80830753437981     -2.07166174848532      0.12255341435514
  C   1.37261540157747      0.26118549049205      0.97198798051806
  H   2.42368460084572     -0.03312979578191      0.99150432500313
  H   1.29800042539380      1.32551473427527      1.18491208229336
  H   0.84608815191698     -0.28474122289544      1.76073400690945
  N   -1.01371688370846      1.65079318714245     -0.38089833400745
  O   -0.94757406134710      2.09489636567512      0.76572023950280
  O   -1.33226826736301      2.29597709356067     -1.37699559039165
  C   -1.61502098940876     -0.60415016642802      0.35200638743092
  H   -1.49517414423356     -1.66822283002790      0.14823587409319
  H   -1.40658054639928     -0.39392612130335      1.40053109946269
  H   -2.65699834239358     -0.34210152970213      0.15554198158328
