18
Coordinates from ORCA-job run
  C   0.87801904162902     -0.08271222203590     -0.31587852910453
  C   -0.62494022941972      0.17639759831672     -0.57475826982675
  Br  1.86797297605541      1.08143237560040     -1.57426545445720
  H   -0.82944522222318     -0.08314309868321     -1.61564598919055
  N   1.24286983523149     -1.43679312172692     -0.64226417925529
  H   0.96525496745345     -2.07607598706680      0.09202636901865
  H   0.86305627185481     -1.73717651311848     -1.53182039774357
  C   1.35946147490743      0.22507645168761      1.08962348484026
  H   2.42712783631182      0.01118588581083      1.14003647140798
  H   1.17885183121503      1.26239689227813      1.35856970959708
  H   0.84175772104387     -0.41566885384347      1.81052617236937
  N   -0.98917075721794      1.62918167539469     -0.48866745142940
  O   -1.38551241576743      2.17057271996911     -1.51754754008732
  O   -0.89623119861400      2.16858029163083      0.61316948693925
  C   -1.54540021404932     -0.58256793265179      0.36879152196138
  H   -1.42449172158666     -0.23704186608141      1.39479547254003
  H   -2.58467266380310     -0.42220113478060      0.07333799695895
  H   -1.34550753302097     -1.65344316069974      0.31797112546165
