14

C	-0.41026	-0.087849	-1.467198
C	0.0	0.0	0.0
Br	-2.345218	-0.413504	-1.692546
H	1.102338	0.0	0.0
H	0.080137	-0.939413	-1.945956
C	-0.083615	1.12872	-2.197581
N	0.162096	2.105835	-2.800437
N	-0.488688	-1.18646	0.720938
H	-0.225644	-2.018324	0.198316
H	0.060876	-1.227084	1.576396
N	-0.48483	1.215722	0.603802
H	-1.324719	1.013188	1.131549
H	0.22324	1.597812	1.214516
Br	3.515597	0.0	0.0
