14

C	-0.593204	0.011002	-1.412546
C	0.0	0.0	0.0
Br	-0.078279	1.594271	-2.456164
H	1.099877	0.0	0.0
H	-1.680494	0.07126	-1.314306
C	-0.246274	-1.180125	-2.176113
N	0.021328	-2.142708	-2.793358
N	-0.464296	-1.237004	0.607042
H	0.305728	-1.691402	1.080075
H	-1.202831	-1.023939	1.265912
N	-0.539598	1.150116	0.737212
H	0.010137	1.210897	1.590278
H	-0.31593	1.995012	0.219761
Br	3.560028	0.0	0.0
