14

C	-0.533269	0.066617	-1.441913
C	0.0	0.0	0.0
Br	0.084278	1.65266	-2.407834
H	1.094209	0.0	0.0
H	-1.620906	0.172593	-1.386218
C	-0.208892	-1.122212	-2.217813
N	-0.055282	-2.12629	-2.807876
N	-0.437653	-1.218235	0.649421
H	0.165746	-1.985324	0.377609
H	-1.40029	-1.442279	0.416961
N	-0.581594	1.125842	0.729748
H	-0.397509	0.922277	1.706996
H	-0.04813	1.96059	0.503424
Br	3.581646	0.0	0.0
