13

C	-0.346449	-0.096464	-1.500658
C	0.0	0.0	0.0
Cl	-0.080395	1.564194	-2.254561
H	1.097549	0.0	0.0
H	-1.408106	-0.283621	-1.666251
N	0.450614	-1.124559	-2.039099
H	0.321955	-1.227107	-3.03617
H	1.435101	-0.973358	-1.819222
C	-0.468148	-1.211673	0.674557
N	-0.850518	-2.173405	1.229641
C	-0.540362	1.177608	0.668619
N	-0.995574	2.100957	1.233459
Br	3.364409	0.0	0.0
