13

C	-0.346009	-0.103243	-1.500554
C	0.0	0.0	0.0
Cl	-0.083185	1.555751	-2.260949
H	1.097526	0.0	0.0
H	-1.407593	-0.292511	-1.665145
N	0.453129	-1.131537	-2.034652
H	1.437072	-0.977621	-1.81491
H	0.324835	-1.239383	-3.031031
C	-0.471382	-1.208167	0.678659
N	-0.883361	-2.162928	1.224475
C	-0.540023	1.180971	0.663082
N	-0.995318	2.107495	1.222714
Br	3.36491	0.0	0.0
