13

C	-0.440492	0.020286	-1.472641
C	0.0	0.0	0.0
Cl	0.024917	-1.5112	-2.251436
H	1.09703	0.0	0.0
H	0.166519	0.788803	-1.964508
N	-1.872143	0.180499	-1.587781
H	-2.138483	1.071317	-1.180594
H	-2.133581	0.188541	-2.566909
C	-0.533071	-1.148315	0.727483
N	-0.950138	-2.069635	1.323312
C	-0.446764	1.245524	0.626845
N	-0.848179	2.259435	1.06399
Br	3.34821	0.0	0.0
