13

C	-0.534188	-0.01871	-1.447225
C	0.0	0.0	0.0
Cl	0.153458	1.363035	-2.337863
H	1.09698	0.0	0.0
H	-1.616175	0.172484	-1.423466
N	-0.140725	-1.239854	-2.097214
H	-0.433587	-1.227898	-3.065466
H	-0.559587	-2.036185	-1.630809
C	-0.474965	-1.204849	0.682114
N	-0.886014	-2.19541	1.162674
C	-0.489737	1.182949	0.70758
N	-0.91331	2.128026	1.260988
Br	3.366756	0.0	0.0
