13

C	-0.448371	-0.010096	-1.469181
C	0.0	0.0	0.0
Cl	0.087782	-1.521135	-2.239193
H	1.09596	0.0	0.0
H	0.113357	0.786495	-1.97113
N	-1.889216	0.075844	-1.572654
H	-2.196368	0.962929	-1.186916
H	-2.159665	0.044524	-2.54838
C	-0.519418	-1.145864	0.743166
N	-0.916452	-2.067732	1.351743
C	-0.457015	1.249351	0.611104
N	-0.839966	2.275989	1.035229
Br	3.357625	0.0	0.0
