17

C	-0.516427	-0.067206	-1.434629
C	0.0	0.0	0.0
Br	0.150574	1.640797	-2.350101
H	1.093068	0.0	0.0
C	0.130598	-1.214684	-2.177215
H	-0.143536	-1.193175	-3.235813
H	1.21455	-1.136799	-2.070393
H	-0.211025	-2.143029	-1.717708
N	-1.936417	-0.12234	-1.482558
H	-2.337161	0.704467	-1.052673
H	-2.255722	-0.169729	-2.443596
N	-0.323004	-1.252984	0.685297
H	-1.196483	-1.192188	1.19108
H	0.43947	-1.439565	1.331414
C	-0.52873	1.168391	0.704072
N	-1.006175	2.051588	1.319332
H	2.72468	0.0	0.0
