17

C	-0.467556	0.003507	-1.456673
C	0.0	0.0	0.0
Br	0.247469	-1.722203	-2.325035
H	1.095297	0.0	0.0
C	-1.974589	-0.094076	-1.612718
H	-2.331421	-1.011815	-1.140878
H	-2.445767	0.778693	-1.145505
H	-2.24572	-0.124722	-2.671489
N	0.081451	1.159832	-2.069392
H	-0.128535	1.193174	-3.061179
H	1.096086	1.174445	-1.929589
N	-0.432125	-1.179268	0.738726
H	0.332703	-1.446589	1.363446
H	-1.258926	-0.978428	1.303245
C	-0.455643	1.23709	0.640772
N	-0.859634	2.173082	1.228826
H	2.737179	0.0	0.0
