17

C	-0.260744	-0.049553	-1.499425
C	0.0	0.0	0.0
Br	-2.253055	-0.245752	-1.824445
H	1.097891	0.0	0.0
C	0.215641	1.215976	-2.172319
H	0.119183	1.114688	-3.254094
H	1.272167	1.341394	-1.901993
H	-0.344927	2.086979	-1.834472
N	0.382051	-1.198014	-2.080925
H	1.384203	-1.026604	-1.937642
H	0.157539	-1.980478	-1.467185
N	-0.379376	-1.238352	0.664624
H	0.305723	-1.425938	1.386628
H	-1.297467	-1.169317	1.080251
C	-0.505475	1.20405	0.649338
N	-0.900654	2.165347	1.201997
H	2.704618	0.0	0.0
