17

C	-0.49895	-0.059969	-1.446898
C	0.0	0.0	0.0
Br	-0.216459	1.707318	-2.291031
H	1.097642	0.0	0.0
C	0.348214	-1.059996	-2.220549
H	1.409196	-0.817283	-2.112067
H	0.172719	-2.05011	-1.788452
H	0.059509	-1.07006	-3.275805
N	-1.925264	-0.315438	-1.460407
H	-2.044845	-1.172747	-0.924832
H	-2.222066	-0.496145	-2.41469
N	-0.347635	-1.282346	0.655155
H	0.523374	-1.631664	1.049544
H	-0.991462	-1.125613	1.4198
C	-0.52413	1.131937	0.751501
N	-0.923252	1.993588	1.446263
H	2.733703	0.0	0.0
