17

C	-0.451101	-0.06904	-1.463453
C	0.0	0.0	0.0
Br	0.142145	1.667757	-2.350604
H	1.093824	0.0	0.0
C	0.2862	-1.169578	-2.200969
H	0.068587	-1.130345	-3.271639
H	-0.038793	-2.137308	-1.810999
H	1.358793	-1.050096	-2.027706
N	-1.866524	-0.219198	-1.560154
H	-2.332275	0.562356	-1.110418
H	-2.156679	-0.250584	-2.531141
N	-0.35595	-1.211873	0.737316
H	-1.153737	-1.666676	0.311002
H	0.454064	-1.82337	0.712862
C	-0.575754	1.164266	0.670849
N	-1.075268	2.085893	1.204648
H	2.730436	0.0	0.0
