17

C	-0.390323	-0.006265	-1.494302
C	0.0	0.0	0.0
Br	0.10383	-1.791838	-2.203193
H	1.09476	0.0	0.0
C	-1.872065	0.173241	-1.738283
H	-2.090954	0.084743	-2.803715
H	-2.428243	-0.58247	-1.183471
H	-2.177754	1.16592	-1.389991
N	0.391851	0.961435	-2.227319
H	0.06802	1.888255	-1.961571
H	1.361271	0.873325	-1.911031
N	-0.521861	-1.126832	0.776147
H	-1.009449	-0.798461	1.601254
H	0.290241	-1.651998	1.088084
C	-0.421308	1.279561	0.557783
N	-0.771755	2.308572	1.010577
H	2.748392	0.0	0.0
