17

C	-0.333912	0.042402	-1.497029
C	0.0	0.0	0.0
Br	0.026835	-1.933018	-2.215832
H	1.102628	0.0	0.0
C	-1.788022	0.256921	-1.850324
H	-2.398634	-0.477872	-1.324932
H	-1.9517	0.158675	-2.926433
H	-2.073384	1.264759	-1.532769
N	0.552271	0.942909	-2.069281
H	1.508218	0.798052	-1.719914
H	0.507954	0.979511	-3.078836
N	-0.622141	-1.117773	0.719704
H	-0.443725	-0.961533	1.707556
H	-0.083881	-1.940942	0.465994
C	-0.453725	1.255664	0.591283
N	-0.817709	2.245843	1.111125
H	2.781563	0.0	0.0
