16

C	0.0	0.0	0.0
C	-0.478553	0.079061	-1.475173
Br	1.964127	0.0	0.0
H	-1.53868	0.374761	-1.31488
C	-0.430736	1.124867	0.835637
N	-0.567126	2.015788	1.591169
C	-0.426143	-1.252448	0.624824
N	-0.594246	-2.277392	1.176168
C	-0.386034	-1.240958	-2.198526
H	-1.100795	-1.916994	-1.729368
H	-0.665215	-1.108919	-3.243281
H	0.617837	-1.671162	-2.161354
N	0.245255	1.171112	-2.187008
O	0.288378	2.264604	-1.62589
O	0.711006	0.946595	-3.305947
F	-2.452694	0.0	0.0
