16

C	0.0	0.0	0.0
C	-0.204969	0.07266	-1.581339
Br	1.958146	0.0	0.0
H	0.423643	0.911172	-1.88536
C	-0.466039	1.2503	0.588562
N	-0.578981	2.330185	1.043508
C	-0.486815	-1.172156	0.714478
N	-0.608126	-2.131735	1.385951
C	-1.547085	0.198309	-2.278632
H	-1.328149	0.309978	-3.348922
H	-2.169697	-0.666245	-2.080986
H	-2.079393	1.066126	-1.905022
N	0.45915	-1.113802	-2.227661
O	1.1854	-0.886667	-3.195063
O	0.171146	-2.229851	-1.805538
F	-2.294497	0.0	0.0
