16

C	0.0	0.0	0.0
C	-0.529677	0.025224	-1.464088
Br	1.964588	0.0	0.0
H	-1.620875	-0.120383	-1.250512
C	-0.43101	1.176113	0.759472
N	-0.660732	2.162654	1.356034
C	-0.447108	-1.236344	0.63726
N	-0.616082	-2.29633	1.120959
C	0.132854	-0.962846	-2.400412
H	1.167398	-0.690138	-2.615348
H	0.115387	-1.962066	-1.960392
H	-0.432318	-0.986558	-3.335639
N	-0.40847	1.38789	-2.063214
O	-1.343904	1.734373	-2.799335
O	0.612678	2.056241	-1.851519
F	-2.54187	0.0	0.0
