16

C	0.0	0.0	0.0
C	-0.497719	-0.059951	-1.483927
Br	1.96091	0.0	0.0
H	-1.582456	-0.201728	-1.313486
C	-0.456872	1.214461	0.672956
N	-0.606645	2.247225	1.216055
C	-0.448731	-1.205632	0.694192
N	-0.59482	-2.227052	1.257895
C	0.18009	-1.093754	-2.357955
H	-0.358695	-1.144924	-3.308498
H	1.224082	-0.850431	-2.557663
H	0.124028	-2.077374	-1.884536
N	-0.359523	1.278648	-2.143154
O	-1.383111	1.775449	-2.612007
O	0.764138	1.776551	-2.2343
F	-2.486762	0.0	0.0
