16

C	0.0	0.0	0.0
C	-0.204989	0.059219	-1.576138
Br	1.963431	0.0	0.0
H	0.436213	0.884406	-1.890659
C	-0.468032	1.253165	0.581698
N	-0.569233	2.332228	1.041973
C	-0.476414	-1.167027	0.732116
N	-0.602868	-2.11539	1.418598
C	-1.545632	0.205045	-2.272143
H	-1.325569	0.29682	-3.343763
H	-2.187296	-0.64107	-2.054516
H	-2.054114	1.090103	-1.905982
N	0.440462	-1.144256	-2.211845
O	0.141303	-2.251215	-1.774664
O	1.162648	-0.936866	-3.187082
F	-2.293858	0.0	0.0
