12

C	-0.435289	0.026975	-1.445474
C	0.0	0.0	0.0
Cl	-2.20609	-0.045205	-1.647393
H	1.094967	0.0	0.0
H	-0.073326	0.900994	-1.981443
H	-0.350115	-0.918828	0.473271
N	0.135781	-1.16329	-2.173954
O	0.073621	-2.246922	-1.60732
O	0.580243	-0.947871	-3.29661
C	-0.505939	1.165112	0.710432
N	-0.917769	2.104674	1.281025
Br	3.430114	0.0	0.0
