12

C	-0.464177	0.019789	-1.433788
C	0.0	0.0	0.0
Cl	-2.209585	0.33964	-1.588796
H	1.090633	0.0	0.0
H	0.061308	0.795257	-1.989699
H	-0.288196	0.964503	0.431623
N	-0.164377	-1.265334	-2.180799
O	0.288056	-2.206399	-1.54401
O	-0.38351	-1.236471	-3.389198
C	-0.597178	-1.049778	0.812438
N	-1.120002	-1.841581	1.502989
Br	3.440029	0.0	0.0
