12

C	-0.429263	0.043259	-1.4466
C	0.0	0.0	0.0
Cl	-2.199661	0.025118	-1.662386
H	1.094978	0.0	0.0
H	-0.037527	0.908556	-1.97633
H	-0.353441	-0.92196	0.464517
N	0.113465	-1.159954	-2.177309
O	0.023194	-2.244343	-1.614656
O	0.56383	-0.95324	-3.298843
C	-0.502458	1.160334	0.720522
N	-0.915922	2.094363	1.298801
Br	3.434951	0.0	0.0
