12

C	-0.447015	0.015141	-1.441066
C	0.0	0.0	0.0
Cl	-2.21329	-0.116649	-1.627221
H	1.094966	0.0	0.0
H	-0.119815	0.902242	-1.97753
H	-0.344597	-0.9157	0.48378
N	0.163875	-1.152345	-2.174847
O	0.61624	-0.913725	-3.289829
O	0.126206	-2.242442	-1.618117
C	-0.50197	1.169863	0.705291
N	-0.909841	2.114766	1.269935
Br	3.40537	0.0	0.0
