12

C	-0.451364	0.019242	-1.441874
C	0.0	0.0	0.0
Cl	0.036038	1.51539	-2.239786
H	1.092643	0.0	0.0
H	-0.057875	-0.818302	-2.0136
H	-0.359464	0.892727	0.514561
N	-1.956207	-0.087326	-1.543597
O	-2.620609	0.647179	-0.820885
O	-2.397644	-0.90402	-2.348914
C	-0.504867	-1.195199	0.66673
N	-0.915463	-2.168206	1.179989
Br	3.449337	0.0	0.0
