15

C	0.0	0.0	0.0
C	-0.430603	0.16364	-1.470997
Cl	1.762291	0.0	0.0
H	0.425884	0.568074	-2.025199
H	-0.37837	-0.90077	0.460687
N	-0.400025	1.125193	0.903643
O	-0.545045	0.843253	2.08603
O	-0.414044	2.252651	0.423778
C	-1.546676	1.074874	-1.749526
N	-2.232321	1.829043	-2.340865
C	-0.768656	-1.229785	-2.010135
H	0.057301	-1.925478	-1.833349
H	-0.964153	-1.189144	-3.084076
H	-1.663577	-1.54291	-1.47512
F	-2.357873	0.0	0.0
