15

C	0.0	0.0	0.0
C	-0.245074	0.015896	-1.559538
Cl	1.754089	0.0	0.0
H	0.299009	-0.887091	-1.868951
H	-0.4217	-0.866	0.48667
N	-0.486397	1.20288	0.735587
O	-0.557738	1.082795	1.95317
O	-0.643027	2.238429	0.103563
C	0.500184	1.121554	-2.191057
N	1.026366	1.968479	-2.812226
C	-1.606188	-0.044989	-2.258393
H	-1.396269	-0.141565	-3.3335
H	-2.182547	-0.878219	-1.876805
H	-2.1834	0.848311	-2.053186
F	-2.392412	0.0	0.0
