15

C	0.0	0.0	0.0
C	-0.244594	0.010595	-1.559943
Cl	1.754056	0.0	0.0
H	0.300989	-0.892725	-1.86625
H	-0.422615	-0.864387	0.488346
N	-0.485468	1.204306	0.732674
O	-0.639619	2.239738	0.099266
O	-0.554591	1.086597	1.950687
C	0.499217	1.115322	-2.195058
N	1.02722	1.961386	-2.815661
C	-1.60567	-0.056377	-2.258603
H	-2.185008	0.836509	-2.056079
H	-2.179325	-0.890286	-1.874265
H	-1.396532	-0.156604	-3.333753
F	-2.388451	0.0	0.0
