15

C	0.0	0.0	0.0
C	-0.43262	0.513939	-1.388848
Cl	1.762709	0.0	0.0
H	0.431335	1.01625	-1.841739
H	-0.380184	-0.984337	0.229427
N	-0.39815	0.872186	1.151575
O	-0.395938	2.083252	0.9679
O	-0.562587	0.308488	2.226271
C	-1.518224	1.497868	-1.433335
N	-2.186402	2.400952	-1.784523
C	-0.806111	-0.706186	-2.235424
H	-1.693255	-1.126028	-1.764241
H	0.017188	-1.428435	-2.248477
H	-1.027211	-0.408333	-3.263475
F	-2.359824	0.0	0.0
