15

C	0.0	0.0	0.0
C	-0.245071	-0.005889	-1.559222
Cl	1.754186	0.0	0.0
H	0.307125	-0.907592	-1.856587
H	-0.421465	-0.859996	0.497426
N	-0.485303	1.21086	0.722837
O	-0.5572	1.101411	1.941635
O	-0.63911	2.240894	0.080534
C	0.492528	1.096632	-2.204919
N	1.015542	1.938725	-2.835421
C	-1.60533	-0.089521	-2.256843
H	-2.18962	0.802455	-2.067582
H	-1.393296	-0.203263	-3.329833
H	-2.173446	-0.921247	-1.858636
F	-2.388432	0.0	0.0
