15

C	0.0	0.0	0.0
C	-0.433007	0.429052	-1.417269
Cl	1.762453	0.0	0.0
H	0.435056	0.88825	-1.9072
H	-0.379956	-0.970107	0.28407
N	-0.399547	0.932828	1.101891
O	-0.393568	2.132633	0.853071
O	-0.565505	0.427282	2.204829
C	-1.50341	1.426257	-1.516185
N	-2.158465	2.319984	-1.913246
C	-0.83437	-0.835701	-2.181833
H	-0.030613	-1.578708	-2.143825
H	-1.732771	-1.198411	-1.685779
H	-1.042629	-0.602248	-3.229148
F	-2.362946	0.0	0.0
