15

C	0.0	0.0	0.0
C	-0.436599	0.084594	-1.477281
Cl	1.762543	0.0	0.0
H	0.433927	0.398988	-2.062631
H	-0.380628	-0.875146	0.50711
N	-0.396601	1.16775	0.854955
O	-0.394182	2.275918	0.333738
O	-0.55915	0.93451	2.046283
C	-1.495816	1.039849	-1.810345
N	-2.145254	1.831564	-2.389414
C	-0.847442	-1.31909	-1.924401
H	-1.101773	-1.322751	-2.988245
H	-0.028804	-2.029748	-1.761302
H	-1.720058	-1.573199	-1.326
F	-2.36761	0.0	0.0
