15

C	0.0	0.0	0.0
C	-0.245465	0.035047	-1.558188
Cl	1.75411	0.0	0.0
H	0.302497	-0.861712	-1.880412
H	-0.422342	-0.871583	0.476123
N	-0.486183	1.193177	0.752247
O	-0.642515	2.237927	0.135246
O	-0.556055	1.056398	1.968264
C	0.495416	1.151562	-2.176063
N	1.01761	2.00937	-2.785632
C	-1.60635	-0.024819	-2.257387
H	-2.178715	-0.863433	-1.881022
H	-2.187069	0.864882	-2.0452
H	-1.394703	-0.111139	-3.332892
F	-2.394215	0.0	0.0
