15

C	0.0	0.0	0.0
C	-0.245074	-0.077136	-1.557636
Cl	1.754305	0.0	0.0
H	0.307972	-0.991486	-1.814155
H	-0.423257	-0.836303	0.534715
N	-0.48501	1.241382	0.666744
O	-0.639516	2.242477	-0.019768
O	-0.552244	1.18813	1.889349
C	0.489355	0.997187	-2.252501
N	1.013011	1.812251	-2.916868
C	-1.605618	-0.196307	-2.249847
H	-2.19444	0.699643	-2.096758
H	-2.171018	-1.013498	-1.819267
H	-1.395027	-0.356562	-3.317316
F	-2.388716	0.0	0.0
