14

C	0.0	0.0	0.0
C	-0.513523	-0.04466	-1.433644
Cl	1.830807	0.0	0.0
H	-1.623045	-0.016928	-1.278202
H	-0.203931	0.85134	-1.979119
N	-0.396717	1.283516	0.536849
H	-0.380738	1.253244	1.548465
H	0.222775	2.019587	0.21913
N	-0.560942	-1.098475	0.692773
H	-0.332856	-1.033693	1.67861
H	-1.597244	-0.923849	0.584275
C	-0.106863	-1.231887	-2.168456
N	0.187264	-2.168296	-2.811557
H	-3.058295	0.0	0.0
