14

C	0.0	0.0	0.0
C	-0.537037	-0.10956	-1.420018
Cl	1.837986	0.0	0.0
H	-0.251675	0.773478	-1.993095
H	-1.646609	-0.11562	-1.233784
N	-0.543633	1.19185	0.545584
H	-1.580101	1.005662	0.477139
H	-0.306298	1.245008	1.531632
N	-0.389177	-1.187578	0.715404
H	0.115368	-1.999547	0.379311
H	-0.203496	-1.07234	1.703447
C	-0.130281	-1.322409	-2.103385
N	0.197619	-2.310183	-2.647263
H	-3.060148	0.0	0.0
