14

C	0.0	0.0	0.0
C	-0.46524	0.035625	-1.466553
Cl	1.797406	0.0	0.0
H	-1.570495	0.070914	-1.383239
H	-0.088997	0.936856	-1.955578
N	-0.494215	1.20779	0.597533
H	-0.29567	1.13102	1.591132
H	-1.523136	1.107403	0.497396
N	-0.447328	-1.162694	0.724081
H	-0.153687	-2.0092	0.24505
H	-1.477089	-1.089476	0.674808
C	-0.071879	-1.148906	-2.214138
N	0.240065	-2.117863	-2.800418
H	-3.008552	0.0	0.0
