15

C	-0.448295	0.009321	-1.461613
C	0.0	0.0	0.0
F	-0.066055	1.158137	-2.046059
H	1.093029	0.0	0.0
N	0.285674	-1.141214	-2.193851
O	0.877302	-0.849107	-3.214622
O	0.149998	-2.240452	-1.681288
C	-1.879471	-0.233189	-1.684218
N	-3.016416	-0.43271	-1.907577
C	-0.533758	-1.10703	0.772953
N	-0.957687	-1.969542	1.449408
N	-0.476065	1.268654	0.669495
O	-1.45364	1.83418	0.187019
O	0.131983	1.600198	1.674964
Cl	3.091934	0.0	0.0
