15

C	-0.434237	0.092019	-1.4549
C	0.0	0.0	0.0
F	-0.281422	-1.136023	-2.02676
H	1.094691	0.0	0.0
N	-1.946209	0.385597	-1.589104
O	-2.638452	0.192005	-0.599184
O	-2.328504	0.708288	-2.707273
C	0.28569	1.085011	-2.252146
N	0.8141	1.843289	-2.977524
C	-0.492855	-1.198706	0.653237
N	-0.866121	-2.182407	1.17717
N	-0.40089	1.226879	0.749499
O	-0.615778	2.230043	0.071999
O	-0.421348	1.157951	1.969157
Cl	3.052391	0.0	0.0
