15

C	-0.448115	0.067978	-1.452953
C	0.0	0.0	0.0
F	-0.343694	-1.176906	-1.995601
H	1.092451	0.0	0.0
N	-1.950031	0.406785	-1.572336
O	-2.329421	0.791533	-2.672165
O	-2.644386	0.176578	-0.589098
C	0.294445	1.016525	-2.282885
N	0.861732	1.717435	-3.034799
C	-0.489842	-1.182182	0.683403
N	-0.840744	-2.154015	1.241342
N	-0.401873	1.242106	0.724445
O	-0.616875	2.231585	0.024961
O	-0.436386	1.19636	1.945084
Cl	3.052521	0.0	0.0
