15

C	-0.47042	-0.178004	-1.432538
C	0.0	0.0	0.0
F	-1.824779	-0.22591	-1.550553
H	1.097512	0.0	0.0
N	0.012831	0.971666	-2.338487
O	-0.46149	0.943766	-3.467208
O	0.813272	1.767017	-1.877332
C	0.087067	-1.413075	-1.998032
N	0.462404	-2.420796	-2.471859
C	-0.483221	-1.108147	0.810045
N	-0.886015	-2.012059	1.443306
N	-0.494338	1.277558	0.619488
O	-1.212606	2.011282	-0.053495
O	-0.135034	1.469694	1.772782
Cl	3.080493	0.0	0.0
