16

C	0.0	0.0	0.0
C	-0.521027	-0.24936	-1.444377
Cl	1.789769	0.0	0.0
H	0.316187	-0.077933	-2.130162
C	-0.408935	1.341799	0.423013
N	-0.546193	2.442279	0.813088
C	-0.392181	-1.035516	1.063983
H	-1.479553	-1.0885	1.046108
H	0.093629	-1.985074	0.843776
H	-0.030636	-0.674285	2.028997
C	-1.641199	0.58707	-1.876629
N	-2.214445	1.318529	-2.602067
N	-0.831897	-1.71268	-1.657195
O	0.116455	-2.472634	-1.460047
O	-1.938221	-2.042423	-2.055968
F	-2.510077	0.0	0.0
