16

C	0.0	0.0	0.0
C	-0.484947	0.29015	-1.44755
Cl	1.79349	0.0	0.0
H	0.36919	0.137959	-2.120786
C	-0.436059	1.036933	0.93733
N	-0.556002	1.865845	1.763402
C	-0.336809	-1.38561	0.586116
H	0.141624	-2.165015	-0.002982
H	-1.417931	-1.472281	0.593792
H	0.073519	-1.40452	1.598908
C	-0.93747	1.66588	-1.607573
N	-1.177389	2.800404	-1.786656
N	-1.516289	-0.646375	-2.043504
O	-1.267435	-1.841832	-1.950801
O	-2.381436	-0.152995	-2.747758
F	-2.425841	0.0	0.0
