16

C	0.0	0.0	0.0
C	-0.468014	0.261975	-1.448684
Cl	1.789778	0.0	0.0
H	-0.126734	1.260389	-1.728103
C	-0.432875	1.134903	0.818387
N	-0.600188	2.087335	1.485932
C	-0.400799	-1.341508	0.620443
H	0.069767	-2.151657	0.065848
H	-1.485312	-1.398953	0.585643
H	-0.040039	-1.359752	1.652128
C	-1.911217	0.136292	-1.775478
N	-2.646425	0.14863	-2.707763
N	0.274604	-0.64205	-2.40561
O	1.00839	-0.099227	-3.228456
O	0.08658	-1.850301	-2.309127
F	-2.580567	0.0	0.0
