16

C	-0.532467	0.122758	-1.428729
C	0.0	0.0	0.0
Cl	0.291377	1.478473	-2.234763
H	1.10611	0.0	0.0
N	-0.140235	-1.133799	-2.216642
O	-0.731802	-1.308308	-3.280857
O	0.734572	-1.853329	-1.754768
C	-2.031271	0.301477	-1.534992
H	-2.316894	1.198376	-0.984358
H	-2.333314	0.398246	-2.575809
H	-2.530509	-0.564375	-1.09146
C	-0.517105	-1.199532	0.634856
N	-0.943823	-2.171301	1.142972
C	-0.408551	1.168356	0.761999
N	-0.715512	2.124013	1.37575
F	2.428812	0.0	0.0
