16

C	-0.234225	-0.103833	-1.505708
C	0.0	0.0	0.0
Cl	0.125457	-1.765698	-2.037265
H	1.106235	0.0	0.0
N	-1.702834	0.120552	-1.884474
O	-2.549254	-0.09422	-1.022567
O	-1.931573	0.478034	-3.037301
C	0.658863	0.87404	-2.234312
H	0.624814	0.70503	-3.308929
H	1.659282	0.71493	-1.816729
H	0.332488	1.89572	-2.019518
C	-0.530973	-1.080841	0.805817
N	-0.904698	-1.947259	1.506692
C	-0.438766	1.296351	0.489224
N	-0.765879	2.356545	0.878188
F	2.492142	0.0	0.0
