16

C	-0.252272	0.222464	-1.487879
C	0.0	0.0	0.0
Cl	0.13303	-1.271191	-2.376014
H	1.106593	0.0	0.0
N	-1.733075	0.489899	-1.792719
O	-2.560353	0.073144	-0.989269
O	-1.987922	1.081544	-2.83779
C	0.604675	1.358655	-1.994449
H	1.616114	1.135049	-1.643812
H	0.264955	2.298321	-1.550852
H	0.547297	1.4313	-3.077882
C	-0.517647	-1.235268	0.55314
N	-0.88021	-2.243743	1.037243
C	-0.446951	1.157627	0.753853
N	-0.782957	2.126307	1.329792
F	2.485325	0.0	0.0
