16

C	-0.246872	-0.058028	-1.506819
C	0.0	0.0	0.0
Cl	0.06971	-1.709787	-2.088296
H	1.102712	0.0	0.0
N	-1.714005	0.207577	-1.859833
O	-2.556255	-0.101785	-1.024519
O	-1.946934	0.687026	-2.966374
C	0.663165	0.919068	-2.213769
H	0.360057	1.940407	-1.970767
H	1.663149	0.731117	-1.804986
H	0.619844	0.781268	-3.292839
C	-0.526937	-1.098591	0.784266
N	-0.883534	-1.985046	1.46959
C	-0.417637	1.289176	0.523566
N	-0.696213	2.359751	0.920642
F	2.491549	0.0	0.0
