16

C	-0.234396	0.045074	-1.50869
C	0.0	0.0	0.0
Cl	0.150745	-1.54899	-2.201087
H	1.093353	0.0	0.0
N	-1.706381	0.283869	-1.866021
O	-2.545181	0.047739	-1.003768
O	-1.944487	0.667848	-3.00809
C	0.645225	1.105042	-2.132146
H	1.646476	0.918448	-1.727889
H	0.302785	2.093901	-1.816134
H	0.615731	1.0429	-3.217974
C	-0.536611	-1.158355	0.686775
N	-0.919045	-2.100025	1.276407
C	-0.434937	1.242294	0.615304
N	-0.744141	2.270111	1.094727
F	2.494885	0.0	0.0
