16

C	-0.478148	-0.007854	-1.45396
C	0.0	0.0	0.0
Cl	0.32776	1.316116	-2.324593
H	1.106637	0.0	0.0
N	-0.017575	-1.305711	-2.130909
O	-0.445611	-1.495788	-3.267154
O	0.726257	-2.051848	-1.509502
C	-1.976871	0.10013	-1.637873
H	-2.463593	-0.751063	-1.153552
H	-2.322817	1.022369	-1.169155
H	-2.229908	0.109852	-2.696628
C	-0.542144	-1.127997	0.735944
N	-0.996534	-2.032273	1.336207
C	-0.428266	1.236528	0.632427
N	-0.760791	2.242013	1.145004
F	2.430371	0.0	0.0
