16

C	-0.23856	-0.098335	-1.49955
C	0.0	0.0	0.0
Cl	-1.985156	-0.090282	-1.944816
H	1.100626	0.0	0.0
N	0.337961	1.14582	-2.183805
O	0.679517	1.022433	-3.35487
O	0.370391	2.185479	-1.539936
C	0.461733	-1.317457	-2.04937
H	0.398197	-1.338212	-3.135428
H	0.000935	-2.215268	-1.636263
H	1.49916	-1.238873	-1.706264
C	-0.437495	-1.227759	0.644204
N	-0.7757	-2.227774	1.162994
C	-0.573713	1.134305	0.70112
N	-1.027363	1.995188	1.363337
F	2.468479	0.0	0.0
