16

C	-0.238147	-0.002039	-1.505535
C	0.0	0.0	0.0
Cl	0.188626	-1.602985	-2.153893
H	1.106131	0.0	0.0
N	-1.713759	0.199752	-1.874074
O	-1.956372	0.464313	-3.04774
O	-2.548292	0.081183	-0.982441
C	0.608571	1.064698	-2.163135
H	0.574045	0.969291	-3.246649
H	1.617349	0.919916	-1.76302
H	0.238598	2.052371	-1.875057
C	-0.540016	-1.134035	0.721875
N	-0.931103	-2.054991	1.338796
C	-0.417897	1.263613	0.581922
N	-0.701837	2.310668	1.035454
F	2.486437	0.0	0.0
