16

C	-0.464228	-0.185258	-1.455247
C	0.0	0.0	0.0
Cl	0.255881	1.090205	-2.448103
H	1.106845	0.0	0.0
N	0.099711	-1.53672	-1.922032
O	-0.629384	-2.503289	-1.696348
O	1.207371	-1.576316	-2.432253
C	-1.96622	-0.186149	-1.649354
H	-2.42269	-0.952883	-1.024865
H	-2.21606	-0.377083	-2.69517
H	-2.350995	0.794623	-1.366247
C	-0.481952	-1.068198	0.856167
N	-0.846629	-1.930945	1.568348
C	-0.463082	1.279632	0.502555
N	-0.819878	2.324581	0.908862
F	2.424389	0.0	0.0
