17

C	0.0	0.0	0.0
C	-0.622409	0.057321	-1.405645
Cl	1.792699	0.0	0.0
H	-1.71952	0.168446	-1.151382
C	-0.485911	1.124196	0.902747
H	-1.5848	1.077724	0.868038
H	-0.125666	2.083148	0.533589
H	-0.12307	0.96219	1.920048
C	-0.38516	-1.300333	0.572195
N	-0.551392	-2.368803	1.033485
N	-0.416829	-1.070418	-2.251084
H	-1.086074	-1.783987	-1.991073
H	0.5259	-1.433783	-2.186749
N	-0.140118	1.29208	-2.096457
O	0.753582	1.173753	-2.935869
O	-0.664678	2.361588	-1.776577
H	-3.063467	0.0	0.0
