17

C	0.0	0.0	0.0
C	-0.432069	0.000562	-1.505387
Cl	1.791016	0.0	0.0
H	-0.100238	0.96301	-1.906711
C	-0.580803	1.217178	0.692693
H	-1.675414	1.103682	0.6827
H	-0.223563	1.270597	1.723124
H	-0.284697	2.124961	0.160823
C	-0.395468	-1.221245	0.706297
N	-0.639848	-2.171374	1.353211
N	-1.783889	-0.284448	-1.817959
H	-2.491556	0.135438	-1.133831
H	-1.941472	-1.272191	-1.634553
N	0.403133	-1.009158	-2.257704
O	1.153728	-0.598119	-3.140182
O	0.24319	-2.190089	-1.955092
H	-3.524222	0.0	0.0
