13
Coordinates from ORCA-job run
  C   0.92028927779759      0.75696119838056     -0.10639364609277
  C   -0.47431487747476      0.13555609374752     -0.33642362449039
  H   1.03378413437380      1.02902253955499      0.94734651668267
  H   -0.56853912075301     -0.11592960612837     -1.39866353315388
  H   1.03269758504242      1.67142972237773     -0.69504065524371
  C   1.97538393971337     -0.18438665914582     -0.47687375801675
  N   2.79648698377717     -0.96403790860476     -0.78486786745211
  C   -1.48879622581535      1.14780324211936     -0.03003418529526
  N   -2.29294698901799      1.96031493743461      0.23773450560257
  C   -0.69308651126471     -1.12446317733625      0.50485384319956
  H   -0.60350199772344     -0.89432860238962      1.56877279940529
  H   0.04917396970643     -1.88135351349996      0.24518010226078
  H   -1.68663016836151     -1.53758826650999      0.32540950259397
