13
Coordinates from ORCA-job run
  C   0.94166900760221      0.73662120075319     -0.00026709896819
  C   -0.45176114143326      0.17168835710597     -0.35091892151292
  H   1.00204590231753      0.92852387446930      1.07526345883705
  H   -0.49177642542476     -0.00063481719245     -1.43223104915160
  H   1.10802396789272      1.68789234703587     -0.51289442504063
  C   1.99431605175802     -0.20325292447447     -0.38098448199944
  N   2.81421013476629     -0.97960721133722     -0.70049561183800
  C   -1.45709847388873      1.18780380553284     -0.02777256691663
  N   -2.25222864714451      2.00467238062989      0.25337984726676
  C   -0.74737175035289     -1.13862182042985      0.38319128655956
  H   -0.71195822437207     -0.98755597721938      1.46431755285610
  H   -0.01011382774689     -1.89550395853000      0.10962089858041
  H   -1.73895657397368     -1.51002525634372      0.12079111132753
