13
Coordinates from ORCA-job run
  C   -0.91406447668160     -0.11749429168203     -0.31853727285297
  C   0.59665318966688      0.26683000114244     -0.31201211899654
  H   -1.11173886349657     -0.58899249905006     -1.28808960944393
  H   0.73079473457131      1.04746070358734     -1.07171279025709
  C   -1.76437101056663      1.06904665046748     -0.18349855390033
  N   -2.40776359908958      2.04791871496004     -0.10315305410497
  C   -1.18900952580535     -1.09810652334238      0.73449339944870
  N   -1.39676556995393     -1.87868863583026      1.58598308035976
  N   1.37406036976955     -0.92969781551011     -0.59392465899924
  H   1.75447710091392     -0.90252230099208     -1.52968410046703
  H   2.12927015376700     -1.06070245902179      0.06375066687102
  C   0.94795490424163      0.85032561702773      0.98658843643632
  N   1.25050259266339      1.29662283824369      2.02979657590630
