13
Coordinates from ORCA-job run
  C   -0.84037992271901     -0.32850360098738      0.00387710747701
  C   0.57065669280591      0.32234431639119      0.05163659964139
  H   -0.71514157356212     -1.39853362588901     -0.20477043997523
  H   0.43305540685867      1.39510786772866      0.21732019740057
  C   -1.62170281146169      0.27107797907856     -1.08203658646767
  N   -2.26195744800100      0.76007858407026     -1.93547851165579
  C   -1.53654612370506     -0.18011875206248      1.28602963439573
  N   -2.07093961097880     -0.04699938569499      2.32297396993692
  N   1.20902682937492      0.12901351961008     -1.23406969175725
  H   1.62510415567871     -0.79227613397801     -1.29884440990133
  H   1.93629334289530      0.81639915298455     -1.38257776058801
  C   1.31838053894224     -0.23274684366096      1.19618336564003
  N   1.95515052387192     -0.71384307759048      2.05875652585363
