13
Coordinates from ORCA-job run
  C   -0.83495843754325     -0.08693869678310     -0.34697820911776
  C   0.67327973527769      0.35218671975853     -0.31080291088288
  H   -1.02471272247833     -0.50987870307090     -1.34144483055418
  H   0.79710019220333      1.10544302107858     -1.09650933675731
  C   -1.73047154448548      1.05494106018303     -0.15058369417118
  N   -2.41408223942227      2.00129009885312     -0.02264249042534
  C   -1.06416428394929     -1.13619631284165      0.64896523516308
  N   -1.17826895827020     -1.99942731946792      1.43679395832738
  N   1.62004421121530     -0.71057758930929     -0.53702778884885
  H   1.51307568179204     -1.11605442794289     -1.45773896062285
  H   1.54848210913692     -1.43477983728512      0.16747755113483
  C   0.94634460660442      0.99383379387084      0.98169532326489
  N   1.14733164991913      1.48515819295676      2.02879615349018
