13
Coordinates from ORCA-job run
  C   -0.82600703351898     -0.35180924218395     -0.08925956967884
  C   0.55453813693383      0.32879643501229      0.12906521829146
  H   -0.64917979012632     -1.37274557985342     -0.45064643129355
  H   0.36730483403144      1.35929018126749      0.44563173338675
  C   -1.57857627412990      0.38242595379143     -1.11089232103147
  N   -2.19477413834179      0.97856997283292     -1.91230398690894
  C   -1.58693314441672     -0.42428341324321      1.16229388473928
  N   -2.17650568072055     -0.47097724031338      2.17659239885865
  N   1.25920467960577      0.35239797088242     -1.13606923579595
  H   1.96568087113569      1.07647121277962     -1.14236573233900
  H   1.71263950518345     -0.53523914692211     -1.31667959277638
  C   1.26939949104443     -0.36856866919043      1.21529491478969
  N   1.88420854331964     -0.95332843485967      2.02833871975829
