13
Coordinates from ORCA-job run
  C   -0.90131869619902     -0.04932335758184     -0.39042540894108
  C   0.60566291744208      0.31314867595878     -0.32734672564093
  H   -1.09313524062095     -0.38693501557812     -1.41512960171453
  H   0.76946775337131      1.11334041151853     -1.05593427782238
  C   -1.74420401138022      1.11171938089613     -0.09317564081944
  N   -2.39598078474137      2.06506852920706      0.11793498733313
  C   -1.18234783534521     -1.16236473262863      0.52175568247904
  N   -1.34710461973896     -2.07181091502352      1.24586365117587
  N   1.36689129360942     -0.84967619170216     -0.74259601034546
  H   1.38762899275307     -1.54329404448940     -0.00238395699913
  H   2.32332783326404     -0.58678663647342     -0.94747805953711
  C   0.94543254458921      0.83580323407475      1.01101349720445
  N   1.26467985299661      1.21111066182182      2.07790186362757
