14

C	0.03018	0.002174	0.002979
C	-0.500965	0.022489	-1.424043
F	1.424387	-0.03346	-0.039893
H	-1.605936	0.076342	-1.344517
H	-0.230241	0.951059	0.479459
N	-0.449722	-1.176849	0.644923
H	-1.470346	-1.163504	0.56877
H	-0.220863	-1.124512	1.630804
C	-0.07991	-1.147024	-2.182273
N	0.239305	-2.096911	-2.793072
N	-0.051846	1.276196	-2.126928
O	0.328814	1.188078	-3.290639
O	-0.142152	2.318881	-1.486941
Cl	-3.478881	-0.097863	-0.105142
