14

C	0.025413	0.010861	-0.004047
C	-0.545112	0.088201	-1.414063
F	1.417873	0.010641	-0.083792
H	-1.648309	0.1118	-1.301551
H	-0.244815	0.928618	0.525147
N	-0.411119	-1.209173	0.591063
H	-0.159437	-1.198638	1.572684
H	-1.433306	-1.216898	0.539297
C	-0.118411	-1.032409	-2.23989
N	0.211299	-1.943232	-2.902419
N	-0.144176	1.385175	-2.065283
O	0.209693	1.363353	-3.240533
O	-0.243444	2.392964	-1.372793
Cl	-3.484412	-0.171976	-0.028302
