19

C	0.0	0.0	0.0
C	-0.328481	-0.265425	-1.48138
F	1.367138	0.0	0.0
H	0.168157	0.523979	-2.041476
N	-0.330941	1.472379	0.312001
O	-0.453634	2.252011	-0.62878
O	-0.334237	1.781438	1.498296
C	-0.637729	-0.875947	1.026159
H	-1.721784	-0.714393	0.983484
H	-0.42175	-1.917385	0.79566
H	-0.268296	-0.614882	2.016449
C	-1.768291	-0.41717	-1.893387
H	-1.809008	-0.589205	-2.973248
H	-2.266806	-1.232135	-1.376123
H	-2.335595	0.478971	-1.651494
N	0.433082	-1.502261	-1.880409
O	0.074991	-2.581195	-1.410951
O	1.349206	-1.359862	-2.690129
Cl	-4.358557	0.0	0.0
