19

C	0.0	0.0	0.0
C	-0.575876	0.070334	-1.410148
F	1.361863	0.0	0.0
H	-1.521438	0.619737	-1.332267
N	-0.326817	1.31597	0.762024
O	-1.14113	2.100308	0.30256
O	0.297972	1.453884	1.811864
C	-0.538702	-1.122434	0.838171
H	-0.134003	-1.019385	1.845271
H	-0.216158	-2.076981	0.419049
H	-1.631086	-1.057343	0.848318
C	-0.828513	-1.278672	-2.045206
H	-1.161323	-1.139354	-3.071839
H	0.068982	-1.902057	-2.054137
H	-1.634077	-1.759875	-1.492351
N	0.350978	0.906213	-2.259738
O	0.74127	1.969896	-1.78662
O	0.648595	0.493938	-3.38056
Cl	-3.730316	0.0	0.0
