16

C	-0.535517	-0.036162	-1.42444
C	0.0	0.0	0.0
Cl	-0.020974	-1.499652	-2.339816
H	1.096161	0.0	0.0
H	-1.631385	-0.087268	-1.409152
C	-0.176389	1.14253	-2.218015
N	0.038518	2.087356	-2.881662
C	-0.484717	-1.207622	0.789722
H	-0.112823	-2.137938	0.357331
H	-0.091812	-1.143671	1.808247
H	-1.582142	-1.255389	0.844053
C	-0.450592	1.300952	0.659323
H	-1.545104	1.401186	0.688558
H	-0.077273	1.319797	1.687364
H	-0.028641	2.170759	0.149354
H	2.920755	0.0	0.0
