16

C	-0.338361	0.047294	-1.474269
C	0.0	0.0	0.0
Cl	-2.096846	0.405431	-1.822051
H	1.098661	0.0	0.0
H	0.217242	0.867648	-1.936657
C	-0.015869	-1.19053	-2.182628
N	0.202385	-2.194782	-2.750869
C	-0.518866	-1.239218	0.705237
H	-0.17487	-1.227366	1.743187
H	-1.614181	-1.288851	0.70448
H	-0.125002	-2.14891	0.244869
C	-0.414174	1.285042	0.701696
H	-0.065616	2.161131	0.145801
H	0.067475	1.315179	1.682918
H	-1.497928	1.364425	0.835641
H	2.861785	0.0	0.0
