16

C	-0.541386	0.00249	-1.422435
C	0.0	0.0	0.0
Cl	-0.008099	-1.426735	-2.38453
H	1.096173	0.0	0.0
H	-1.637023	-0.064783	-1.405657
C	-0.198165	1.20666	-2.179054
N	0.004306	2.181372	-2.802005
C	-0.479307	-1.231322	0.756601
H	-0.0665	-1.205782	1.769377
H	-1.576072	-1.271727	0.830296
H	-0.123859	-2.149505	0.286027
C	-0.451013	1.277439	0.703634
H	-1.546521	1.370316	0.746272
H	-0.06892	1.264991	1.729096
H	-0.038092	2.165615	0.218504
H	2.920991	0.0	0.0
