16

C	-0.417128	-0.024951	-1.464897
C	0.0	0.0	0.0
Cl	0.003263	1.486283	-2.347641
H	1.096371	0.0	0.0
H	0.148092	-0.816579	-1.966209
C	-1.850955	-0.263469	-1.644342
N	-3.002571	-0.476539	-1.744567
C	-0.414466	-1.320513	0.644564
H	-0.047181	-2.172234	0.062444
H	0.055959	-1.386155	1.629188
H	-1.49985	-1.416981	0.763776
C	-0.538908	1.192306	0.768614
H	-0.172731	2.130858	0.348797
H	-0.180582	1.136312	1.800469
H	-1.636202	1.215717	0.785852
H	2.905406	0.0	0.0
