12
Coordinates from ORCA-job run
  C   0.66468135948978     -0.24219741273869      0.05029179022436
  C   -0.66859947085490      0.08476831985412      0.16690228112797
  N   1.47707387490038     -0.03601021068288     -1.00400102251610
  H   2.46631909514132     -0.18071957499771     -0.88820167839903
  H   1.13921990719503      0.55647199827286     -1.74806358285772
  C   1.25186934200641     -0.96012367626606      1.15079016973653
  N   1.77063795484913     -1.54078178172042      2.03341651395883
  C   -1.42187901475218     -0.23683847717365      1.32687595558879
  N   -2.02252978472970     -0.51822295396089      2.29898386558524
  N   -1.37160124106393      0.83101427275329     -0.85980709529362
  O   -2.54957266248057      1.09862375220329     -0.65335726322043
  O   -0.73761935970076      1.14401574445675     -1.87482993393482
