12
Coordinates from ORCA-job run
  C   0.62550223953331     -0.23653209980013      0.05335269525257
  C   -0.64749181821510      0.24394209796288     -0.10591687753576
  N   0.90865726892827     -1.56484748588003      0.07549849478225
  H   1.80918224743360     -1.85340022796323      0.42122410612944
  H   0.14832451416148     -2.22220692294535      0.17372699286875
  C   1.78354326843366      0.61102379476070      0.14340194356961
  N   2.82631718419382      1.14500894871112      0.25130538064979
  C   -1.73658326815929     -0.66244206219260     -0.15510350016176
  N   -2.54302858008369     -1.52066744342123     -0.17846220899426
  N   -0.96841830238619      1.66242677543393     -0.20236794904612
  O   -0.04141112213163      2.46466667705773     -0.20178343795860
  O   -2.16459363170821      1.93302794827622     -0.27587563955591
