12
Coordinates from ORCA-job run
  C   0.65704964868665     -0.26076475981241      0.04580136223322
  C   -0.66653498518403      0.10151004522990      0.16962012697301
  N   1.47547455712847     -0.05411755103911     -1.00308820806905
  H   2.45808390364510     -0.24385887629318     -0.89890129113422
  H   1.15375894305307      0.55626916700754     -1.73979941429476
  C   1.22278842355761     -1.02085399349238      1.12898889672386
  N   1.72672603502150     -1.63670345034842      1.99625958155496
  C   -1.42790251861131     -0.22311642689748      1.32367319520966
  N   -2.03406949839989     -0.50959534293139      2.29096484933823
  N   -1.34660102108535      0.89169700892254     -0.83900123134025
  O   -2.51416223030558      1.19521416175785     -0.62305472568663
  O   -0.70561125750623      1.20232001789653     -1.85046314150803
