12
Coordinates from ORCA-job run
  C   0.64449977801836     -0.29253352316488      0.02940410087086
  C   -0.66049618807073      0.12270505339395      0.18015683878581
  N   1.45392892548221     -0.11037210147732     -1.03049860443498
  H   1.14508785598002      0.51884935217980     -1.75667169007792
  H   2.42976102498367     -0.34054701789698     -0.94485059762461
  C   1.19985378646920     -1.07915052882891      1.09993340370543
  N   1.69361849013630     -1.71881856070868      1.95572551188724
  C   -1.41200052821750     -0.17227399556639      1.34778269482007
  N   -2.01514080808080     -0.43293919629979      2.32395317936659
  N   -1.32227323685070      0.95284233384717     -0.80863485877165
  O   -2.47058423647435      1.30743066244853     -0.56826571660463
  O   -0.68625486337568      1.24380752207350     -1.82903426192220
