12
Coordinates from ORCA-job run
  C   0.64309835550526     -0.17257911827582     -0.07806913724402
  C   -0.67322418809710      0.18851091624685      0.03893593005645
  N   1.02985313545598     -1.43353389382965     -0.40166477540015
  H   0.34537834003430     -2.17547634032483     -0.37861206288882
  H   1.99110180369366     -1.69148714654389     -0.25060394031519
  C   1.73251021685621      0.75569799374959      0.06262868415466
  N   2.73146042256006      1.36869378872391      0.16499907658450
  C   -1.68205777001820     -0.80021607663439     -0.08348213074238
  N   -2.40997557497410     -1.71791082304967     -0.20839373698498
  N   -1.11603133103100      1.55029519282841      0.31062678784898
  O   -0.26622302888230      2.43182561247385      0.36749299146411
  O   -2.32689038110277      1.69617989463564      0.45714231346684
