12
Coordinates from ORCA-job run
  C   0.61224970380839     -0.24925119755924     -0.11527423385875
  C   -0.64193501316743      0.26878899563667      0.07274097290038
  N   0.82483582263494     -1.55136314482235     -0.43707209961417
  H   0.05972314686924     -2.20551444767375     -0.35602870381792
  H   1.75558066514750     -1.92188588502044     -0.33773786819182
  C   1.81084621950467      0.54277428689727     -0.05559431873691
  N   2.87863980442613      1.03572918495390     -0.02438126663034
  C   -1.76723767744903     -0.59279105539898      0.03006942093533
  N   -2.60530405077602     -1.41865178217769     -0.02798106405776
  N   -0.90160244596428      1.67607749870947      0.34799257287643
  O   0.04938863486043      2.44972082484668      0.33962989891936
  O   -2.07518480989453      1.96836672160845      0.56363668927617
