12
Coordinates from ORCA-job run
  C   0.66088493781296     -0.24590134458753      0.07123941144285
  C   -0.64690142548245      0.17178016797011      0.18640238752715
  N   1.52121008894448     -0.00149869385311     -0.93558447036810
  H   1.15186444400246      0.40731384914537     -1.78128304968614
  H   2.39377834497384     -0.50231319854710     -0.95967354597745
  C   1.21099304857951     -0.96376046404493      1.19098639247982
  N   1.69549473442215     -1.56046233154003      2.08233156838809
  C   -1.42946251921132     -0.11915989699224      1.33491901996503
  N   -2.05355418555228     -0.37306743654404      2.29980161163547
  N   -1.32678505575435      0.87793592639246     -0.88328174684854
  O   -0.67334265665946      1.14267991195874     -1.89972514951673
  O   -2.50417975607556      1.16845351064230     -0.70613242904144
