12
Coordinates from ORCA-job run
  C   0.62515582518846     -0.22081085331346      0.09917836816745
  C   -0.65804541507820      0.22786937738120     -0.06966937317141
  N   0.94274238196670     -1.54115997247153      0.11043882389503
  H   1.91050953384914     -1.80028247619204      0.01273557428653
  H   0.25410104128143     -2.21160102776753     -0.19909064625056
  C   1.74039345193458      0.65175791614574      0.35001714198328
  N   2.75650605071342      1.20975269350474      0.55083845203882
  C   -1.69549044026341     -0.70296282123460     -0.32999061771620
  N   -2.45279328674743     -1.57941550923341     -0.54429023907134
  N   -1.03674542142997      1.63414618886440     -0.00705535065722
  O   -0.15353767870818      2.46115910110260      0.18849282075995
  O   -2.23279604270653      1.86954738321389     -0.16060495426434
