12
Coordinates from ORCA-job run
  C   0.64361700394367     -0.18318339750717      0.00013025355045
  C   -0.67549176455816      0.18467831236250     -0.04118941514724
  N   1.03830474935152     -1.46867828141301      0.18731440785503
  H   0.35725024768055     -2.15132794207241      0.48662867602764
  H   2.00087739556165     -1.64427249914033      0.42402735697873
  C   1.72810730468167      0.73632150636621     -0.21472322958134
  N   2.72973336472231      1.33994371139562     -0.34513352293327
  C   -1.67956365953048     -0.78472396311057      0.20837927706651
  N   -2.40104067284853     -1.68682571622698      0.43936826549740
  N   -1.12522624968051      1.54410499734579     -0.31330787324072
  O   -2.33966455674418      1.72201543315427     -0.26384037888980
  O   -0.27690316257949      2.39194783884609     -0.56665381718339
