12
Coordinates from ORCA-job run
  C   0.61514765104336     -0.24759888589815     -0.10782518671991
  C   -0.64454771522374      0.25656340401897      0.07858571477153
  N   0.84604267014461     -1.54690891463935     -0.43079639510979
  H   0.09042617052606     -2.21217101432802     -0.34637293293629
  H   1.78017729010086     -1.90500762820031     -0.32101648005978
  C   1.80148700747524      0.56393910030004     -0.06122840467273
  N   2.86041690453073      1.07565277718480     -0.05551669263057
  C   -1.76567094328100     -0.60838654639046      0.02269998923123
  N   -2.60719174992517     -1.43081840897274     -0.04222042808709
  N   -0.91446837332194      1.66423700230671      0.35015997155269
  O   0.03828441728351      2.42858384844867      0.45054552214414
  O   -2.10110332935252      1.96291526616986      0.46098532251658
