12
Coordinates from ORCA-job run
  C   0.61906571934528     -0.22498309154645     -0.11013549597324
  C   -0.64898620231746      0.23834212840523      0.12729836208625
  N   0.87299291859609     -1.51593299401873     -0.42976953220575
  H   0.11022227843291     -2.14791671784404     -0.61837397328676
  H   1.79629220172601     -1.78620631325315     -0.72569906959343
  C   1.79277110002984      0.59824479538668      0.00185533408248
  N   2.84075638730029      1.13269542616754      0.02172715030505
  C   -1.74790818869906     -0.64584420090967     -0.01178937677660
  N   -2.54900774664996     -1.49748178420477     -0.15727864630148
  N   -0.94600413322137      1.60591299204640      0.53023589004185
  O   -2.13161389136076      1.85431025318139      0.73341944058075
  O   -0.00958044318181      2.38985950658956      0.63850991704088
