12
Coordinates from ORCA-job run
  C   0.63021820626090     -0.31642383919315      0.01553522263885
  C   -0.64379746116719      0.17188677022117      0.20957693232878
  N   1.38030488759849     -0.24925291745952     -1.09876933980857
  H   2.33899761739283     -0.55134549765236     -1.06760227142629
  H   1.04658254984420      0.31308107264846     -1.86734894681951
  C   1.21883574830829     -1.04698072347127      1.10826202573518
  N   1.74069814500622     -1.64864903183181      1.97468248683455
  C   -1.33405483865386     -0.01027699892516      1.43729373623289
  N   -1.88686628513171     -0.18615915803227      2.46088088447578
  N   -1.32228659807864      0.96705435379147     -0.79374200192578
  O   -2.41876728654704      1.43023221556266     -0.49994855628506
  O   -0.75086468483249      1.12583375434178     -1.87882017198081
