12
Coordinates from ORCA-job run
  C   0.63719208762711     -0.21144421930840     -0.01088121028300
  C   -0.66586677817437      0.20417962924804      0.06538736079486
  N   0.98136127427039     -1.50131825213160     -0.26023015248496
  H   0.26891922000336     -2.14199142233772     -0.57920783770147
  H   1.92873195025079     -1.69695048857966     -0.53952703187944
  C   1.75610807647339      0.66121729196014      0.22222720392939
  N   2.77278839495651      1.23866185081362      0.35421807188310
  C   -1.70958795372868     -0.71023068609511     -0.22611488584522
  N   -2.47085269575148     -1.56917758774422     -0.49127536257381
  N   -1.05893444467011      1.56578037370379      0.40449334100035
  O   -2.25369368571192      1.82165796638384      0.27734420006238
  O   -0.18716544554499      2.33861554408727      0.78656630309782
