12
Coordinates from ORCA-job run
  C   0.62690915812948     -0.32547716731690     -0.05527582101569
  C   -0.65675067991843      0.16411472905659     -0.15767350483143
  N   1.64611446239634      0.17195867429071      0.67104645371883
  H   1.43716788793547      0.89771948273064      1.34055423342218
  H   2.48135365958476     -0.37996932979449      0.77472258970070
  C   0.95365142393329     -1.45900993026864     -0.87997608651310
  N   1.25754141182577     -2.39141521135651     -1.53063731533125
  C   -1.62557043378000     -0.44180810759716     -1.00064551832931
  N   -2.40673215314054     -0.96689931179565     -1.70710280626265
  N   -1.12029298476762      1.28367842296356      0.64049358428247
  O   -2.28961287288789      1.62459039138600      0.50528424484854
  O   -0.30477887931063      1.82151735770186      1.39920994631071
