12
Coordinates from ORCA-job run
  C   0.66748660831700     -0.22741941673535      0.06783378981095
  C   -0.65189739845644      0.15040319150963      0.18782549887986
  N   1.51687143853064      0.04427456196000     -0.94121398393454
  H   2.40552683898461     -0.42743947463840     -0.96671149153221
  H   1.13320700109201      0.44098787491832     -1.78626005684904
  C   1.24308558968414     -0.92918798019606      1.18516357843780
  N   1.74877684992037     -1.51208871295715      2.07384807029039
  C   -1.42152754556875     -0.16534523521477      1.33849980247094
  N   -2.03362096536117     -0.43826389539127      2.30589713841307
  N   -1.35511414842473      0.84067725949054     -0.87712830229127
  O   -2.53680542962673      1.10677970343223     -0.69049705346867
  O   -0.71598883909096      1.11762212382227     -1.89925699022729
