12
Coordinates from ORCA-job run
  C   0.64803293462665     -0.27679540165064      0.05601180420948
  C   -0.66807436117618      0.11662233398443      0.16035345341170
  N   1.48326278251119     -0.10222181925522     -0.98469600779808
  H   2.45996052372555     -0.31451328351202     -0.86810422037200
  H   1.18348109300965      0.49746698303496     -1.73904377335083
  C   1.19240780833069     -1.01984427830323      1.16206968511105
  N   1.68921021793216     -1.61424156359443      2.04874501448869
  C   -1.44646586092950     -0.16944508420464      1.31288413544878
  N   -2.06887567554485     -0.42269741440459      2.27894296148788
  N   -1.32150385609607      0.89979471425045     -0.87107182955583
  O   -0.66240644226866      1.18082323514190     -1.87921579671852
  O   -2.48702916412062      1.22505157851304     -0.67687542636233
