12
Coordinates from ORCA-job run
  C   0.64499782562645     -0.17870828467528     -0.03867384751018
  C   -0.67018709781416      0.20325848550058     -0.00279512159612
  N   1.04554180113408     -1.37729261313780     -0.53593926022249
  H   1.97874979146293     -1.69237927327881     -0.32736801165731
  H   0.35099056678821     -2.08763212502638     -0.71682184802020
  C   1.72556235875076      0.67040604121811      0.38437337493570
  N   2.71782635320396      1.21637211268793      0.70314446512704
  C   -1.67531058902157     -0.71142484885462     -0.40730347632141
  N   -2.40029703897535     -1.56553376833236     -0.77136020434621
  N   -1.11802787699066      1.51182337800375      0.45661158080655
  O   -2.33527906930090      1.67078088288894      0.50366775623516
  O   -0.26556702486373      2.34133001300595      0.75346459256945
