12
Coordinates from ORCA-job run
  C   0.64516627654453     -0.28830942319058      0.04087751281503
  C   -0.66572605398879      0.11532351961524      0.16271531384323
  N   1.47506512141652     -0.10996046008065     -1.00519957629767
  H   1.18391767933037      0.50658375232204     -1.74999697282348
  H   2.44871682529207     -0.34134822369398     -0.90149955926757
  C   1.18451595270704     -1.05581420341886      1.13284928912118
  N   1.63722343303018     -1.68811436934825      2.01595562152885
  C   -1.42509249624970     -0.15520912466683      1.33003925719891
  N   -2.02792977348725     -0.39309353145917      2.31191961348821
  N   -1.31931555294687      0.92426512505276     -0.84895181459414
  O   -2.48027699241816      1.25274269525241     -0.64250857713156
  O   -0.65726441922996      1.23193424361587     -1.84720010788099
