12
Coordinates from ORCA-job run
  C   0.61876370929550     -0.34373684482352     -0.03511672969827
  C   -0.62612874035783      0.17681683381147      0.24484367799005
  N   1.35404042381275     -0.17051062140110     -1.14756204688635
  H   2.29804914234888     -0.51769534578728     -1.17262888720067
  H   1.03643990223089      0.49936268474184     -1.83149451092409
  C   1.18370501205347     -1.23256679782187      0.94658234304385
  N   1.68510095114773     -1.96370291296795      1.72047124400610
  C   -1.31282136860285     -0.12548056234012      1.45060163024153
  N   -1.86760260563078     -0.39744331879710      2.45154801360326
  N   -1.28614219324036      1.11415800949270     -0.64122048534232
  O   -0.72234405543138      1.38633821181219     -1.70867512854118
  O   -2.36206017762602      1.57446066408075     -0.27634912029190
