12
Coordinates from ORCA-job run
  C   0.67736583765931     -0.19795875873606      0.06752156608139
  C   -0.67143293867909      0.06464470211206      0.16665253261162
  N   1.46489149004616     -0.07773816710526     -1.01836844854643
  H   2.46216933878486     -0.15091177796125     -0.90419144690765
  H   1.08476157550968      0.39607741270697     -1.82462088190369
  C   1.31708365176805     -0.74353371999691      1.23562235264473
  N   1.87910257192743     -1.18375127016462      2.17135566736712
  C   -1.39138482316575     -0.15164821030754      1.37128982941940
  N   -1.96307509032389     -0.34367456158819      2.38195044067197
  N   -1.42562291720265      0.64563085237248     -0.92812695566366
  O   -0.82471001611228      0.85706507430308     -1.98845121707240
  O   -2.61114868021182      0.88479842436525     -0.72963343870241
