12
Coordinates from ORCA-job run
  C   0.64220843546286     -0.29957704932005      0.00224745338016
  C   -0.61952781111985      0.19727716775108      0.24531090042512
  N   1.46222329567695     -0.00687836002187     -1.02518576032268
  H   2.28871503714727     -0.56543756936615     -1.15920373157479
  H   1.08117898699475      0.52066604327169     -1.79664800792297
  C   1.19325871560862     -1.18022246802059      0.99837239144245
  N   1.67699948293559     -1.91037072743085      1.78460364366579
  C   -1.35888557268056     -0.16515605526912      1.40215314578695
  N   -1.94657525232327     -0.48015478292358      2.37192049689576
  N   -1.29874994041871      1.06850297416450     -0.69548591386798
  O   -0.68514754583167      1.39494777151023     -1.71864034720138
  O   -2.43569783145199      1.42640305565473     -0.41044427070643
