12
Coordinates from ORCA-job run
  C   0.68320758829406     -0.16853818393403      0.07653279291157
  C   -0.67728479739054      0.03373667046435      0.15460338346392
  N   1.48566053539482      0.00594592336103     -0.99047641036584
  H   2.48242682956443     -0.03859926940775     -0.85947737976075
  H   1.10456386391460      0.48127955230175     -1.79509599448443
  C   1.32459785055951     -0.70354264467943      1.24907022164654
  N   1.88820669423538     -1.13119972138404      2.18978183090546
  C   -1.40811037325857     -0.23512043748802      1.34168140962844
  N   -1.98761790634732     -0.46989866224993      2.33862019784585
  N   -1.43634015305492      0.59697339397180     -0.94596789885623
  O   -0.82135253312278      0.86900170661057     -1.98431608470447
  O   -2.63895759878868      0.75996167243369     -0.77495606823004
