12
Coordinates from ORCA-job run
  C   0.62824585140441     -0.23237660774109      0.04127248670334
  C   -0.65678626650737      0.22506556534845     -0.08797219801840
  N   0.91728683009947     -1.50520658900673      0.41348635485382
  H   1.85616304758477     -1.71924138072193      0.70693167528132
  H   0.17795192736708     -2.09167137296393      0.77230818477941
  C   1.78420945443319      0.56942127892758     -0.25577816282416
  N   2.82518861545143      1.08886171837971     -0.43015382069153
  C   -1.73959309056539     -0.61976859620994      0.26445812742820
  N   -2.53969372180929     -1.42099560928038      0.58944513529915
  N   -0.99191384852885      1.56408846171127     -0.55448836406209
  O   -2.18000979374660      1.86890650647508     -0.48714722250258
  O   -0.08304900518285      2.27291662508189     -0.97236219624649
