12
Coordinates from ORCA-job run
  C   0.63239559072527     -0.31941072514593      0.02773824631051
  C   -0.59737539298771      0.26650259424633      0.23365314493123
  N   1.39360845094688     -0.27486005532893     -1.08233372928622
  H   0.97739491101323      0.09660629239876     -1.92341716525499
  H   2.19543344332720     -0.87982461351549     -1.14476062129944
  C   1.22160451335976     -0.99739762851076      1.15230249651854
  N   1.73473435737199     -1.56729140200660      2.04517486040083
  C   -1.27196493531045      0.17746426460477      1.47992440577577
  N   -1.80683012473497      0.08919343396201      2.52453609763647
  N   -1.30969655359927      0.95521782900757     -0.82621053468914
  O   -0.75374120564591      1.03975502985022     -1.92792086136112
  O   -2.41456305446605      1.41204498043805     -0.55668633968243
