12
Coordinates from ORCA-job run
  C   0.62188647755616     -0.20171844653985     -0.14972082632262
  C   -0.64851684030580      0.20581676145545      0.16060035968477
  N   0.92190166586549     -1.49717063581659     -0.42737977482741
  H   0.16426533565774     -2.13800696304558     -0.61482039864200
  H   1.80240104168571     -1.67121075574603     -0.88858412920899
  C   1.76436969581540      0.67042795942138     -0.13280146652492
  N   2.80254662477537      1.22394659064029     -0.16140074766798
  C   -1.71240483837193     -0.73140827143810      0.14448096345361
  N   -2.50569063496306     -1.60010862509894      0.07387340303939
  N   -0.97814632518786      1.57044854727765      0.55952702682609
  O   -2.16133132253673      1.77624878960432      0.81943071052538
  O   -0.07028087999048      2.39173504928600      0.61779487966470
