12
Coordinates from ORCA-job run
  C   0.64222072281266     -0.19029806784688      0.01152450551278
  C   -0.67288383494557      0.18932089541327     -0.04609120363772
  N   1.02625475448975     -1.46371174916547      0.28456058080628
  H   1.98556338588704     -1.62668121802377      0.54312247961378
  H   0.34063988165809     -2.12166188271977      0.62552056506063
  C   1.73468063407767      0.70404287262021     -0.26122981483949
  N   2.73716450285835      1.29586517139129     -0.43115137538547
  C   -1.68681087072075     -0.75035769975593      0.26982303845553
  N   -2.41885294615211     -1.62763028202403      0.55638041680283
  N   -1.11009110783780      1.52722812075313     -0.42248043118816
  O   -0.25664722151559      2.33888814803727     -0.76259893998012
  O   -2.32123790061175      1.72599569132069     -0.36637982122086
