12
Coordinates from ORCA-job run
  C   0.62591735936231     -0.23841884925847      0.05860473272543
  C   -0.65961609025101      0.22971785361871     -0.01855219627304
  N   0.97069933116086     -1.49651124323534     -0.31626916277311
  H   1.94471558373730     -1.70904247239590     -0.45452654593693
  H   0.30217267911750     -2.05742085594621     -0.82451057666395
  C   1.71593874597436      0.53763442673889      0.58559372087353
  N   2.70970888986058      1.04151296676475      0.96191833103169
  C   -1.66749664093358     -0.58758549153114     -0.58986122927062
  N   -2.39877636537449     -1.36485843999700     -1.08870373385093
  N   -1.06850978740364      1.54871730442608      0.44744517963702
  O   -0.23809942872030      2.24061381470621      1.02601234300414
  O   -2.23465427652989      1.85664098610942      0.21284913749676
