12
Coordinates from ORCA-job run
  C   0.62281854294217     -0.27583687757850     -0.09003735366021
  C   -0.65152646362611      0.19534250310000      0.02445935319647
  N   0.91200785714305     -1.61907089366926     -0.22604648275340
  H   0.17050277098446     -2.19948372462847     -0.58726852000583
  H   1.81038034373594     -1.83524642739145     -0.61330651304877
  C   1.73866051926930      0.60855792941874      0.10787843244674
  N   2.67028326206352      1.31625339550520      0.24451638171204
  C   -1.77736937907705     -0.66238766102579     -0.01670189525109
  N   -2.66265593431027     -1.43564725863878     -0.08670714102710
  N   -0.88962901862409      1.61887584254986      0.33905700516778
  O   -1.32244360122114      1.86799677095375      1.45879839378421
  O   -0.62302889927977      2.42064640140471     -0.55464166056085
