12
Coordinates from ORCA-job run
  C   0.64530700354660     -0.29053289204832      0.03587995954890
  C   -0.61804275666940      0.22582718593712      0.22383571009255
  N   1.44347801582426     -0.15211386254957     -1.03999111073418
  H   1.04201034087993      0.24534370337249     -1.87640234789831
  H   2.27484480659780     -0.71591520977687     -1.10232965768012
  C   1.22552593591249     -0.99946952957227      1.14606463839516
  N   1.73249778895534     -1.59271907195288      2.02715687964833
  C   -1.33186655606957      0.03994116432627      1.43713179415046
  N   -1.89867580247692     -0.12771775187312      2.45479952225611
  N   -1.32388363697867      0.93589015101359     -0.82626638617543
  O   -0.73285083188999      1.10520431600008     -1.89954882986551
  O   -2.45934430763186      1.32426179712348     -0.57733017173795
