12
Coordinates from ORCA-job run
  C   0.61625791603068     -0.24978281363182     -0.11859207806820
  C   -0.64059833012989      0.26480809048733      0.06329521060179
  N   0.83836739296220     -1.55722255322479     -0.41217130958961
  H   1.76397374868963     -1.92385553386128     -0.26161574253396
  H   0.07118737714806     -2.21059121439915     -0.34405188221537
  C   1.80875075195322      0.55091588876139     -0.06148817048098
  N   2.87475427250498      1.04638595926598     -0.01497841323863
  C   -1.76094176314733     -0.60427379947125      0.06659864436004
  N   -2.60531175565044     -1.42545048580649      0.06032788009055
  N   -0.91128421850347      1.67915587933104      0.28778633451195
  O   0.02880235399905      2.46307215235303      0.21770684305923
  O   -2.08295774585669      1.96783843019601      0.51918268350319
