12
Coordinates from ORCA-job run
  C   0.65367039057104     -0.26929069274848      0.04670918737054
  C   -0.64206297782035      0.17199373152230      0.20303472606847
  N   1.35254048154713     -0.39360326126222     -1.09770009753389
  H   0.96086069650983      0.01142117394728     -1.93513709912391
  H   2.34045096599247     -0.57836751352542     -1.04489494672505
  C   1.32686176638022     -0.73014072971310      1.23252853315867
  N   1.91443494593571     -1.10926774973687      2.17925393123524
  C   -1.27414821179530      0.20718572607611      1.47408968931206
  N   -1.77321924216467      0.22201274647477      2.53974861079023
  N   -1.41868263161928      0.68989179741998     -0.90743621061431
  O   -0.89243071083491      0.68077244668256     -2.02691599606131
  O   -2.54827547270188      1.09739232486310     -0.66228032787676
