12
Coordinates from ORCA-job run
  C   0.64622894286767     -0.14586921602169     -0.10388888511734
  C   -0.67448299264526      0.17686786162063      0.06476210403029
  N   1.04895854179916     -1.23736297782952     -0.80420967912622
  H   2.00245184525740     -1.54430851096491     -0.70346734225626
  H   0.36521981170630     -1.93687778755670     -1.05480817692775
  C   1.72645325275020      0.66876567890831      0.38354453606427
  N   2.72002110498360      1.19805666842459      0.72537864711528
  C   -1.67589912033878     -0.70186047520644     -0.42019333677799
  N   -2.39769787431863     -1.51698958793849     -0.86987489683048
  N   -1.12959914695596      1.37776315997391      0.75416058412888
  O   -0.28412807430435      2.18055835284534      1.13256232704134
  O   -2.34552629080134      1.48025683374497      0.89603411865599
