12
Coordinates from ORCA-job run
  C   0.61882569385403     -0.34522738582542     -0.01327844708109
  C   -0.58341174067340      0.26640284509552      0.26737369737556
  N   1.36521332009977     -0.22893454852379     -1.12791542104466
  H   2.14346024353233     -0.85363668915419     -1.25845803277946
  H   0.95571570033114      0.23815908254082     -1.92337562308833
  C   1.19657977226620     -1.14573939078288      1.03418225575775
  N   1.70166614216500     -1.81081651649588      1.86366433611476
  C   -1.24604902094705      0.08378452508415      1.51001962964773
  N   -1.77468926728073     -0.08466146657026      2.54789414432720
  N   -1.28041506492809      1.07987166810130     -0.71105154726476
  O   -0.73460213643179      1.24766012479282     -1.80830608135558
  O   -2.36229364198741      1.55213775173782     -0.38174891060914
