12
Coordinates from ORCA-job run
  C   0.67868427633061     -0.19491979040278      0.05939781491346
  C   -0.63779498790119      0.18366853681843      0.20590323287682
  N   1.43513755553068     -0.14253936718355     -1.05378141579823
  H   2.32983362508786     -0.60353658918762     -1.05281049375269
  H   0.96951947034080      0.04599555030244     -1.92922959575326
  C   1.36435079643642     -0.62342750443591      1.25028365844827
  N   1.95794472767998     -0.98839866173269      2.19887244414185
  C   -1.30338666821416      0.11353599072901      1.45840334863413
  N   -1.82760805791452      0.04228415545793      2.50960478306719
  N   -1.44707306831610      0.60980979923807     -0.92068341826131
  O   -0.90293684757476      0.65799957942167     -2.03048912113923
  O   -2.61667082148561      0.89852830097500     -0.69547123737700
