12
Coordinates from ORCA-job run
  C   0.62219874696465     -0.33828841581618     -0.02189706492157
  C   -0.63113891841928      0.17368009086187      0.23384449769383
  N   1.35902869150566     -0.20014923971469     -1.14030310394966
  H   2.31879723606667     -0.50236129169297     -1.13064011758555
  H   1.04659896445117      0.46411484217751     -1.83297486319702
  C   1.19189719802953     -1.18856376676532      0.99004356029066
  N   1.69567439322541     -1.88295000285659      1.79586119042278
  C   -1.31538820212979     -0.08982786579008      1.44984850675907
  N   -1.86011885462684     -0.32798235772147      2.46552827573751
  N   -1.30219573655768      1.06595448223764     -0.69265355013895
  O   -2.39812426284972      1.50192488982290     -0.35954905717808
  O   -0.72722925565979      1.32344863525737     -1.75710827393300
