12
Coordinates from ORCA-job run
  C   0.67761009287422     -0.20627969808321      0.03648841121911
  C   -0.64019994756481      0.14841078927060      0.22481563528098
  N   1.45138683150748      0.03018043808444     -1.04031766975448
  H   2.34488143898010     -0.42871977512463     -1.10352303395334
  H   1.00112702162983      0.37052800090329     -1.87708175531189
  C   1.34190185979628     -0.83742514340630      1.14621600758654
  N   1.91886830750392     -1.36417610151852      2.02657027160528
  C   -1.32467111803377     -0.12022938356645      1.43959330828234
  N   -1.86531517174194     -0.35218554280302      2.45886675903319
  N   -1.43135810779130      0.75948175660192     -0.82751970514850
  O   -2.60611303615112      1.00384273410219     -0.57793357293941
  O   -0.86811817100891      0.99557192553969     -1.90317465589981
