12
Coordinates from ORCA-job run
  C   0.68206991184939     -0.18127171971655      0.07568740949717
  C   -0.67265082038635      0.05806786164103      0.16199793256539
  N   1.56856314769921      0.38667717592437     -0.76263545257040
  H   1.20699777335343      0.94616009469487     -1.52129266537193
  H   2.50153820719116      0.01283393814799     -0.81268220420493
  C   1.24060462274191     -1.08175817394335      1.04953115069790
  N   1.73507984717010     -1.82301755382330      1.81808519576237
  C   -1.48565139394079     -0.58353498077351      1.13404349366548
  N   -2.12958457794647     -1.12766153200157      1.95440160120379
  N   -1.36881631776994      0.90728845480415     -0.78571663988134
  O   -2.58464892528820      1.00445581981271     -0.66321953315660
  O   -0.69250147467345      1.48376061523315     -1.64620028820690
