12
Coordinates from ORCA-job run
  C   0.66578574778255     -0.23112642410653      0.07068226724524
  C   -0.68232615398658      0.04733599714953      0.12439070888527
  N   1.54737991902285      0.13004590850371     -0.88126565875733
  H   2.52940973140479     -0.00742161158318     -0.70896291147771
  H   1.24743629863826      0.80528050373453     -1.56889876665054
  C   1.19364074509244     -1.07607359331476      1.10947227717584
  N   1.66818538660661     -1.75865877716280      1.94273731328139
  C   -1.50875608445251     -0.44124814901657      1.17054129979715
  N   -2.16970187390484     -0.86353287016922      2.04794772720400
  N   -1.33011218362802      0.90854874020846     -0.84731814734545
  O   -0.63504002261358      1.35869082837014     -1.76614556345561
  O   -2.52590150996196      1.12915944738668     -0.69418054590225
