12
Coordinates from ORCA-job run
  C   0.64543141374238     -0.29358662521815      0.00965851097032
  C   -0.62071101757165      0.19882141162382      0.23976143147220
  N   1.45653916011768     -0.03347606323543     -1.03328226361318
  H   1.06590297565790      0.45863236704765     -1.82311718137443
  H   2.29103764529241     -0.58415737070565     -1.14770694810048
  C   1.21197382508575     -1.12400810216103      1.03968928627008
  N   1.70634117109068     -1.81058838170997      1.85779515626269
  C   -1.35004361885763     -0.12601455214306      1.41396689532075
  N   -1.93024348719107     -0.41030614282304      2.39762220795375
  N   -1.31381705456223      1.02508859416902     -0.73070867987725
  O   -2.45253360491802      1.38359072033538     -0.45321943216915
  O   -0.70987740788624      1.31500414482046     -1.77045898311530
