12
Coordinates from ORCA-job run
  C   0.66273290859548     -0.24331559972842      0.06359523349263
  C   -0.67863411399351      0.06272938732981      0.13516648865147
  N   1.53001098005190      0.06692523919682     -0.91872579661465
  H   2.51270180484816     -0.08605153470150     -0.76434669140437
  H   1.22740957747685      0.72150878235150     -1.62487240284935
  C   1.19678429121818     -1.05947997868618      1.12203354170859
  N   1.67442846034297     -1.71682513291309      1.97354756282426
  C   -1.49056485671705     -0.36940030366263      1.21695186797238
  N   -2.14004778703617     -0.74352962378938      2.12433125845002
  N   -1.33007119793397      0.90493184567952     -0.85056006841480
  O   -0.64671460901507      1.30839683919192     -1.79943744810190
  O   -2.51703545783778      1.15711007973163     -0.67868354571429
