12
Coordinates from ORCA-job run
  C   0.67592694786311     -0.19696952857731      0.08026877879500
  C   -0.68484093215396      0.01576111201057      0.11598587695291
  N   1.55037433307511      0.20202757079047     -0.86285843945552
  H   2.53599903501631      0.11064763539422     -0.68082856910553
  H   1.22574516622454      0.85570457202850     -1.56008438794139
  C   1.23053270576805     -1.00819167283999      1.13195895021585
  N   1.72215493689474     -1.66193923510625      1.97836398047492
  C   -1.49891657289003     -0.50957923596042      1.15412806422015
  N   -2.14800075846685     -0.96320916174611      2.02463441680909
  N   -1.36188390238143      0.83809864835782     -0.86890814637459
  O   -2.56937330997515      0.99849167842966     -0.73345137126228
  O   -0.67771764897444      1.31915761721883     -1.78020915332859
