12
Coordinates from ORCA-job run
  C   0.65960328542388     -0.24654422905981      0.07866063579867
  C   -0.64872521617661      0.17320290270391      0.17907360109703
  N   1.52877157511504     -0.01172138481784     -0.92297112044721
  H   1.16704009092147      0.38706608690173     -1.77663196722717
  H   2.40138854827550     -0.51315092125431     -0.93448356255959
  C   1.19993501757921     -0.95428443713038      1.20952349204464
  N   1.67829670354212     -1.54134498807811      2.11055298740699
  C   -1.44157555127193     -0.10849336725372      1.32287167716575
  N   -2.07330213319578     -0.35575666941953      2.28458632038455
  N   -1.31799831816075      0.87361047376212     -0.90114004467276
  O   -2.49199061103509      1.18078879586416     -0.72964591254455
  O   -0.66044339101706      1.11562773778178     -1.92039610644634
