12
Coordinates from ORCA-job run
  C   0.68732451564173     -0.16407923430513      0.05734829660155
  C   -0.67181185749222      0.02872841926721      0.17438395652955
  N   1.45756196049516      0.01791369006970     -1.03198816885820
  H   2.45833038855134     -0.00741016223704     -0.92804663806743
  H   1.04485327227597      0.48075691712114     -1.82837599257093
  C   1.36543861416312     -0.69789625221370      1.20931105986666
  N   1.95771493162878     -1.12600866436550      2.13193208470298
  C   -1.36855148829950     -0.24933400981001      1.37987356461671
  N   -1.92221462017180     -0.49376532213747      2.38925672311698
  N   -1.46483579770569      0.59212041726652     -0.90215468597407
  O   -2.65658919039130      0.77789828161008     -0.68482287835303
  O   -0.88822072869558      0.84107591973420     -1.96771732161080
