12
Coordinates from ORCA-job run
  C   0.66861643989193     -0.23084698103137      0.04205697081249
  C   -0.68504437697985      0.01437500638585      0.11588983384052
  N   1.55873549537104      0.29801055185566     -0.81895861749852
  H   1.25698289974731      1.07412122093876     -1.38952023271120
  H   2.54023741910872      0.14881181444727     -0.65378418846317
  C   1.19392761273536     -1.22907903300347      0.93604152170714
  N   1.66409864690765     -2.03300036341525      1.65569662162602
  C   -1.51833433210761     -0.65504457324784      1.05079462624156
  N   -2.18400547908491     -1.22650516356224      1.83530094888497
  N   -1.33242463860696      1.01767144976314     -0.70797370514064
  O   -2.53394724374525      1.19241285996693     -0.54125043836146
  O   -0.63084244323743      1.62707321090254     -1.52429334093772
