12
Coordinates from ORCA-job run
  C   0.67480818099447     -0.19611168073358      0.09384773749845
  C   -0.66931794726645      0.09890069924385      0.15678951342896
  N   1.57187859312427      0.22466205050825     -0.81859819811598
  H   1.22038334973100      0.68533127528195     -1.64503580763018
  H   2.48303650114492     -0.20278732300591     -0.83310622268367
  C   1.21441342892248     -0.98390066209695      1.17080428560489
  N   1.69239621108048     -1.63382798365125      2.02771619773259
  C   -1.49400207050642     -0.37779411228150      1.20999136817756
  N   -2.15296241476115     -0.78305995579461      2.09691820508511
  N   -1.34101199542926      0.85706670675248     -0.88225626001492
  O   -0.65237654191682      1.27698354572849     -1.81996888571152
  O   -2.54724529511753      1.03453744004880     -0.75810193337130
