12
Coordinates from ORCA-job run
  C   0.67097067332179     -0.21916440119726      0.06272144403942
  C   -0.66411911404561      0.10055236867685      0.17864964384145
  N   1.55988537267242      0.25330059265715     -0.83147498406282
  H   2.46290834284718     -0.18594916336098     -0.89723410373048
  H   1.20795276885128      0.79930194586814     -1.60374971396924
  C   1.21194858543142     -1.10579394560311      1.05932397332995
  N   1.69119149392663     -1.83212674774005      1.85178578039176
  C   -1.48016952744002     -0.44595918885630      1.20412811038128
  N   -2.13328076062738     -0.91570354858728      2.06316774784091
  N   -1.33606669153277      0.95950707216184     -0.77810738815260
  O   -2.53651622254932      1.14772494116304     -0.61890472824619
  O   -0.65370492085563      1.44531007481796     -1.68830578166343
