12
Coordinates from ORCA-job run
  C   0.63982912856026     -0.18954702596574     -0.04855584761976
  C   -0.66824326066910      0.21197970438331      0.02283169121325
  N   1.00189932444548     -1.41712371452160     -0.50030509512565
  H   0.29334703267731     -2.12563554032511     -0.62339142373509
  H   1.94453644367762     -1.73158424970227     -0.33803715644987
  C   1.74879863796396      0.66569453835560      0.27755642670324
  N   2.76307666517812      1.21490181066296      0.50977900576438
  C   -1.69789730154305     -0.70873432096108     -0.29841207917302
  N   -2.43907148367795     -1.57452306047415     -0.59620330189545
  N   -1.08183126718512      1.54762493697536      0.43089276903136
  O   -2.29504591604143      1.73985647102037      0.46465999353934
  O   -0.20939800338611      2.36609045055236      0.69918501774726
