12
Coordinates from ORCA-job run
  C   0.63005592987701     -0.32457257850481      0.01269823984695
  C   -0.59561345870338      0.25974503523735      0.24634760075971
  N   1.39581184437805     -0.22616428730766     -1.09053523332787
  H   0.98854377478937      0.19768282515149     -1.91102193867031
  H   2.19499291538643     -0.83091865627895     -1.18222357377775
  C   1.20826809978637     -1.07000137588453      1.09975617767354
  N   1.71043604569560     -1.69581339939533      1.96080469008861
  C   -1.27687962932278      0.10602007992395      1.48267208215389
  N   -1.81800943638272     -0.03762706223270      2.51787057616001
  N   -1.29832498634218      1.01066924883225     -0.77717699045500
  O   -2.40145379268981      1.45944239345287     -0.48785282371535
  O   -0.73682730647195      1.15153777700606     -1.87033880673643
