12
Coordinates from ORCA-job run
  C   0.62455119633709     -0.24223324564842     -0.01609010974336
  C   -0.64516669440589      0.27295505445345     -0.03420713799673
  N   0.89508507306598     -1.52192116454921     -0.37792937524811
  H   0.13229122116303     -2.17264513263186     -0.49372532105878
  H   1.79786762390757     -1.90562140474232     -0.15094111142377
  C   1.78850189793298      0.53265788164739      0.31883010119106
  N   2.83298324337157      1.00936915226100      0.57614115917825
  C   -1.73699964444520     -0.58312222370273     -0.32981234362529
  N   -2.53684900758849     -1.40889352447077     -0.58614264630091
  N   -0.96175648884164      1.65683471621188      0.28835240560275
  O   -2.15414221747374      1.95044890172278      0.23573487324156
  O   -0.03836620302327      2.41217098944881      0.57178950618333
