12
Coordinates from ORCA-job run
  C   0.65738237025009     -0.25572939531345      0.06495768407229
  C   -0.64973270729146      0.16208899899411      0.18580715837862
  N   1.53696743929807      0.05052997479463     -0.90810867600719
  H   1.18479769665558      0.51582584946960     -1.73157297861518
  H   2.40417091841887     -0.45842799677081     -0.95358917965397
  C   1.18420776174667     -1.05115375235489      1.14266209461584
  N   1.65160565175776     -1.70965347297812      1.99894058523705
  C   -1.45227477166797     -0.19707157386428      1.30080239568017
  N   -2.08995042707996     -0.50589237564401      2.24048048240495
  N   -1.30679221596257      0.94447853053591     -0.84435410849402
  O   -2.48454115694741      1.23299189788984     -0.66607275342219
  O   -0.63484055917768      1.27201331524145     -1.82995270419636
