12
Coordinates from ORCA-job run
  C   0.61041006387604     -0.36022462818381     -0.02128873251782
  C   -0.61373164018438      0.21280277343765      0.24529083935243
  N   1.29629005498599     -0.34414578061478     -1.18031651194307
  H   2.24976126588685     -0.66647064093452     -1.18259885331984
  H   0.97303030761046      0.27478056626610     -1.90911419988323
  C   1.20145366531674     -1.14045982552420      1.03400765661284
  N   1.72219237078325     -1.77962282681463      1.87409311361057
  C   -1.24830378895758      0.07402562679558      1.50796630374375
  N   -1.75264549416319     -0.06062067368838      2.56274847112733
  N   -1.30083765917406      1.04707611072639     -0.72244616053965
  O   -0.76898151986960      1.19627800420257     -1.82917607975556
  O   -2.36663762611050      1.54558129433202     -0.37916584648774
