17

C	0.0	0.0	0.0
C	-0.280982	0.056927	-1.55247
Br	1.945379	0.0	0.0
H	0.51045	-0.570296	-1.972475
C	-0.437351	1.152648	0.762853
N	-0.575305	2.171407	1.344559
N	-0.506936	-1.230107	0.625779
O	-0.541019	-1.269041	1.869672
O	-0.49452	-2.256755	-0.100554
C	-0.132043	1.489175	-2.048931
H	0.822997	1.929835	-1.76204
H	-0.205676	1.503952	-3.141998
H	-0.947351	2.090949	-1.642832
N	-1.592709	-0.434266	-2.01058
H	-1.701551	-1.361675	-1.609482
H	-1.483523	-0.573596	-3.016879
H	-1.838569	0.0	0.0
