17

C	0.0	0.0	0.0
C	-0.282058	0.092198	-1.550465
Br	1.945714	0.0	0.0
H	0.516036	-0.515758	-1.98553
C	-0.44248	1.131823	0.789628
N	-0.574228	2.136421	1.397167
N	-0.497863	-1.247295	0.598976
O	-0.483687	-2.256674	-0.149769
O	-0.533805	-1.312819	1.841174
C	-0.148225	1.5373	-2.010118
H	-0.975748	2.117919	-1.5972
H	0.79795	1.982784	-1.702353
H	-0.212254	1.578487	-3.102577
N	-1.588238	-0.400179	-2.020219
H	-1.48218	-0.509801	-3.029903
H	-1.689094	-1.338613	-1.641209
H	-1.837975	0.0	0.0
