17

C	0.0	0.0	0.0
C	-0.305657	0.017162	-1.550278
Br	1.930728	0.0	0.0
H	-1.386369	0.135604	-1.583928
C	-0.499995	1.209338	0.638321
N	-0.583946	2.266847	1.159089
N	-0.464721	-1.177858	0.795638
O	-0.462222	-2.281342	0.232311
O	-0.52272	-1.025405	2.022265
C	0.064614	-1.229695	-2.350073
H	-0.554167	-2.081138	-2.074009
H	1.1136	-1.506723	-2.22477
H	-0.101153	-0.989802	-3.406607
N	0.27959	1.247763	-2.087486
H	-0.305637	1.576168	-2.84453
H	1.208486	1.074476	-2.453836
H	-2.132636	0.0	0.0
