17

C	0.0	0.0	0.0
C	-0.29924	-0.20305	-1.569023
Br	1.941547	0.0	0.0
H	0.590985	-0.710898	-1.940463
C	-0.487965	1.221361	0.596528
N	-0.582353	2.310309	1.049267
N	-0.370294	-1.172541	0.847975
O	-0.493808	-0.997832	2.060208
O	-0.314642	-2.280566	0.299446
C	-0.384905	1.17918	-2.198613
H	-0.443207	1.06147	-3.282594
H	-1.287799	1.687555	-1.849725
H	0.478863	1.797461	-1.944441
N	-1.407331	-1.016295	-2.035121
H	-1.274404	-1.94404	-1.648304
H	-2.241356	-0.650598	-1.581426
H	-1.975718	0.0	0.0
