17

C	0.0	0.0	0.0
C	-0.249811	0.086218	-1.576417
Br	1.937059	0.0	0.0
H	0.260263	1.022504	-1.838657
C	-0.447068	1.214401	0.666828
N	-0.593062	2.280939	1.151067
N	-0.667553	-1.155817	0.641278
O	-0.677201	-1.158182	1.890125
O	-0.723111	-2.215484	-0.043308
C	-1.685722	0.19737	-2.095089
H	-2.230525	1.057266	-1.704917
H	-2.241079	-0.717183	-1.881303
H	-1.612493	0.312537	-3.18996
N	0.461066	-1.000057	-2.264583
H	0.154958	-0.988952	-3.231374
H	0.133021	-1.86298	-1.839898
H	-1.928485	0.0	0.0
