18

C	0.0	0.0	0.0
C	-0.368932	0.029629	-1.533863
Cl	1.797236	0.0	0.0
H	0.524197	0.433869	-2.015385
N	-0.506701	1.156108	0.684593
H	-1.523224	1.141291	0.567849
H	-0.312131	1.069094	1.677385
C	-0.372431	-1.269125	0.657202
N	-0.636543	-2.254895	1.241317
C	-1.516151	0.955426	-1.916303
H	-2.472962	0.614132	-1.515247
H	-1.57631	0.975011	-3.011984
H	-1.331254	1.977845	-1.575181
C	-0.59103	-1.381038	-2.074409
H	-1.511788	-1.804715	-1.667743
H	0.24339	-2.046881	-1.833315
H	-0.685487	-1.338906	-3.16314
Cl	-4.140061	0.0	0.0
