18

C	0.0	0.0	0.0
C	-0.351509	-0.046023	-1.535177
Cl	1.808179	0.0	0.0
H	0.499497	-0.52998	-2.021756
N	-0.562507	1.044814	0.79869
H	-1.564273	0.856625	0.895452
H	-0.456606	1.932388	0.322613
C	-0.340431	-1.289978	0.627339
N	-0.544881	-2.346549	1.09744
C	-0.465568	1.37422	-2.080697
H	-1.38589	1.846846	-1.728731
H	-0.513443	1.338609	-3.171973
H	0.395073	1.994772	-1.809519
C	-1.594283	-0.863556	-1.866447
H	-1.790253	-0.77931	-2.940963
H	-1.443059	-1.92108	-1.63614
H	-2.482308	-0.52349	-1.329151
Cl	-4.288048	0.0	0.0
