18

C	0.0	0.0	0.0
C	-0.49787	-0.157142	-1.443886
Cl	1.854162	0.0	0.0
H	-1.582628	-0.274987	-1.304725
N	-0.514203	1.153137	0.607471
H	-0.461456	1.161708	1.613006
H	-0.177123	2.008055	0.194544
C	-0.341581	-1.18229	0.80246
N	-0.545225	-2.130775	1.464247
C	0.079301	-1.386096	-2.136455
H	-0.466786	-1.559361	-3.067523
H	1.137299	-1.254371	-2.377632
H	-0.024716	-2.282965	-1.521278
C	-0.254182	1.110316	-2.255825
H	-0.534322	0.931367	-3.297147
H	0.800223	1.406092	-2.23917
H	-0.876494	1.930963	-1.894005
Cl	-3.851073	0.0	0.0
