18

C	0.0	0.0	0.0
C	-0.343341	-0.100561	-1.54124
Cl	1.808092	0.0	0.0
H	0.539751	-0.542127	-2.010131
N	-0.554683	1.074814	0.764919
H	-1.561426	0.898209	0.851272
H	-0.4337	1.946106	0.263311
C	-0.347094	-1.265233	0.671039
N	-0.561539	-2.306368	1.170864
C	-0.5341	1.29953	-2.117188
H	0.298366	1.967215	-1.869339
H	-1.472733	1.731145	-1.762124
H	-0.590062	1.236908	-3.207182
C	-1.523476	-1.003085	-1.885682
H	-1.642331	-1.005533	-2.97545
H	-2.456498	-0.668065	-1.430031
H	-1.342099	-2.033265	-1.569311
Cl	-4.147363	0.0	0.0
