18

C	0.0	0.0	0.0
C	-0.164921	-0.404566	-1.558661
Cl	1.852633	0.0	0.0
H	0.64391	0.174675	-2.011057
N	-0.575925	1.234188	0.275278
H	-0.322564	1.963009	-0.368528
H	-0.651683	1.512513	1.243965
C	-0.45468	-1.020353	0.9383
N	-0.677897	-1.827081	1.766386
C	-1.45699	-0.01965	-2.275749
H	-1.995757	-0.875415	-2.68359
H	-1.213867	0.717356	-3.059758
H	-2.151463	0.447455	-1.578082
C	0.17716	-1.872764	-1.782649
H	-0.595249	-2.522661	-1.346901
H	1.156399	-2.157179	-1.379519
H	0.193398	-2.047733	-2.861996
Cl	-3.666399	0.0	0.0
