12

C	-0.471642	0.02169	-1.45339
C	0.0	0.0	0.0
F	-0.028532	1.168914	-2.069173
H	1.093622	0.0	0.0
H	-0.330306	-0.930406	0.472029
C	0.045896	-1.150539	-2.185929
N	0.427678	-2.070327	-2.80819
C	-1.949009	0.001313	-1.545535
N	-3.122295	-0.020871	-1.595736
C	-0.537195	1.142686	0.726096
N	-0.988439	2.057458	1.307227
Br	3.394567	0.0	0.0
