12

C	-0.474196	-0.090095	-1.449575
C	0.0	0.0	0.0
F	-0.029702	-1.26207	-2.014235
H	1.09368	0.0	0.0
H	-0.327667	0.952483	0.426856
C	-1.952076	-0.077146	-1.539271
N	-3.125245	-0.059002	-1.590947
C	0.038507	1.050415	-2.233546
N	0.416794	1.947871	-2.889901
C	-0.533128	-1.107305	0.779898
N	-0.978696	-1.998177	1.400943
Br	3.393349	0.0	0.0
