12

C	-0.471914	0.086777	-1.450961
C	0.0	0.0	0.0
F	-0.030043	1.260868	-2.015071
H	1.093681	0.0	0.0
H	-0.329714	-0.950858	0.429707
C	0.046494	-1.051582	-2.234759
N	0.424827	-1.945937	-2.894895
C	-1.949095	0.069832	-1.544368
N	-3.122048	0.048697	-1.599752
C	-0.536954	1.108625	0.777096
N	-0.987676	1.995438	1.400307
Br	3.393753	0.0	0.0
