12

C	-0.47402	0.013798	-1.453859
C	0.0	0.0	0.0
F	0.028709	-1.105745	-2.080216
H	1.093481	0.0	0.0
H	-0.340984	-0.937914	0.448122
C	-1.949826	-0.052099	-1.541734
N	-3.121256	-0.127147	-1.583723
C	-0.018929	1.215809	-2.17699
N	0.285775	2.173849	-2.783615
C	-0.541424	1.134329	0.733262
N	-0.996735	2.045821	1.316716
Br	3.398088	0.0	0.0
