12

C	-0.473281	-0.001579	-1.453031
C	0.0	0.0	0.0
F	-0.032125	-1.140767	-2.084916
H	1.093585	0.0	0.0
H	-0.33075	0.923056	0.486144
C	-1.950799	0.021599	-1.542945
N	-3.124197	0.043344	-1.591229
C	0.045313	1.179807	-2.170128
N	0.425335	2.106563	-2.783292
C	-0.533745	-1.154046	0.711235
N	-0.979908	-2.07669	1.283981
Br	3.396251	0.0	0.0
