12

C	-0.492474	-0.025772	-1.439666
C	0.0	0.0	0.0
F	-1.884151	0.042614	-1.466611
H	1.093588	0.0	0.0
H	-0.334067	0.938262	0.452495
C	0.012961	1.142048	-2.183858
N	0.392604	2.066571	-2.799504
C	-0.103503	-1.262599	-2.1407
N	0.1667	-2.238853	-2.734731
C	-0.540669	-1.126061	0.748675
N	-0.994704	-2.014268	1.367806
Br	3.38022	0.0	0.0
