12
Coordinates from ORCA-job run
  C   -0.26746841987915     -0.45402437837932      0.20647011229601
  C   0.89864387602727      0.40688904806603     -0.27964945847238
  Br  -0.06672730403508     -0.79290490271436      2.11927442206876
  H   0.92614046241257      1.34404881483572      0.28368246025050
  H   -0.22011858099091     -1.43895369694672     -0.26137616527194
  H   0.73209014896016      0.65923156843595     -1.33314917781563
  C   -1.60393432938334      0.21169542839326     -0.06455465569129
  H   -2.42672843751396     -0.40674791428000      0.29496206418255
  H   -1.72993354714644      0.36178856390616     -1.14129841087350
  H   -1.66111517040769      1.18158974194028      0.43401398066848
  C   2.19274806407369     -0.26167133544242     -0.16453568559642
  N   3.22740323788289     -0.80994093781459     -0.09183948574514
