12
Coordinates from ORCA-job run
  C   -0.37262564746080     -0.67754196605532      0.15981051432028
  C   0.99297149671768     -0.42673721826994     -0.48199967642250
  Br  -0.12794910783862     -1.13699152713596      2.04343068719259
  H   1.65115220719245     -1.28507325626506     -0.32735343272626
  H   -0.80026710245746     -1.57434906792627     -0.29310063845827
  H   0.85242645982764     -0.30767776508065     -1.56274056310318
  C   -1.31978416904464      0.49925415851422      0.02749243827446
  H   -0.92292839821842      1.37790384082304      0.53872230139375
  H   -2.29432434897109      0.26115053562077      0.45481107045892
  H   -1.45554662798400      0.74263047567430     -1.03130584047450
  C   1.64479177854322      0.77539930247206      0.03448725257148
  N   2.15208345969404      1.75303248762880      0.43874588697322
