14

C	-0.49862	-0.056491	-1.435371
C	0.0	0.0	0.0
F	-1.808613	-0.438179	-1.503262
H	1.092921	0.0	0.0
H	0.106794	-0.717444	-2.055712
N	-0.392461	1.321534	-2.037476
O	-1.427547	1.944833	-2.224728
O	0.747512	1.691428	-2.283108
C	-0.43014	-1.237943	0.672913
N	-0.805053	-2.191412	1.248307
N	-0.455854	1.211815	0.660255
H	0.221753	1.46339	1.365468
H	-1.361952	1.090117	1.091654
Cl	3.263291	0.0	0.0
