14

C	-0.508513	-0.101871	-1.429213
C	0.0	0.0	0.0
F	-1.821065	-0.479519	-1.471316
H	1.092969	0.0	0.0
H	0.088637	-0.786496	-2.033762
N	-0.404212	1.255556	-2.07759
O	0.731961	1.600991	-2.368071
O	-1.436155	1.890556	-2.248988
C	-0.428702	-1.214378	0.715155
N	-0.799368	-2.146055	1.327294
N	-0.449817	1.232686	0.626767
H	-1.346643	1.123477	1.079212
H	0.241832	1.51804	1.30711
Cl	3.262154	0.0	0.0
