14

C	-0.52566	-0.087118	-1.421764
C	0.0	0.0	0.0
F	-1.856766	-0.402375	-1.441272
H	1.092924	0.0	0.0
H	0.026573	-0.806342	-2.028132
N	-0.364182	1.252882	-2.091206
O	-1.36466	1.94238	-2.236708
O	0.778792	1.52893	-2.430783
C	-0.430109	-1.218709	0.707466
N	-0.80036	-2.155363	1.312666
N	-0.440984	1.231313	0.63625
H	-1.34338	1.126753	1.083886
H	0.253775	1.505428	1.322046
Cl	3.26538	0.0	0.0
