14

C	-0.38939	0.150767	-1.449592
C	0.0	0.0	0.0
F	-0.325331	-1.024176	-2.138254
H	1.101769	0.0	0.0
H	0.227481	0.903786	-1.936069
N	-1.816511	0.630209	-1.589079
O	-2.649731	0.152389	-0.82172
O	-2.049723	1.428471	-2.494614
C	-0.491105	-1.241704	0.601748
N	-0.871194	-2.212542	1.141626
N	-0.406822	1.221229	0.688125
H	0.301456	1.455155	1.372341
H	-1.295948	1.095058	1.154678
Cl	3.247304	0.0	0.0
