14

C	-0.411049	-0.24633	-1.434202
C	0.0	0.0	0.0
F	-0.366346	-1.565505	-1.771505
H	1.098611	0.0	0.0
H	0.198669	0.341157	-2.118615
N	-1.836793	0.19814	-1.662381
O	-2.058901	0.911771	-2.637844
O	-2.678438	-0.211874	-0.864974
C	-0.481814	-1.035418	0.919878
N	-0.86144	-1.810095	1.717334
N	-0.416615	1.355407	0.34409
H	0.290223	1.774133	0.932164
H	-1.301168	1.353041	0.832745
Cl	3.251287	0.0	0.0
