14

C	-0.520408	-0.112473	-1.422654
C	0.0	0.0	0.0
F	-1.851458	-0.421451	-1.444069
H	1.096364	0.0	0.0
H	0.033756	-0.843557	-2.012889
N	-0.350631	1.218562	-2.110432
O	0.798907	1.493656	-2.424357
O	-1.349719	1.902049	-2.290242
C	-0.435211	-1.204089	0.729222
N	-0.825428	-2.129613	1.338809
N	-0.439741	1.243514	0.612504
H	-1.341605	1.14878	1.059777
H	0.250745	1.527178	1.295218
Cl	3.262959	0.0	0.0
