15

C	0.0	0.0	0.0
C	-0.389183	-0.464711	-1.439378
F	1.377855	0.0	0.0
H	0.564727	-0.599221	-1.96151
C	-0.44434	1.332018	0.437428
N	-0.560328	2.412465	0.886092
C	-0.413668	-0.986297	1.01551
N	-0.501575	-1.762911	1.893057
N	-1.004305	0.700161	-2.234467
O	-1.961736	0.459948	-2.958047
O	-0.3932	1.766035	-2.191164
N	-1.152285	-1.646268	-1.451392
H	-1.364269	-1.90539	-2.40573
H	-2.004959	-1.361643	-0.941713
F	-2.355195	0.0	0.0
