15

C	0.0	0.0	0.0
C	-0.402497	-0.591354	-1.390373
F	1.358746	0.0	0.0
H	0.546388	-0.757842	-1.913394
C	-0.453211	1.364068	0.320968
N	-0.555521	2.475728	0.690213
C	-0.423201	-0.890438	1.099752
N	-0.510782	-1.582587	2.045661
N	-1.051156	0.484535	-2.278928
O	-1.994738	0.149009	-2.982222
O	-0.478662	1.571262	-2.327775
N	-1.148133	-1.779611	-1.286995
H	-2.000869	-1.461718	-0.797254
H	-1.364497	-2.126069	-2.212537
F	-2.362505	0.0	0.0
