15

C	0.0	0.0	0.0
C	-0.496292	-0.649506	-1.349288
F	1.363029	0.0	0.0
H	-1.260095	-1.371889	-1.094108
C	-0.458039	1.390607	0.115962
N	-0.553035	2.560022	0.192715
C	-0.431275	-0.797524	1.159937
N	-0.53667	-1.473664	2.11574
N	0.679609	-1.423386	-1.891119
O	1.345936	-0.936207	-2.799977
O	0.903862	-2.502263	-1.342944
N	-1.012822	0.237206	-2.338232
H	-1.861534	0.572868	-1.882536
H	-0.378758	1.013125	-2.492938
F	-2.355783	0.0	0.0
