15

C	0.0	0.0	0.0
C	-0.357787	-0.224771	-1.515012
F	1.380019	0.0	0.0
H	0.606846	-0.413228	-1.997918
C	-0.465329	1.256761	0.600735
N	-0.606877	2.30459	1.114009
C	-0.43382	-1.151247	0.808208
N	-0.549952	-2.104832	1.48585
N	-0.739825	1.140739	-2.124096
O	-1.776616	1.228796	-2.76805
O	0.104989	2.028949	-2.001811
N	-1.260556	-1.264935	-1.769361
H	-2.11123	-0.987246	-1.246565
H	-1.405079	-1.363083	-2.76332
F	-2.374962	0.0	0.0
