15

C	0.0	0.0	0.0
C	-0.371221	-0.351388	-1.505866
F	1.370586	0.0	0.0
H	0.602766	-0.569264	-1.957083
C	-0.464938	1.280039	0.544829
N	-0.585992	2.331855	1.054582
C	-0.434662	-1.112588	0.860359
N	-0.537403	-2.070872	1.533841
N	-0.790764	0.932898	-2.195577
O	0.031253	1.847491	-2.108172
O	-1.838734	0.977847	-2.816713
N	-1.285328	-1.391123	-1.78336
H	-0.844075	-2.27942	-1.580739
H	-2.069491	-1.198461	-1.138513
F	-2.34041	0.0	0.0
