15

C	0.0	0.0	0.0
C	-0.404784	0.147939	-1.504259
F	1.381743	0.0	0.0
H	-1.471118	0.357759	-1.499644
C	-0.458633	1.199351	0.712413
N	-0.539297	2.235847	1.26417
C	-0.472874	-1.232716	0.633419
N	-0.571892	-2.278706	1.162747
N	-0.222326	-1.175094	-2.193855
O	-1.173905	-1.617182	-2.831137
O	0.887221	-1.703387	-2.117574
N	0.391203	1.100868	-2.222129
H	1.351409	1.070088	-1.905498
H	0.016967	2.027393	-2.071634
F	-2.358552	0.0	0.0
