15

C	0.0	0.0	0.0
C	-0.269443	-0.285731	-1.501812
F	1.385524	0.0	0.0
H	0.535395	0.253319	-2.024381
C	-0.42526	1.319431	0.480122
N	-0.479288	2.40238	0.935938
C	-0.463784	-1.070283	0.887641
N	-0.516722	-1.948028	1.670068
N	-1.492829	0.33999	-2.110385
O	-2.258392	-0.376973	-2.745645
O	-1.511103	1.56369	-2.095956
N	-0.262796	-1.706419	-1.720281
H	0.694926	-2.032127	-1.738224
H	-0.720302	-1.912443	-2.597461
F	-2.235416	0.0	0.0
