15

C	0.0	0.0	0.0
C	-0.57065	-0.164203	-1.387216
F	1.390864	0.0	0.0
H	-1.659827	-0.200494	-1.168094
H	-0.355478	0.93306	0.443944
C	-0.385354	-1.115821	0.889546
N	-0.522997	-1.993734	1.656359
N	-0.121904	-1.4346	-1.952736
H	-0.859652	-1.82461	-2.52251
H	0.694062	-1.298878	-2.536943
C	-0.262005	1.050988	-2.25065
H	0.818675	1.19061	-2.372999
H	-0.686273	1.957629	-1.809193
H	-0.706568	0.923027	-3.241674
H	-3.127992	0.0	0.0
