15

C	0.0	0.0	0.0
C	-0.436958	-0.052618	-1.458053
F	1.391134	0.0	0.0
H	-1.524492	-0.195039	-1.384881
H	-0.382538	0.889377	0.497386
C	-0.382161	-1.20794	0.765335
N	-0.378657	-2.233871	1.333685
N	0.198681	-1.212283	-2.081711
H	1.184028	-1.014348	-2.226262
H	-0.227333	-1.369565	-2.98582
C	-0.115904	1.28074	-2.133956
H	0.955893	1.506739	-2.060049
H	-0.683737	2.101148	-1.676447
H	-0.383328	1.233931	-3.192135
H	-2.851484	0.0	0.0
