15

C	0.0	0.0	0.0
C	-0.41579	0.299985	-1.479065
F	1.389141	0.0	0.0
H	0.492396	0.782746	-1.865283
H	-0.349496	0.79547	0.659738
C	-0.413119	-1.301578	0.543439
N	-0.539708	-2.383173	0.985291
N	-1.531924	1.201163	-1.675713
H	-2.316646	0.798216	-1.102555
H	-1.306652	2.091919	-1.237677
C	-0.659981	-0.984477	-2.258438
H	-0.780574	-0.737707	-3.315168
H	-1.581925	-1.445556	-1.898935
H	0.166456	-1.693658	-2.143704
H	-3.109481	0.0	0.0
