15
Coordinates from ORCA-job run
  C   0.44637513058267      0.03921921965746     -0.19920397029017
  C   -1.03573578870904     -0.30971560495272     -0.27517845654559
  Cl  1.07047517457018      0.36096816151028     -1.85164247312366
  H   -1.33384021823428     -0.56205421502018      0.75933662508378
  H   -1.15103843461423     -1.21505274083852     -0.87792229831858
  C   1.25335637202204     -1.11889730193540      0.37142440665858
  H   1.14290359042374     -2.01713993957371     -0.23929515648314
  H   2.31231751723373     -0.85657410921148      0.41113397707635
  H   0.90953069744462     -1.34050758247362      1.38682896822125
  N   0.58053050296544      1.28356988359838      0.55014672800345
  H   1.52117156559342      1.64760229116109      0.45060788591673
  H   0.42670771991993      1.08531937201955      1.53445184521702
  N   -1.79974013986205      0.76989007330893     -0.87172055321221
  H   -2.78990820755763      0.60245662753383     -0.75042397093546
  H   -1.55210548177855      1.63091586521611     -0.39954355726835
