15
Coordinates from ORCA-job run
  C   0.58248485469196      0.10780874988929     -0.21238306161309
  C   -0.84883352072154      0.11641894061920     -0.75339816212349
  Cl  1.66124222522451      0.04055991031580     -1.73582560500841
  H   -0.95359968226590     -0.70104984148428     -1.47008078760531
  H   -0.98042200339546      1.04822228412883     -1.31889747155316
  C   0.89755390925448     -1.12691709625150      0.60143566732180
  H   0.24031066618613     -1.13655379113879      1.47045744951319
  H   1.94118740177011     -1.11615705924409      0.92399517782397
  H   0.73605535902896     -2.02860007714330      0.00922603593323
  N   0.82095208238852      1.28349423310870      0.54196936483275
  H   0.72289476562158      2.11506496810512     -0.02742805654935
  H   1.74412030845877      1.27970096766443      0.95671243566327
  N   -1.80211607054306     -0.02679411350003      0.33867717539844
  H   -2.24862331989022      0.84858198317513      0.56468409797514
  H   -2.51420697580884     -0.70478005824451      0.11185573999101
