15
Coordinates from ORCA-job run
  C   0.57503265397011      0.12167899266172     -0.17350314906400
  C   -0.91177866477457      0.48010667260592     -0.15036507341872
  Cl  0.98579304685227     -0.24854511943966     -1.90352178198499
  H   -1.04340878773118      1.38021956262492     -0.77179873391039
  H   -1.14578441748555      0.75781112242207      0.88394407125667
  C   0.88804935528497     -1.10051844652057      0.66267351020781
  H   0.29134018094383     -1.94806037046237      0.33401817040863
  H   0.64029331277047     -0.89427966193227      1.70962333545087
  H   1.95068819303207     -1.33188122688736      0.58841833039007
  N   1.43051025260420      1.21523757462071      0.22430976993492
  H   1.16867317559500      2.06860823534352     -0.25660861771174
  H   1.34645774329972      1.36300432900169      1.22369293076312
  N   -1.76149038673603     -0.64053358005618     -0.52539208830665
  H   -2.72864170907893     -0.42265919363971     -0.32231560336155
  H   -1.68473394854639     -0.80118889034242     -1.52217507065406
