17
Coordinates from ORCA-job run
  C   -0.49720812463360      0.20440090575852      0.55892653547259
  C   0.85565325030190      0.36234415207056     -0.14172606730444
  Cl  -0.95754474790343      1.95009578398375      0.95296325006303
  H   1.56357374377906      0.86414275278609      0.51329047599477
  N   -0.23644938343216     -0.57885242595547      1.71050835934455
  H   0.41725365628452     -0.14265675714483      2.34930318052947
  H   -1.08764581406231     -0.81187150159074      2.20482095874729
  C   -1.64251843016437     -0.39438620806571     -0.23209084320733
  H   -1.88384017279340      0.20318180161778     -1.10502826851360
  H   -2.51834305245632     -0.42754405510573      0.42032239234593
  H   -1.38603488202747     -1.40548595278512     -0.54584995424250
  N   0.83972810986897      1.16844345381877     -1.40412753101053
  O   0.03603343335539      0.86159480662643     -2.27708205668157
  O   1.67316798659787      2.07057543045973     -1.45688309747027
  N   1.45871401550775     -0.98175383906857     -0.45009639796333
  O   0.91665616115831     -1.66541681766580     -1.30999564723779
  O   2.44880425061931     -1.27481152973966      0.21274471113372
