17
Coordinates from ORCA-job run
  C   -0.63297901962529      0.30408764360920      0.37327439407625
  C   0.46046414747818      0.39679398349515     -0.70152572945878
  Cl  -1.50112471111121      1.88195317916803      0.32666411083642
  H   0.07414687474745      0.81153874031319     -1.62958128826779
  N   -0.03002139553202      0.19134234650777      1.67244801604300
  H   -0.74579056508344      0.19808217895244      2.38888984336555
  H   0.50042548810696     -0.67091815057738      1.72890811876715
  C   -1.65550756745659     -0.76465029004623     -0.00749306007990
  H   -2.02945560335325     -0.62191387441524     -1.02445209213448
  H   -2.50322313467416     -0.69486699519782      0.67609931009161
  H   -1.21521952594832     -1.75796846435810      0.08513637778470
  N   1.06242506367478     -0.93354375675599     -1.04378565529764
  O   1.40569974003673     -1.06955148700673     -2.21547606335072
  O   1.19521597842570     -1.76108293369259     -0.14628094605126
  N   1.60348661845507      1.27947689742693     -0.26544382969897
  O   1.46367121122771      2.46944749232910     -0.51320001316233
  O   2.54778640063168      0.74077349024826      0.29581850653721
