17
Coordinates from ORCA-job run
  C   -0.55637843384277      0.29725588489602      0.58839589217844
  C   0.84845520511626      0.31713863547491     -0.06859563724218
  Cl  -0.92063843877940      2.02942743020480      0.89630225047308
  H   1.60203594341930      0.59789214124844      0.66501013325136
  N   -0.54977053930322     -0.35667014207353      1.86692656843053
  H   0.14298344680376      0.04145086895098      2.49006082379143
  H   -0.36977568070318     -1.34789459979000      1.76230328553627
  C   -1.63273253401283     -0.32097142735894     -0.28122755410107
  H   -1.42222893999507     -1.38365660925995     -0.43650681347568
  H   -2.57948730907745     -0.23295323044884      0.25068720919415
  H   -1.69907481803385      0.17043378481684     -1.24760708396377
  N   1.04165532738910      1.24841558765298     -1.22743370673284
  O   0.13648821524416      1.37094454065197     -2.04194798560629
  O   2.14021506174297      1.79954858335585     -1.26188486837584
  N   1.19992524669802     -1.06623062935094     -0.54843655013896
  O   1.49847640952849     -1.85843145460307      0.34137072430338
  O   1.12185183780572     -1.30669936436751     -1.74641668752203
