14

C	-0.444233	0.008865	-1.431461
C	0.0	0.0	0.0
F	0.093044	1.038087	-2.089532
H	1.094872	0.0	0.0
H	-0.315873	0.952295	0.434838
N	-0.104996	-1.274977	-2.171081
O	-0.785048	-2.239103	-1.837027
O	0.780783	-1.228815	-3.006508
N	-1.959312	0.148179	-1.624181
O	-2.646518	0.353101	-0.631054
O	-2.339709	0.097931	-2.788592
C	-0.533434	-1.096002	0.792418
N	-0.92622	-1.975158	1.463296
Cl	3.223864	0.0	0.0
