14

C	-0.433858	0.204123	-1.420622
C	0.0	0.0	0.0
F	0.015484	-0.781925	-2.202
H	1.105234	0.0	0.0
H	-0.323506	-1.00399	0.288569
N	-1.952973	0.221532	-1.623795
O	-2.330947	0.585627	-2.731492
O	-2.649803	-0.191328	-0.705335
N	0.03026	1.530054	-1.990919
O	0.842118	1.50144	-2.900552
O	-0.481527	2.508722	-1.460355
C	-0.536609	0.966089	0.945133
N	-0.961849	1.695032	1.761583
Cl	3.214845	0.0	0.0
