14

C	-0.441771	-0.008667	-1.433961
C	0.0	0.0	0.0
F	-0.141629	-1.176638	-2.01259
H	1.090192	0.0	0.0
H	-0.329173	-0.950767	0.426815
N	-1.962006	0.141775	-1.582567
O	-2.39509	0.945075	-2.400405
O	-2.613396	-0.621657	-0.880355
N	0.161822	1.112389	-2.257424
O	0.149055	2.209922	-1.719129
O	0.556239	0.826034	-3.377188
C	-0.558589	1.089087	0.7854
N	-1.03269	1.917398	1.469196
Cl	3.2125	0.0	0.0
