14

C	-0.574718	-0.239801	-1.36407
C	0.0	0.0	0.0
F	-1.897645	-0.505235	-1.325535
H	1.091258	0.0	0.0
H	-0.306786	-0.84523	0.621834
N	-0.359797	0.93998	-2.293201
O	0.807871	1.263982	-2.441742
O	-1.357322	1.449135	-2.785985
N	0.050604	-1.453432	-2.037172
O	0.204112	-1.404727	-3.25128
O	0.237659	-2.412356	-1.300935
C	-0.544258	1.232938	0.551504
N	-1.001383	2.217842	0.996116
Cl	3.22274	0.0	0.0
