14

C	-0.434153	0.19327	-1.419731
C	0.0	0.0	0.0
F	-0.174484	1.406779	-1.899043
H	1.105761	0.0	0.0
H	-0.330776	-0.981103	0.341493
N	0.228496	-0.844513	-2.319834
O	0.957056	-0.441406	-3.207707
O	-0.070323	-2.001207	-2.046026
N	-1.928912	-0.057287	-1.656962
O	-2.600149	-0.466989	-0.718239
O	-2.316962	0.176663	-2.796613
C	-0.54265	1.045488	0.850742
N	-0.988905	1.883149	1.539395
Cl	3.213739	0.0	0.0
