14
Coordinates from ORCA-job run
  C   0.79192926534621      0.09043273361188      0.13761974264787
  C   -0.67022942521035      0.53855541249679      0.20047160462233
  Br  1.30719578167607     -0.80120390969442      1.81696320963928
  H   -0.77459586441548      1.23799531462773      1.03385096447701
  H   -0.85261306226237      1.11355879210013     -0.71728920479411
  N   0.98763357983577     -0.85821415236813     -0.93258959751197
  H   0.70837311847935     -0.43169728325792     -1.81114383676819
  H   1.96227071664076     -1.12839814669510     -1.00002829816386
  C   1.66233376048677      1.27514520957377      0.04075579390180
  N   2.33917921249430      2.22410448763578     -0.11659282746533
  C   -1.67191223935301     -0.60306055284031      0.31375959193627
  H   -1.54286103278495     -1.14627958009763      1.25023367856768
  H   -2.68715952017731     -0.20076362595586      0.29229247246483
  H   -1.55954429075574     -1.31017469913671     -0.50730329355362
