14
Coordinates from ORCA-job run
  C   0.79546681534935      0.08876051959967      0.11888260934676
  C   -0.66802487811202      0.51239058417873      0.26649634456353
  Br  1.37522638139042     -0.93078831442176      1.70230646857189
  H   -0.88595822582987      1.16034265718547     -0.59308327787332
  H   -0.75090283013563      1.13811539851605      1.15883544738508
  N   0.96380608092935     -0.76696170624100     -1.03099861061321
  H   0.64821133543881     -0.27544034023107     -1.86197204599958
  H   1.93811382509974     -1.01799488073855     -1.15388650240825
  C   1.65127684948923      1.28751971886099      0.09141079077408
  N   2.31325146624711      2.25472536650861     -0.00823516962939
  C   -1.65450754961025     -0.64675053728136      0.31584234132485
  H   -1.56735524889355     -1.27842441807903     -0.56745450138875
  H   -1.48521379378459     -1.26803915602630      1.19567619587084
  H   -2.67339022757812     -0.25645489183044      0.36717991007546
