14
Coordinates from ORCA-job run
  C   0.85350393976408     -0.04905433099917     -0.01456874096961
  C   -0.61708241394162     -0.37620110208027     -0.30590057003957
  Br  1.43878701667762     -1.11534003995433      1.54271462889605
  H   -0.66672820882364     -1.44843556725798     -0.52386250136451
  H   -0.85723296288046      0.15507448725262     -1.23584722532804
  N   1.77782737346262     -0.33751031621634     -1.08732333173227
  H   1.60352007651686      0.28962233956442     -1.86614061275500
  H   1.65215621336785     -1.29488894685563     -1.39738186670211
  C   0.99260136550650      1.36364167138094      0.35144648538340
  N   1.04995192019655      2.51151666411148      0.59580010552277
  C   -1.61204437439480      0.00373197788125      0.78226811598515
  H   -1.56671716507657      1.07233584241030      1.00326582576145
  H   -1.42103665074341     -0.54746055880223      1.70330702111107
  H   -2.62750612963157     -0.22703212043507      0.45322266623120
