14
Coordinates from ORCA-job run
  C   0.80491750964608      0.06269094078486      0.06282221931740
  C   -0.63137421586191      0.50674927581334      0.34822954637856
  Br  1.47465369287107     -1.07229839935260      1.52762588056979
  H   -0.63189058297757      1.07301686318197      1.28303826889355
  H   -0.89616026834823      1.21491091391755     -0.44832275559946
  N   0.86502521235210     -0.71774712553833     -1.14989586067727
  H   1.82071097506220     -0.98090937837234     -1.36142397051301
  H   0.50319477308985     -0.16418072021901     -1.92082884276845
  C   1.68656382194388      1.24289571432077      0.04937859556645
  N   2.35158653679922      2.21004225456491     -0.02653159009959
  C   -1.64172871769637     -0.63201386875528      0.39648019903268
  H   -2.64317467856266     -0.22436097462258      0.55128244932921
  H   -1.42362730137936     -1.31496381593085      1.21788857408039
  H   -1.63769675693829     -1.20383167979238     -0.53074271351024
