14
Coordinates from ORCA-job run
  C   0.86174843548263      0.18293212277414      0.15546113381470
  C   -0.63982743356999      0.51338594495315      0.21120745811234
  Br  1.38159624546671     -0.68891040007106      1.85054660271699
  H   -0.84594269508582      1.12280373848514     -0.67800202842525
  H   -0.82253595539560      1.14774371656191      1.08293073327601
  N   1.30485886104804     -0.67789208388027     -0.91629381290854
  H   1.13026773202516     -0.23175354534291     -1.81110660820377
  H   0.81801408647807     -1.56503552109851     -0.88041768718907
  C   1.61748408959073      1.43781673708384      0.08044429096580
  N   2.16637002501060      2.47171925421519     -0.02105836736811
  C   -1.55753657891285     -0.70131905388091      0.22922660332661
  H   -1.36641862520347     -1.33417920950851      1.09669328184762
  H   -2.59804004051451     -0.37387382188812      0.27510380455751
  H   -1.44903814641971     -1.30443787840308     -0.67473540452283
