14
Coordinates from ORCA-job run
  C   0.85199209171039     -0.02366112608692     -0.04506645867569
  C   -0.61759645628341     -0.39989060828020     -0.27674398384554
  Br  1.52704887239939     -1.04769789032636      1.50396343530999
  H   -0.90758357348681      0.10952125652861     -1.20473311607695
  H   -0.64214445495775     -1.47632926889844     -0.47743189437558
  N   1.74476968558407     -0.30013041162827     -1.14734197210389
  H   1.63972873039136     -1.26630127376977     -1.43709751843262
  H   1.52097401147336      0.30771321709608     -1.92878626964226
  C   0.96145189860088      1.39812549461814      0.29460981887851
  N   1.00852521434397      2.55168873730873      0.51282881215548
  C   -1.58256474482913     -0.03283550451166      0.84228661424919
  H   -1.56117583411640      1.03992375497707      1.04629938162325
  H   -2.60221836378384     -0.29819470294118      0.55490026071769
  H   -1.34120707704610     -0.56393167408585      1.76331289021844
