14
Coordinates from ORCA-job run
  C   0.87317857109308      0.16732171019988      0.08346018350898
  C   -0.61045410693402      0.47636191325487      0.34965198460184
  Br  1.57119060087916     -0.91795180032244      1.58030686036459
  H   -0.68981681481828      0.98850698544700      1.31251811586162
  H   -0.90906719437959      1.19674893862892     -0.42269230902760
  N   1.18761294444153     -0.54038199937124     -1.13535211863416
  H   0.92661511042971      0.02243532252032     -1.93853924705169
  H   0.69592885699490     -1.42493658200007     -1.16719234023982
  C   1.62677421036107      1.42547133460839      0.09009111734943
  N   2.18860294795897      2.45630705249701      0.04347740727806
  C   -1.52999273177249     -0.73621157672213      0.30870744256312
  H   -2.55608577484963     -0.42518017216926      0.51448357382841
  H   -1.52879730634228     -1.21275032096328     -0.67393567235693
  H   -1.24768931306213     -1.47774080560796      1.05701500195414
