14
Coordinates from ORCA-job run
  C   0.86520058128759      0.18533370101757      0.13067850801765
  C   -0.63639086388025      0.48691208694370      0.27701523355672
  Br  1.47205585986839     -0.80076912734975      1.73158392017850
  H   -0.78757404274286      1.05255779175690      1.20051978275704
  H   -0.88999083247623      1.15671275379998     -0.55464070463449
  N   1.27015175323739     -0.58731532797207     -1.02050358473999
  H   0.79928714463243     -1.48378552201575     -1.02612823538084
  H   1.04451765949491     -0.08146505319858     -1.87110377971026
  C   1.60114535397383      1.45390007926238      0.11569358965605
  N   2.13739462442006      2.49780972904223      0.05971346294877
  C   -1.53713914019392     -0.74015342331764      0.24534789887019
  H   -2.57848283925581     -0.43333137143402      0.36116207105629
  H   -1.46192285259942     -1.27351244691009     -0.70465524453496
  H   -1.29925240576615     -1.43189386962488      1.05431708195932
