14
Coordinates from ORCA-job run
  C   0.94258378503027     -0.20175939232022      0.06619455470945
  C   -0.45828973862677     -0.78669813367990      0.29588269285121
  Br  2.24315712614420     -1.64395119208593      0.46268727888595
  H   -0.56588543069370     -1.63644008359346     -0.38655900136072
  H   -0.51123604076413     -1.18364018362003      1.31309503486069
  N   1.22634595864601      0.28502696137414     -1.25825184750340
  H   0.92209139918387     -0.38437560759907     -1.95539733958026
  H   0.78247566625070      1.18086334533795     -1.41977003582705
  C   1.19892882233107      0.87731211938685      1.02446648176122
  N   1.34348029547625      1.76821701489329      1.77674427647003
  C   -1.56223221357942      0.23991946242636      0.06300949113633
  H   -2.53795491110222     -0.21789184585652      0.23775104069615
  H   -1.46718297238227      1.08965140276994      0.74303924410424
  H   -1.55528174591388      0.61376613256666     -0.96289187120383
