14
Coordinates from ORCA-job run
  C   0.85834451425033     -0.33686076514111      0.00592763148275
  C   -0.57934739849533     -0.78810823762436      0.25754758652910
  Br  2.05493072556947     -1.87540248371626      0.26208343357331
  H   -0.78049613401255     -1.59169535918435     -0.45532765694688
  H   -0.63215383598892     -1.20962311061438      1.26450280658058
  N   1.02518715615678      0.10924262676932     -1.35926608625731
  H   1.99205278506664      0.36037543948944     -1.53315453780982
  H   0.45312447169644      0.93275607936322     -1.51527949284104
  C   1.26345040591758      0.66554408986209      1.00717902618920
  N   1.54036008780739      1.52340340839328      1.76281608333896
  C   -1.59398067898186      0.34282084553843      0.10298523195267
  H   -2.58744315901615     -0.01726456219696      0.37755495500989
  H   -1.65687984060625      0.69443127963606     -0.92903773854379
  H   -1.35814909936358      1.18938074942560      0.75246875774239
