15

C	0.0	0.0	0.0
C	-0.534787	0.244721	-1.396378
F	1.414929	0.0	0.0
H	-0.062557	1.158085	-1.77049
H	-1.611275	0.413226	-1.272791
C	-0.336358	1.135013	0.892973
N	-0.480202	2.059594	1.600793
N	-0.488944	-1.194732	0.560513
H	-0.267635	-1.999729	-0.00517
H	-0.193297	-1.322109	1.517256
C	-0.282283	-0.923313	-2.343279
H	-0.929284	-1.767204	-2.09497
H	-0.524079	-0.630171	-3.367294
H	0.76354	-1.243553	-2.321143
Cl	-3.956968	0.0	0.0
