15

C	0.0	0.0	0.0
C	-0.470759	-0.119879	-1.43882
F	1.403823	0.0	0.0
H	0.008659	0.691767	-1.99577
H	-1.550466	0.046719	-1.438749
C	-0.313667	1.35892	0.536049
N	-0.467183	2.433402	0.985336
N	-0.488677	-1.067223	0.804585
H	-1.507908	-1.070073	0.685532
H	-0.300656	-0.871077	1.781522
C	-0.119171	-1.472964	-2.046888
H	0.948283	-1.682624	-1.947497
H	-0.672317	-2.273228	-1.55591
H	-0.377011	-1.480054	-3.109653
Cl	-3.603523	0.0	0.0
