15

C	0.0	0.0	0.0
C	-0.258625	0.127947	-1.51052
F	1.414961	0.0	0.0
H	0.173976	-0.793914	-1.914389
H	0.399151	0.944935	-1.822967
C	-0.341182	1.247719	0.732635
N	-0.551065	2.234711	1.334065
N	-0.550564	-1.182659	0.555901
H	-0.464213	-1.166135	1.566119
H	-1.553179	-1.168506	0.34947
C	-1.653356	0.35346	-2.062525
H	-2.131642	1.234874	-1.640153
H	-1.564764	0.48476	-3.146164
H	-2.330072	-0.47163	-1.861224
Cl	-4.085531	0.0	0.0
