15

C	0.0	0.0	0.0
C	-0.476879	-0.162652	-1.431878
F	1.388339	0.0	0.0
H	-1.569063	-0.169978	-1.407187
H	-0.128137	-1.154202	-1.73868
C	-0.324062	1.363757	0.521933
N	-0.490697	2.451831	0.931784
N	-0.489108	-1.06311	0.814375
H	-1.506758	-1.073299	0.690268
H	-0.309406	-0.853578	1.790586
C	0.047359	0.91936	-2.366788
H	1.138048	0.970877	-2.347576
H	-0.267359	0.711595	-3.392613
H	-0.350543	1.898622	-2.091766
Cl	-3.620663	0.0	0.0
