15

C	0.0	0.0	0.0
C	-0.386676	-0.398142	-1.417258
F	1.411378	0.0	0.0
H	-0.075213	-1.444977	-1.52036
H	0.256012	0.183853	-2.083116
C	-0.322705	1.425159	0.268998
N	-0.555302	2.5499	0.511189
N	-0.530865	-0.872384	0.980163
H	-0.866351	-0.38519	1.798085
H	-1.298263	-1.409709	0.596501
C	-1.852478	-0.206743	-1.767952
H	-2.546528	-0.759937	-1.134483
H	-2.024432	-0.520544	-2.800214
H	-2.165123	0.832922	-1.66892
Cl	-4.744432	0.0	0.0
