15

C	0.0	0.0	0.0
C	-0.344585	0.103941	-1.499249
F	1.386056	0.0	0.0
H	0.535777	0.588601	-1.932435
H	-0.358178	-0.926882	-1.869263
C	-0.321956	1.268274	0.718717
N	-0.510898	2.271177	1.29918
N	-0.549178	-1.162177	0.60604
H	-1.54201	-1.198116	0.36676
H	-0.48974	-1.100363	1.61632
C	-1.587036	0.874572	-1.920096
H	-1.559135	1.888896	-1.515976
H	-1.597269	0.948829	-3.012122
H	-2.515412	0.422865	-1.578935
Cl	-4.226723	0.0	0.0
