17

C	0.0	0.0	0.0
C	-0.437913	-0.166044	-1.486596
F	1.343115	0.0	0.0
H	-1.201278	-0.939088	-1.457524
N	-0.237467	1.417314	0.673545
O	0.671871	1.79758	1.402892
O	-1.250634	2.063842	0.438021
N	-0.650418	-0.979938	0.880597
O	-0.63929	-0.702872	2.108367
O	-0.637565	-2.157268	0.432853
N	0.693598	-0.675556	-2.264059
H	0.363975	-0.68147	-3.223452
H	1.461973	-0.014994	-2.218421
N	-1.029036	0.998349	-2.140997
H	-0.401661	1.793205	-2.052395
H	-1.865787	1.223776	-1.610712
H	-2.169938	0.0	0.0
