12
Coordinates from ORCA-job run
  C   -0.79628072526748     -0.08446858918686     -0.02260233379607
  C   0.72834478134083     -0.10492992286634     -0.26009162938381
  Br  -1.54756018977465     -1.66641408714948     -0.99496314601389
  H   1.12610608015250     -1.04037687656460      0.15369887609426
  H   -1.23941449727906      0.77472400135685     -0.52541301227066
  N   -1.07209035126807     -0.04529889405193      1.35723723575892
  H   -2.04575054542980      0.14708969998457      1.54898391745406
  H   -0.79606646229428     -0.89416784028194      1.83486538149607
  C   1.35640292127246      1.02465337343431      0.43812370685688
  N   1.87028014321797      1.93086099389394      0.97905733425800
  C   1.06595594400326     -0.05364566599760     -1.68582100305066
  N   1.34907290132632      0.01197380742909     -2.82307532740309
