12
Coordinates from ORCA-job run
  C   -0.83494003814162     -0.06377695893547     -0.06029512049907
  C   0.59214682347895      0.40486785150926     -0.40690685280545
  Br  -0.93111266426921     -2.03922910236828     -0.32967447195489
  H   0.57720181788093      1.49863473141225     -0.31480742064625
  H   -1.52451731520416      0.33946038525575     -0.80204691215150
  N   -1.18050447998857      0.39013703398590      1.23160924747728
  H   -2.16210849992942      0.24644552013199      1.42764365395543
  H   -0.63116812169007     -0.06032098558366      1.95459589711182
  C   0.97907709743241      0.06230090487574     -1.77677081637901
  N   1.27208612716381     -0.16468176067148     -2.89046940276156
  C   1.55567864010232     -0.11173790018464      0.56968485026777
  N   2.28916061316463     -0.50309971942736      1.39843734838543
