12
Coordinates from ORCA-job run
  C   -0.79935412680752      0.05565726277566      0.01423385926131
  C   0.68796295026063     -0.19174066373710     -0.31348230614459
  Br  -1.85134555982036     -1.24412409630452     -1.08814352307808
  H   0.93115587716974     -1.22600343339330     -0.03822072474864
  H   -1.10489770583323      1.03262106275357     -0.35922320862970
  N   -1.01168827155787     -0.03017062048405      1.40356037590735
  H   -0.86437394484091     -0.96531171131897      1.76269611764866
  H   -1.93339014017331      0.29034519844237      1.66985670209414
  C   1.53148028132172      0.71600392517515      0.47552689897108
  N   2.21978244900278      1.44011577355161      1.09185117614739
  C   0.97427919402529     -0.01781271418399     -1.74078642116977
  N   1.21938899725303      0.13942001672358     -2.87786894625912
