12
Coordinates from ORCA-job run
  C   -0.80412397886303     -0.13380209090157      0.02469986691126
  C   0.61229451468564      0.30382837621222     -0.40418501541314
  Br  -0.94332896464926     -2.06554786492936     -0.03223131600850
  H   0.64419728244680      1.39912377292429     -0.31398352253028
  H   -1.51200353774602      0.22801251391074     -0.73072946627051
  N   -1.02958745870942      0.32723248117731      1.37313541976623
  H   -1.23479524370584      1.32104122422563      1.36709284171477
  H   -1.81272575636702     -0.15654069148128      1.79324304866277
  C   0.88210381795134     -0.03317427455376     -1.80483996684868
  N   1.06975633247984     -0.28272094875864     -2.93628640313040
  C   1.64080232232342     -0.24427471832716      0.48416347694250
  N   2.48741067015355     -0.66217777949841      1.18092103620398
