15
Coordinates from ORCA-job run
  C   -0.75303168077453      0.00548929132499      0.22963074866124
  C   0.13983962073659     -0.71197203748098     -0.77351174988089
  Cl  -2.45598505262895     -0.67534412514679     -0.00986519512299
  H   -0.33064056220513     -0.61030062474302     -1.75260197495966
  H   0.15715926920170     -1.77926500080916     -0.52816121463009
  N   -0.85967080462618      1.41283089957103     -0.08841177367724
  H   -0.06590103020705      1.88670412261788      0.32849672817166
  H   -1.70793069227211      1.80245468273016      0.30339846917623
  N   -0.28804988601398     -0.21190854021964      1.56167934203730
  H   -0.90683358981702      0.22456410295270      2.23459786199139
  H   -0.22152812542098     -1.20025963009820      1.77425834459031
  C   1.55431560966847     -0.14216014122911     -0.80581267214229
  H   2.02232938498551     -0.18384123168249      0.17848500178245
  H   1.54377427318417      0.89481581271747     -1.14668439626539
  H   2.17215326618950     -0.71080758050483     -1.50449751973204
