15
Coordinates from ORCA-job run
  C   -0.71542635826623     -0.04343476827042      0.26570809219831
  C   0.43932439668668      0.30699435915153     -0.67283273581321
  Cl  -1.62864614460682     -1.43295073304691     -0.45479566967430
  H   0.89912342740847      1.21986822642756     -0.26841091037699
  H   0.00672673186730      0.57825016253866     -1.64020847037757
  N   -1.70836957187343      1.01070241921904      0.41468652537467
  H   -1.23957401432598      1.85000342878131      0.74153056920276
  H   -2.14640399861175      1.21757642311896     -0.47624950869901
  N   -0.20321349486139     -0.46353480329828      1.53672291690858
  H   -0.96993800932063     -0.51583067849228      2.19750315979910
  H   0.48149302004029      0.20398418822340      1.87323554935888
  C   1.49636737441149     -0.77675334909161     -0.84440244602786
  H   2.29358573124447     -0.42677621894398     -1.50473253354725
  H   1.93592504569029     -1.05353281534661      0.11383316262014
  H   1.06002586451724     -1.67456584097037     -1.28258770094626
