12
Coordinates from ORCA-job run
  C   -0.54455449786552      0.26384115767380      0.04727638164434
  C   0.69760918367401     -0.12039244663856      0.86370916374335
  Cl  -1.77120031920693      0.86558851283853      1.28846422540046
  H   1.02008101710247      0.73384531015902      1.46235137299335
  H   0.42100589935703     -0.92122463211457      1.55643231461364
  C   -0.26285253970360      1.40442875810111     -0.82896432025272
  N   -0.03189140363621      2.31554626403323     -1.53331094154413
  N   -0.99399316585460     -0.83084945399985     -0.72234123829568
  H   -1.21972203783126     -1.63137278722137     -0.14496611157904
  H   -1.78127432650024     -0.59537556709433     -1.31286949261631
  C   1.78868744274496     -0.56589236150335      0.00058733253980
  N   2.68010474771990     -0.91714275423368     -0.67636868664706
