12
Coordinates from ORCA-job run
  C   -0.45134366124312      0.31268222115166     -0.07993547521097
  C   1.06143878173973      0.19925122083726      0.16912321083551
  Cl  -1.22033048300133      0.85378991619044      1.50195423654657
  H   1.43557354138742      1.12764376986633      0.60393542241865
  H   1.55024709682825      0.03400900197243     -0.79517225829324
  C   -0.69476246921846      1.39316225364543     -1.04094402768211
  N   -0.86384395706904      2.25428053767952     -1.82144599908321
  N   -0.96491611739966     -0.90361252071037     -0.58741450895886
  H   -0.81775761376952     -1.66836228887689      0.06158836923302
  H   -1.94826124260263     -0.83511605511435     -0.81648567754295
  C   1.35365506021398     -0.92259776908410      1.05599519002286
  N   1.55930106413438     -1.84713028755735      1.74880151771474
