12
Coordinates from ORCA-job run
  C   -0.48427669731591      0.42042617773290      0.03151723790161
  C   1.03080912356727      0.09402753016846      0.03635280656169
  Cl  -0.88047027059719      1.14565965162743      1.62347279966026
  H   1.61002846792093      0.98050449830480      0.30531621527371
  H   1.32209123466857     -0.21222479474747     -0.97384960661558
  C   -0.71611829431157      1.42604117977377     -1.01359214674505
  N   -0.84896081861981      2.20485012510057     -1.88243428352828
  N   -1.37026720384357     -0.68865451894490     -0.18508788424924
  H   -1.25111507459677     -1.07149744988655     -1.11582782236423
  H   -1.21646260854737     -1.41056944988210      0.51032467409935
  C   1.31067491616171     -0.99589762652122      0.96460039975910
  N   1.49306722551371     -1.89266532272570      1.69920761024666
