12
Coordinates from ORCA-job run
  C   -0.61809100486938      0.33746867927995      0.12739006947191
  C   0.67409961364574     -0.10496279585779      0.85484082162458
  Cl  -1.73639625031700      0.90482739648545      1.41337398742634
  H   1.11916978419195      0.73605986431905      1.39266528036823
  H   0.40924714389142     -0.87327812376509      1.58709175704705
  C   -0.31117778327466      1.47046526940124     -0.75478238533219
  N   -0.02559667862055      2.37469171393425     -1.44764249397834
  N   -1.28545550928891     -0.67804954991399     -0.63620875625032
  H   -0.73444814961406     -0.94261767273267     -1.44521823835684
  H   -1.47478006489960     -1.49296117125057     -0.06450902419447
  C   1.62606796049562     -0.65073702234674     -0.10845495929637
  N   2.35736093865943     -1.08090658755310     -0.91954605852959
