12
Coordinates from ORCA-job run
  C   -0.45270089366630      0.31687335674591      0.08498497462108
  C   1.06792609025210      0.10959603879227      0.04404153680002
  Cl  -0.92150576133836      0.93365967882659      1.69571675915071
  H   1.35332064631036     -0.19649892866954     -0.96861618803522
  H   1.56914411131565      1.05660054680886      0.25756465051152
  C   -0.80171011994459      1.35926112392196     -0.90126406773661
  N   -1.07895642914313      2.13320135650308     -1.74178354550263
  N   -1.11986198489626     -0.93994703999132     -0.12338564895528
  H   -2.12491173785652     -0.83074755908341     -0.05517013239901
  H   -0.88966022324720     -1.31469587718238     -1.03759967095555
  C   1.50282938720940     -0.90753803949856      0.99678466620560
  N   1.89708691500485     -1.71676465717346      1.74872666629537
