12
Coordinates from ORCA-job run
  C   -0.48031671478112      0.27348094959780      0.07900932933949
  C   1.05216981565657      0.18826748547940      0.11590794277096
  Cl  -1.08565169377260      0.72965645920465      1.69784913038239
  H   1.46246738551967      1.15229793236310      0.42550339235877
  H   1.41656797309744     -0.01863092115874     -0.89648820117907
  C   -0.85884388735297      1.35634526240470     -0.85116325434111
  N   -1.15056941006005      2.16515761249593     -1.65304928972494
  N   -1.02995773905081     -1.01240835118917     -0.25702214166684
  H   -0.72462959689656     -1.29617897489566     -1.18211174602918
  H   -2.04267599768632     -0.98793702454304     -0.23768649946374
  C   1.51430121676309     -0.86062722762345      1.02016352295440
  N   1.92713864856366     -1.68942320213554      1.74008781459888
