12
Coordinates from ORCA-job run
  C   -0.49204323983141      0.15319138622828      0.13668418261247
  C   0.80189215764987     -0.65960084427536      0.26941103349273
  Cl  -0.91242177802379      0.84092335928068      1.72983077467200
  H   1.01182030822861     -1.14397369926057     -0.69036967107071
  H   0.61827814885641     -1.43829599006786      1.01315953890796
  C   -0.29854480187828      1.27870574027162     -0.79642176036658
  N   -0.18230204348959      2.12501051236526     -1.60420844426257
  N   -1.54957528873940     -0.75161855472109     -0.25109430331956
  H   -2.44102733854158     -0.26828017657362     -0.24804027146405
  H   -1.37781650439250     -1.09480571040352     -1.19107623707064
  C   1.94780918038617      0.15591467716913      0.65671787728521
  N   2.87393119977547      0.80182929998706      0.97540728058374
