12
Coordinates from ORCA-job run
  C   -0.55481339197296      0.24590193252062      0.02662669897864
  C   0.65807516761710     -0.12003027356663      0.89375556553535
  Cl  -1.85991613313585      0.77507643549215      1.21970115460817
  H   0.37523227401656     -0.94791117898603      1.55124496303271
  H   0.92130145468729      0.72772169458617      1.52946390107453
  C   -0.26799908768206      1.41779220712716     -0.80584024559754
  N   -0.03228917590903      2.35207675489032     -1.47738866383726
  N   -0.92972658782383     -0.84158465862625     -0.79166095045355
  H   -1.15231508392446     -1.66508193927610     -0.24621519346966
  H   -1.69798923546265     -0.61669900778889     -1.41054744509032
  C   1.80481585121286     -0.50661671870897      0.07545226757096
  N   2.73762394837700     -0.81964524766353     -0.56359205235203
