12
Coordinates from ORCA-job run
  C   -0.43005104505660      0.34106702353755     -0.08015536719087
  C   1.08200767617353      0.12643869805771      0.09743385808601
  Cl  -1.06319425378947      1.05535302839912      1.49250317382155
  H   1.50029800354256     -0.14769366323575     -0.87515377413109
  H   1.54932105880297      1.05175769667197      0.43851212949860
  C   -0.64681363805350      1.36414101823180     -1.10834407744077
  N   -0.79667995405629      2.17666926715059     -1.94287137868814
  N   -1.06204570792972     -0.86483149903301     -0.46482727193772
  H   -2.04945573009598     -0.73510546268710     -0.64538740667505
  H   -0.93518422847243     -1.58904802620002      0.23327982993542
  C   1.33937483993828     -0.94674077878463      1.05275155741020
  N   1.51242297899660     -1.83200730210821      1.80325872731187
