12
Coordinates from ORCA-job run
  C   -0.43586117434396      0.34110872405601      0.08004400346952
  C   1.06650594293767      0.03104558233189      0.13422122309320
  Cl  -0.99057743287987      0.85486279231640      1.70043813566955
  H   1.60845548073359      0.91900532428796      0.46787968536574
  H   1.41238573329946     -0.20915067606884     -0.87740513827340
  C   -0.63900698555534      1.48333621108993     -0.83359457035940
  N   -0.80245834649265      2.33699061955399     -1.62532713543626
  N   -1.16412967134494     -0.84356166189806     -0.28602398577489
  H   -2.16214322950454     -0.66823659278449     -0.28508441347351
  H   -0.88522908515648     -1.15848654897958     -1.20926644887857
  C   1.35718112165305     -1.09171075461261      1.02117302309745
  N   1.63587764665402     -1.99620301929261      1.71394562150055
