12
Coordinates from ORCA-job run
  C   -0.54338210503509      0.26210586046857      0.07156726665349
  C   0.68657126725389     -0.22347060139988      0.85164897377793
  Cl  -1.78118288292067      0.72417888549414      1.36054440994077
  H   1.00614482640184      0.55279552463097      1.54973322893007
  H   0.39794657074297     -1.09810756738970      1.44284671387564
  C   -0.24373811380189      1.49500914509137     -0.66239063876652
  N   -0.00266920397049      2.47879571967615     -1.25693336230824
  N   -0.98993743884051     -0.73169985564124     -0.82558290954918
  H   -1.76953463250373     -0.42412043665155     -1.39243281377225
  H   -1.22444039801823     -1.59363662553835     -0.34898440446232
  C   1.78561792079947     -0.57494246084749     -0.04433261801964
  N   2.68060418989242     -0.86690758789299     -0.74468384629975
