12
Coordinates from ORCA-job run
  C   -0.47377193240226      0.16437812990206     -0.08462198319835
  C   0.76306199343887     -0.60422921047558      0.40020357329853
  Cl  -1.11448792255646      1.12222282357511      1.34090096434263
  H   1.13473142841437     -1.19493359947847     -0.44158370563960
  H   0.45262411243123     -1.29035187378898      1.19402608352314
  C   -0.10695351736702      1.14120797342036     -1.11390416220740
  N   0.19026440796971      1.90394648039590     -1.95612854228754
  N   -1.41075278595696     -0.75979114438901     -0.62075304309849
  H   -1.71994085620025     -1.41267614449079      0.09002703685498
  H   -2.21779801762477     -0.28881392309069     -1.01123412150549
  C   1.81961644518261      0.26704679628203      0.90171699470689
  N   2.68340664467096      0.95299369213808      1.30135090521073
