12
Coordinates from ORCA-job run
  C   -0.47931677715346      0.27831834263085      0.07167651197539
  C   1.03862162296905      0.13188451903800      0.24777383421520
  Cl  -1.23790920112945      0.52233068741792      1.67178959248853
  H   1.43488752119134      1.02647763257563      0.73389712456467
  H   1.50198609877662      0.05860349331987     -0.74244945040579
  C   -0.73637380194140      1.49574199573193     -0.72404660961037
  N   -0.94071100734100      2.41943899015074     -1.42212506818313
  N   -1.02081437473463     -0.92491676666775     -0.50018588175885
  H   -2.02874164263720     -0.86253279105059     -0.58385294747026
  H   -0.62308065927737     -1.08928992751278     -1.41895298156196
  C   1.38307443158752     -1.05245075927214      1.02899013496294
  N   1.70837778968999     -2.00160541636167      1.63648574078362
