12
Coordinates from ORCA-job run
  C   -0.44680280276530      0.32440577664255      0.07683361199433
  C   1.06319777661847      0.05424624101083      0.14040066008803
  Cl  -1.03075207879872      0.79962128137604      1.69814309480221
  H   1.42192118491504     -0.17014318748245     -0.87036491247083
  H   1.57881908653018      0.95428837066383      0.48355856614482
  C   -0.66988772381205      1.47461145713473     -0.82210983195284
  N   -0.84001455266995      2.34305849019466     -1.59621754634530
  N   -1.13886415275194     -0.87469088371593     -0.31285756894055
  H   -2.14168850209016     -0.72922909223798     -0.30950143160550
  H   -0.85101574530356     -1.16118838098416     -1.24261507561899
  C   1.37771940738482     -1.06428852672454      1.02424412162891
  N   1.67736810274317     -1.95069154587756      1.73148631227570
