12
Coordinates from ORCA-job run
  C   -0.47756436781834      0.15969966170944     -0.07182109830156
  C   0.77699916117880     -0.61433245425148      0.35564723951665
  Cl  -1.13154545922418      1.00439122156685      1.41786743989815
  H   0.48376530142045     -1.36061111421907      1.10014712067473
  H   1.15798783447124     -1.13695648061384     -0.52607980740586
  C   -0.13519924714175      1.21196617043890     -1.03282546843230
  N   0.14521772381834      2.03784300647358     -1.81940200167166
  N   -1.39763333130362     -0.74503233880874     -0.66691941046514
  H   -1.69067002279764     -1.45102159969819     -0.00154241622906
  H   -2.21559948165486     -0.26553805657845     -1.02273539880200
  C   1.81725538882233      0.24228096410207      0.91325064215435
  N   2.66798650022926      0.91831101987890      1.35541315906370
