12
Coordinates from ORCA-job run
  C   -0.59635218929580      0.22244562694710      0.20237059745982
  C   0.72609490573288     -0.12788378447476      0.89995241680627
  Cl  -1.77568452714877      0.66050053096187      1.47656350670032
  H   0.52422244377973     -0.95436483260206      1.58553864010895
  H   1.08419399340240      0.73017386553756      1.47303126052292
  C   -0.41750649103452      1.41264327271491     -0.65093383045095
  N   -0.25218319176928      2.32727755734470     -1.37092011229630
  N   -1.09390282101938     -0.93650637412265     -0.49089136098232
  H   -0.44063740591400     -1.21368386073229     -1.21753479225758
  H   -1.98959772190297     -0.73486771648887     -0.92060835265596
  C   1.72998315584755     -0.53089137410480     -0.08161793629721
  N   2.50136984932215     -0.85484291098069     -0.90495003665799
