12
Coordinates from ORCA-job run
  C   -0.47069076844851      0.43579589425154      0.02361831375902
  C   1.01688306937958      0.03659577861947      0.19600353623676
  Cl  -1.07656782856639      0.94915532210145      1.63218111189792
  H   1.57566717600798      0.84633701213935      0.67119975012425
  H   1.44517215678306     -0.13890628824108     -0.79647702635425
  C   -0.51669081406420      1.58866749557965     -0.88519359725816
  N   -0.49866876489054      2.48452443927597     -1.64432571483231
  N   -1.34671030181813     -0.58595298899161     -0.47652468425984
  H   -1.10297446266613     -0.83972859440292     -1.42696625741856
  H   -1.31918120172119     -1.40504163820105      0.12063691189482
  C   1.12443050191974     -1.18577985420270      0.98479408727325
  N   1.16933123808473     -2.18466657792808      1.59905356893708
