12
Coordinates from ORCA-job run
  C   -0.53961670860677      0.26141079504157      0.05358610037482
  C   0.71002710627892     -0.61381352412709      0.29652942629173
  Cl  -0.97423194813113      1.02080492687690      1.61771166602726
  H   0.45232625405203     -1.36740325603465      1.04642212555894
  H   0.95117998767126     -1.12930298770713     -0.63891740775406
  C   -0.21746204882335      1.31784476970037     -0.91344509207060
  N   0.06490403192146      2.11985093865812     -1.72369547256102
  N   -1.68772215137732     -0.46351833209190     -0.42350059365447
  H   -1.91903527925848     -1.22319456895874      0.20591297298571
  H   -1.52822134937096     -0.82088485387178     -1.35834555802926
  C   1.87441703601564      0.14385302271898      0.74346083702387
  N   2.81343506962868      0.75335306979532      1.09528099580706
