12
Coordinates from ORCA-job run
  C   -0.57522136295482      0.24686916047573      0.23352725081660
  C   0.73200254465532     -0.24604449728650      0.87088943281315
  Cl  -1.69882222110270      0.66078091369665      1.56460818166955
  H   1.15802732823495      0.53767238030314      1.50113547879825
  H   0.48589091706418     -1.10933790561572      1.49379883051853
  C   -0.33080729986418      1.48559515418283     -0.52978876336142
  N   -0.12537542378536      2.43493261323037     -1.19221345381457
  N   -1.16357723078312     -0.81719553671840     -0.53654434110408
  H   -2.05060403687645     -0.52216784192899     -0.92866100943608
  H   -0.54387743532928     -1.07918808787313     -1.29742425626788
  C   1.68884311884346     -0.63691451859859     -0.16129400685848
  N   2.42452110189801     -0.95700183386739     -1.01803334377357
