12
Coordinates from ORCA-job run
  C   -0.49451289297010      0.16718524140526      0.11695607883393
  C   0.78638556221441     -0.64861223567666      0.33156206867694
  Cl  -0.93927479712791      0.96489665831703      1.65129206110664
  H   1.01086967577820     -1.19840002841772     -0.58885837177811
  H   0.57735485144034     -1.37375951835017      1.12129370781036
  C   -0.26716229236542      1.22566391622116     -0.88448445357293
  N   -0.11086679704744      2.01339848456939     -1.74309609917777
  N   -1.55463656338612     -0.75048354583566     -0.23157074004472
  H   -2.44031821600612     -0.25890902574458     -0.27847188902425
  H   -1.36845892736291     -1.15732358216680     -1.14296721330858
  C   1.93433933438278      0.17871946350719      0.68717211813181
  N   2.86628106245031      0.83662417217156      0.96117273234664
