12
Coordinates from ORCA-job run
  C   -0.61301931115024      0.34443009949266      0.13768972864263
  C   0.63012646829780     -0.21740697147961      0.86805559345128
  Cl  -1.77195006272029      0.81108581448706      1.42843066513006
  H   0.30832953643337     -1.04913300294537      1.50158446425845
  H   1.07516352889204      0.54565254439921      1.51173186363123
  C   -0.23185340636112      1.55272597346436     -0.60438252392601
  N   0.11548886344924      2.50605802141565     -1.19580766218536
  N   -1.27455520152395     -0.56039544451611     -0.75854257710215
  H   -0.69597282399466     -0.75477423993125     -1.56818730987428
  H   -1.51253029359141     -1.42516341363686     -0.28703526466604
  C   1.60872569997560     -0.69162458057088     -0.10639078679295
  N   2.36304700229361     -1.06145480017887     -0.92614619056684
