12
Coordinates from ORCA-job run
  C   -0.56462406917458      0.26319504923180      0.24044921033254
  C   0.77642805507669     -0.16830516531965      0.85135744232879
  Cl  -1.62486017247148      0.78376064042292      1.58617658702541
  H   0.56954725001002     -0.97781025830795      1.55547361020162
  H   1.22532214654354      0.66750571027744      1.39252372555219
  C   -0.36918657205972      1.43388332851889     -0.63581576083541
  N   -0.21203644474117      2.32681766370004     -1.38432268872207
  N   -1.18117619894347     -0.86468894635072     -0.40685638776622
  H   -2.08723982811972     -0.60689101852011     -0.78122658501118
  H   -0.59538626931859     -1.19040954023470     -1.16994715779431
  C   1.68512467098838     -0.63918220302529     -0.19082667657665
  N   2.37608743221008     -1.02887526039270     -1.05598531873471
