12
Coordinates from ORCA-job run
  C   -0.35299227985167      0.39947511551924     -0.14997477033252
  C   1.08934059647352     -0.10172240687276      0.03038760766873
  Cl  -0.68787138813483      1.58660600968460      1.21458069174474
  H   1.35747895114811     -0.68278793130407     -0.85647733519406
  H   1.76823743552524      0.74815169408437      0.11841355450253
  C   -0.43543377066422      1.17385204533091     -1.39272362151643
  N   -0.48940162442576      1.78034320024607     -2.39689963417438
  N   -1.25467520231874     -0.68951342403240     -0.20517438457146
  H   -1.22635623546870     -1.23751290583342      0.64738381565312
  H   -2.20394345589703     -0.38753030176942     -0.38440909608965
  C   1.19377801269179     -0.95021853834565      1.21345668719644
  N   1.24183896092227     -1.64014255670751      2.16143648511291
