12
Coordinates from ORCA-job run
  C   -0.46082432242408      0.44345723075698     -0.05674443492909
  C   1.02981454044138      0.05133614015820      0.10623537661303
  Cl  -0.93209628009913      1.37400790582643      1.40221274587210
  H   1.37668645076712     -0.38875532626984     -0.83464031317537
  H   1.63571345296208      0.93662755100752      0.31330016999680
  C   -0.56065989384159      1.32352317624311     -1.22846069393742
  N   -0.58948315014928      1.98818776429395     -2.19620747640306
  N   -1.38819198537582     -0.64207187379808     -0.21039017623033
  H   -1.33113399672529     -1.27545229097710      0.57946205010674
  H   -1.21732811579300     -1.14576362224681     -1.07313712346154
  C   1.18034573524886     -0.92919634466551      1.17573066008725
  N   1.25615756498876     -1.73690031032887      2.02363921546090
