12
Coordinates from ORCA-job run
  C   -0.41534908833914      0.36094115238160     -0.06832631327672
  C   1.06498690343532      0.07928234938048      0.23621254774595
  Cl  -1.21767195929262      0.81667919796539      1.52362406455192
  H   1.49833209517687      0.92168886793588      0.77797791571238
  H   1.58811794287439     -0.03997313445946     -0.71684614888529
  C   -0.50722183570143      1.54816241101180     -0.92425911030379
  N   -0.55539310158518      2.49325129028094     -1.61969832277678
  N   -1.00867795950299     -0.74566616827074     -0.72017283201320
  H   -0.96801449228123     -1.57986596614069     -0.14539353314056
  H   -1.96794996652401     -0.56081822028249     -0.98481981830882
  C   1.20375203674753     -1.14545567696236      1.01827681273877
  N   1.28408942499248     -2.14822610284037      1.62242473795614
