12
Coordinates from ORCA-job run
  C   -0.50533630365988      0.14515582607825      0.09562578831661
  C   0.79549667762907     -0.62565882776036      0.35317304350716
  Cl  -1.05426960227147      0.88632843489829      1.62480072506625
  H   1.08604085767033     -1.14160741453543     -0.56836743599890
  H   0.57819969934362     -1.37882053669130      1.11398874816310
  C   -0.27319961625741      1.23668955796876     -0.86842478774658
  N   -0.11447870806209      2.05226391358415     -1.70025354035222
  N   -1.51008543103326     -0.80320319461349     -0.32556108306115
  H   -2.40909711385787     -0.34298408073512     -0.41637068144353
  H   -1.25782455071649     -1.18930483691092     -1.23003138230717
  C   1.88991320537032      0.23628981412655      0.78586567534951
  N   2.77464088584514      0.92385134459061      1.13355493050693
