12
Coordinates from ORCA-job run
  C   -0.48347992224336      0.42218025300631      0.01798584506969
  C   1.01412012555871      0.06802861792641      0.20164335945277
  Cl  -1.11340320636803      0.92950847053441      1.61891462218883
  H   1.45356496097864     -0.10230858730477     -0.78684793382536
  H   1.54618249824643      0.89728125423391      0.67389260230947
  C   -0.55810578684108      1.56605423708805     -0.90014671373902
  N   -0.56397752582827      2.45785547049413     -1.66420987161856
  N   -1.32633136436351     -0.62896275150626     -0.47915042989981
  H   -1.27731754860606     -1.44214167036566      0.12479069271360
  H   -1.06794818341308     -0.88323488117252     -1.42566630057455
  C   1.15296912179878     -1.14473542397070      1.00036676077278
  N   1.22372683108082     -2.13852498896334      1.62042736715014
