12
Coordinates from ORCA-job run
  C   -0.60812537557387      0.15193318657725      0.23254187232287
  C   0.71723245906046     -0.29419944774145      0.86685437009396
  Cl  -1.82258037125217      0.25777196089384      1.54359002714384
  H   0.53894420040101     -1.25723125792436      1.35120811868140
  H   1.03310506812908      0.43037592388086      1.62063900289555
  C   -0.46473182319595      1.50502724435135     -0.33759261171524
  N   -0.31876023491221      2.55910557245637     -0.83741751480724
  N   -1.04820469925707     -0.84530374772982     -0.70776560515705
  H   -1.94699074400922     -0.58925358370792     -1.10048465662605
  H   -0.37588949941078     -0.92958839851294     -1.46441194549890
  C   1.75048577369781     -0.43717526823421     -0.15571749864664
  N   2.54651524632291     -0.55346218430896     -1.01044355868649
