12
Coordinates from ORCA-job run
  C   -0.62520065909233      0.31589775676403      0.14585851730610
  C   0.63071310139239     -0.22598165833094      0.86859703295822
  Cl  -1.81376891401030      0.68974207484872      1.44037596246540
  H   1.03962109929153      0.52755004473116      1.54652468558518
  H   0.33562496169332     -1.09376061260322      1.46579597835344
  C   -0.28463258032764      1.56462946021901     -0.54749063148886
  N   0.01460873788285      2.54443826178552     -1.12167239105662
  N   -1.24315265435569     -0.57823012767585     -0.79117896958213
  H   -1.44917163134649     -1.46987470118669     -0.35596770565262
  H   -0.65107029569254     -0.71726994037974     -1.60248035668929
  C   1.63676993244960     -0.62495925542924     -0.11186348769521
  N   2.41165890211531     -0.93418130274273     -0.93749863450362
