12
Coordinates from ORCA-job run
  C   -0.50118864344755      0.15729894622090      0.10049598551571
  C   0.78743444594225     -0.63575459965858      0.35261099547916
  Cl  -1.01087567846329      0.93759733927101      1.62340943831552
  H   1.05245849238748     -1.17423961250473     -0.56372868345395
  H   0.56551850258063     -1.37036870940150      1.12997055883920
  C   -0.26089695133715      1.22487890739269     -0.88784109753403
  N   -0.08469008534022      2.01967797163222     -1.73609952486954
  N   -1.53177723966492     -0.77831254390204     -0.28731130618652
  H   -2.42465951546790     -0.30317907279388     -0.36039092732819
  H   -1.30853827419423     -1.17533924113035     -1.19474205982581
  C   1.90650915823909      0.21051676387029      0.75193058515185
  N   2.81070578876585      0.88622385100399      1.07169603589657
