16
Coordinates from ORCA-job run
  C   -0.74911826372065      0.39612789162710      0.28790677621597
  C   0.74300572821836      0.05899700034811      0.52284279025899
  Br  -1.40331821450941      1.39387698842930      1.85089344729025
  H   0.78829766595381     -0.50819243894844      1.46016952005777
  C   -0.88883445219500      1.26136981290693     -0.88018630437823
  N   -0.99163434249705      1.90848254191211     -1.85655178201309
  C   -1.60812117386346     -0.85576963716289      0.12937166555447
  H   -1.34223418777798     -1.38432567399421     -0.78808509244042
  H   -2.66141862605861     -0.58037084021397      0.07442909919359
  H   -1.46171271749669     -1.51490958535851      0.98793039289529
  C   1.52590742626562      1.28396471770860      0.70389354482228
  N   2.19077837431385      2.24591780732939      0.81200102582992
  C   1.34461622865299     -0.77267963813355     -0.61764204252951
  H   1.22786978130279     -0.26016819018373     -1.57498647233127
  H   2.41120727983489     -0.91708616019080     -0.43814572744623
  H   0.87570949357658     -1.75523459607543     -0.67484084097979
