16
Coordinates from ORCA-job run
  C   -0.69452989718014      0.35602117092133     -0.02285583148967
  C   0.66926473021358     -0.37839534011441     -0.00801402119213
  Br  -0.61988325333790      1.93321530025838      1.14644121750784
  H   0.53696346938608     -1.24128386679228     -0.67573889269883
  C   -0.94955753338862      0.83178301060484     -1.38049603785270
  N   -1.15380799586935      1.16610016648916     -2.48909689768102
  C   -1.83564132251233     -0.54162771075583      0.44744472789615
  H   -1.66226734479753     -0.85546964233707      1.47773388389997
  H   -2.78477537444124     -0.00770461718167      0.39452296545388
  H   -1.89075910181808     -1.42509153020481     -0.19565180028014
  C   0.93319324886526     -0.90671221576488      1.33189501400321
  N   1.16277345817218     -1.33588117675445      2.40072958992337
  C   1.85118813461616      0.45255896343673     -0.51166088544597
  H   2.74537552758692     -0.17183391861239     -0.55149680503950
  H   1.64726698129036      0.82925689938755     -1.51567715789808
  H   2.04519627321464      1.29406450741981      0.15292093089360
