16
Coordinates from ORCA-job run
  C   -0.67615173114667      0.38428690530101     -0.06526456535635
  C   0.64871143361786     -0.41104541598202      0.04395737398718
  Br  -0.41705498529529      2.21554200935136      0.59730079691806
  H   0.41223296928525     -1.41366982546950     -0.33921735039809
  C   -1.04497421183303      0.47885935866784     -1.47581450767637
  N   -1.34872446305587      0.50473862622511     -2.61138983437764
  C   -1.80300832397252     -0.26443866151430      0.73398155444543
  H   -1.96047904233659     -1.28610869201027      0.37553034088494
  H   -2.72835416702059      0.29873260441661      0.61041568038626
  H   -1.54190882793217     -0.28972583553300      1.79283406430726
  C   1.01983695729616     -0.56502742552728      1.45190589648840
  N   1.33306977894425     -0.70063678761819      2.57560118480706
  C   1.80995761713579      0.16157737492965     -0.77109690990587
  H   1.52600469427608      0.24937968255977     -1.82145176787390
  H   2.10054916566201      1.14268468465933     -0.39633499844762
  H   2.67029313637534     -0.50614860245612     -0.69995695818876
