16
Coordinates from ORCA-job run
  C   -0.74548965388869      0.35184264582735      0.37524148663549
  C   0.80661055396519      0.32600633943782      0.30772773123294
  Br  -1.29553801821424     -0.16275335232699      2.19442772801260
  H   1.17290145763371      1.00059197200500      1.08972163750874
  C   -1.20446567945398      1.72619000530281      0.18341576828685
  N   -1.56134123987619      2.83269642400770      0.00526823162866
  C   -1.41322429937275     -0.58071847632303     -0.62871857005183
  H   -2.49725967814228     -0.48121938610455     -0.56730553168573
  H   -1.09191156334956     -0.31720113935664     -1.64030960850004
  H   -1.14809377181912     -1.61721967241622     -0.42021916568169
  C   1.21380033052478      0.88008824300904     -0.98801632231370
  N   1.54051629076734      1.29192523352550     -2.03848135706161
  C   1.43042137878872     -1.05966299821308      0.49632202236902
  H   2.51727359734092     -0.96210531585331      0.51652430654088
  H   1.10599305519577     -1.50073249337585      1.43860362972435
  H   1.16980723990040     -1.72772802914554     -0.32520198664491
