16
Coordinates from ORCA-job run
  C   -0.77071923845334      0.31328478276413      0.35726176372055
  C   0.78258828708277      0.31649600827950      0.37770583230023
  Br  -1.41212163239246     -0.33800779388774      2.10125416777280
  H   1.09140303924267      0.93646275867392      1.22678390581101
  C   -1.24848924426984      1.68913467440646      0.23387216266670
  N   -1.62748535840258      2.79492971041102      0.10656651776676
  C   -1.36223584212571     -0.55610180575618     -0.74658437381472
  H   -2.44961268351199     -0.47659625896879     -0.74182924380310
  H   -1.09045445847493     -1.60082070296076     -0.59594397671053
  H   -0.98853038256395     -0.21686219862094     -1.71678753499699
  C   1.25158203239852      0.97064397258690     -0.84865499635209
  N   1.62820817127937      1.45885729135989     -1.84855436406325
  C   1.42081385706540     -1.07004558823357      0.49979710353678
  H   1.05211620487893     -1.58458932250918      1.38690122340349
  H   1.21916867644296     -1.67892289327059     -0.38205180646372
  H   2.50276857180419     -0.95886263427406      0.58926361922606
