16
Coordinates from ORCA-job run
  C   -0.77378324667551      0.38323356534488      0.23798202785162
  C   0.71133298914240      0.09001979217500      0.55979528155324
  Br  -1.53521332543211      1.40001202950036      1.73883412968491
  H   0.71992198499040     -0.45528885802789      1.51104514576627
  C   -0.87107025051664      1.21714872938405     -0.95708467236706
  N   -0.93261911620968      1.83833700010450     -1.95359881977082
  C   -1.59183740024329     -0.89401158336483      0.06506338302011
  H   -2.64749259234121     -0.64786567050444     -0.05004370969988
  H   -1.47344652222053     -1.53001828855116      0.94507825547892
  H   -1.26566125545100     -1.43533483426858     -0.82501664016253
  C   1.45350303906172      1.33817939685835      0.75437676258863
  N   2.08943762587008      2.31775018642094      0.87767335645085
  C   1.39372494203490     -0.75039824441430     -0.52756171782498
  H   1.31715764663069     -0.26125618666461     -1.50103302326714
  H   2.45210176998170     -0.86430895661593     -0.28767691798599
  H   0.95194371137807     -1.74519807737635     -0.58783284131613
