16
Coordinates from ORCA-job run
  C   -0.72758437488327      0.26543430105824     -0.10292229990978
  C   0.70374924401419     -0.29856546198180      0.08048549321706
  Br  -0.80947509140273      2.11545429279750      0.55298910616973
  H   0.65661083466320     -1.32720194550765     -0.30374470044772
  C   -1.03241035128162      0.29580689363180     -1.53142567977340
  N   -1.26975593164065      0.27111638859573     -2.68281089816657
  C   -1.77031774242844     -0.55999921123950      0.64564339469702
  H   -1.73644657370444     -1.59496504145672      0.29204106698241
  H   -2.76903257994249     -0.15975141512237      0.46899180184068
  H   -1.56357556576229     -0.53779342219141      1.71661169465676
  C   1.02344629938916     -0.38467341841764      1.50665915108416
  N   1.29864622447770     -0.45586541872822      2.64614045060944
  C   1.79415788168201      0.45780434791654     -0.68091123435992
  H   2.74713276832281     -0.06127840457376     -0.56499946379428
  H   1.55088267900012      0.50140515194050     -1.74415292732179
  H   1.90297227949675      1.47207236327876     -0.29759495548381
