16
Coordinates from ORCA-job run
  C   -0.72699547615041      0.25447022136446     -0.13037238397745
  C   0.70334511489091     -0.28926562023623      0.11205904228907
  Br  -0.79488451688497      2.17350840587161      0.28507985967213
  H   0.64874567977279     -1.35806777911456     -0.13824178298790
  C   -1.04435457625888      0.10394330909968     -1.54849592291710
  N   -1.29248614566952     -0.06830732814092     -2.68486911959033
  C   -1.76702798248147     -0.46315765534491      0.72536503356847
  H   -1.74202379688731     -1.53448426437327      0.50449646330344
  H   -1.55030892427329     -0.30771566152395      1.78313190634578
  H   -2.76516091039448     -0.08198376665192      0.50828147910025
  C   1.03458149717387     -0.19556701216307      1.53513587162526
  N   1.31837736977709     -0.12747519977225      2.67264579274149
  C   1.79055750687009      0.35869902176292     -0.74774451969375
  H   2.74167741693910     -0.14803050303954     -0.57572667329356
  H   1.53759074659696      0.27010930322388     -1.80588422604835
  H   1.90836699697949      1.41232452903807     -0.49586082013744
