15

C	-0.437871	-0.016978	-1.434113
C	0.0	0.0	0.0
F	-0.0272	1.108515	-2.083171
H	1.094182	0.0	0.0
H	-0.360121	0.960059	0.389729
N	0.186274	-1.204764	-2.173747
O	-0.342398	-2.292271	-1.949755
O	1.139152	-0.987273	-2.899707
C	-1.899422	-0.13326	-1.637059
N	-3.069968	-0.149504	-1.738905
C	-0.522537	-1.160949	0.834167
H	-0.23303	-0.989622	1.873637
H	-0.055293	-2.095008	0.521615
H	-1.610976	-1.288486	0.794428
F	2.596094	0.0	0.0
