15

C	-0.454689	-0.035632	-1.415582
C	0.0	0.0	0.0
F	-1.833623	0.019897	-1.565351
H	1.092299	0.0	0.0
H	-0.376919	0.93918	0.420318
N	0.074764	1.208273	-2.133584
O	1.111926	1.094138	-2.772092
O	-0.577829	2.23169	-1.967358
C	0.006653	-1.217132	-2.16079
N	0.33713	-2.205854	-2.699715
C	-0.48557	-1.2095	0.787146
H	-1.574487	-1.327767	0.792426
H	-0.030985	-2.121868	0.391767
H	-0.141237	-1.109727	1.819044
F	2.589551	0.0	0.0
