15

C	-0.436791	-0.040808	-1.418279
C	0.0	0.0	0.0
F	-1.81651	0.022849	-1.590559
H	1.092333	0.0	0.0
H	-0.377522	0.93916	0.416153
N	0.100294	1.199699	-2.132803
O	1.048121	1.059435	-2.893811
O	-0.467036	2.249816	-1.853352
C	0.026221	-1.230201	-2.147039
N	0.334089	-2.233491	-2.673185
C	-0.480952	-1.211384	0.787065
H	-0.009403	-2.119797	0.403272
H	-1.568184	-1.343543	0.778206
H	-0.152531	-1.101445	1.823097
F	2.582248	0.0	0.0
