15

C	-0.420141	0.002135	-1.436484
C	0.0	0.0	0.0
F	-0.017226	1.126745	-2.08889
H	1.102694	0.0	0.0
H	-0.355587	-0.934947	0.442119
N	0.221179	-1.193105	-2.155267
O	0.985689	-0.964693	-3.077014
O	-0.120428	-2.291274	-1.730661
C	-1.877408	-0.139768	-1.654938
N	-3.043553	-0.225044	-1.771542
C	-0.532388	1.217419	0.739978
H	-1.627806	1.274611	0.780925
H	-0.149293	2.130246	0.279571
H	-0.150925	1.192249	1.763379
F	2.600746	0.0	0.0
