15

C	-0.398935	-0.083822	-1.441279
C	0.0	0.0	0.0
F	0.00548	1.005094	-2.14979
H	1.097125	0.0	0.0
H	-0.359457	-0.908163	0.491618
N	0.2672	-1.311957	-2.077258
O	-0.076495	-2.387116	-1.598466
O	1.051993	-1.12911	-2.991481
C	-1.851504	-0.250788	-1.675214
N	-3.016029	-0.343981	-1.807539
C	-0.540794	1.259361	0.658603
H	-1.635812	1.329301	0.65996
H	-0.13172	2.141706	0.163556
H	-0.1943	1.284477	1.694155
F	2.60146	0.0	0.0
