15

C	-0.407983	0.02536	-1.445367
C	0.0	0.0	0.0
F	-0.16654	1.249592	-1.994847
H	1.102675	0.0	0.0
H	-0.374843	0.943302	0.413307
N	0.415402	-0.988278	-2.251964
O	0.143262	-2.164331	-2.029655
O	1.247926	-0.560742	-3.030766
C	-1.824658	-0.308021	-1.708929
N	-2.970019	-0.523504	-1.860142
C	-0.504538	-1.193807	0.796724
H	-0.037064	-2.11155	0.440085
H	-1.593475	-1.323194	0.77202
H	-0.197129	-1.058652	1.836518
F	2.596195	0.0	0.0
