15

C	-0.417639	0.335127	-1.389682
C	0.0	0.0	0.0
F	-0.040539	-0.630627	-2.273477
H	1.102054	0.0	0.0
H	-0.371422	-1.012235	0.195221
N	-1.95865	0.384882	-1.48211
O	-2.532304	-0.684063	-1.645359
O	-2.497333	1.47004	-1.276801
C	0.0685	1.638443	-1.871531
N	0.443719	2.675198	-2.277119
C	-0.473209	1.001774	1.042727
H	-0.110891	2.004223	0.800227
H	-1.560515	1.051605	1.169302
H	-0.023443	0.728013	1.999659
F	2.583118	0.0	0.0
