13

C	0.0	0.0	0.0
C	-0.553879	0.110569	-1.43379
F	1.371186	0.0	0.0
H	-1.463033	0.722421	-1.37887
H	-0.369568	-0.923901	0.445413
C	-0.39816	1.160174	0.8215
N	-0.555276	2.116679	1.483604
N	-0.846954	-1.241526	-1.921288
H	-0.997346	-1.197232	-2.924182
H	-1.756236	-1.452065	-1.504413
C	0.415477	0.782833	-2.302626
N	1.143652	1.340369	-3.035746
Br	-3.49589	0.0	0.0
