13

C	0.0	0.0	0.0
C	-0.375909	-0.021516	-1.520268
F	1.377101	0.0	0.0
H	0.419394	0.59064	-1.963519
H	-0.381705	-0.858588	0.55396
C	-0.439914	1.260086	0.613718
N	-0.675852	2.302087	1.099665
N	-1.638037	0.483075	-1.979817
H	-2.433102	0.086928	-1.466031
H	-1.678334	1.482218	-1.814067
C	-0.14894	-1.39593	-2.00069
N	0.065168	-2.493603	-2.35688
Br	-4.193548	0.0	0.0
