15
Coordinates from ORCA-job run
  C   -0.95668826603265     -0.26543719874015      0.49921479225267
  C   0.57576916874183     -0.17147913758657      0.26309393782946
  Br  -1.35318412995782     -1.83747418772553      1.61986852691579
  H   1.01751935349998     -0.07047515640393      1.26613358308482
  C   -1.44110766666244      0.90793165527864      1.22309865955554
  N   -1.77614922920844      1.87152944519598      1.80755031667333
  C   -1.66709787159332     -0.41606914347946     -0.76777641246471
  N   -2.23070042281191     -0.49148163404744     -1.79631454352477
  C   0.89695290781669      1.06531871359664     -0.56514230650073
  H   0.46925146364884      0.97167620787286     -1.56590938716020
  H   1.98148358601768      1.16072600803617     -0.66192471337096
  H   0.52420777460881      1.97756249386122     -0.09757249596592
  N   0.98801908042643     -1.36018159675513     -0.45464096375312
  H   1.86085580116654     -1.19492865748974     -0.93865828786265
  H   1.10986845033979     -2.14721781161356      0.16897929429145
