15
Coordinates from ORCA-job run
  C   -0.96235918601545     -0.25972349696343      0.48760885732075
  C   0.57289543456747     -0.17980578613361      0.26802906176815
  Br  -1.38692077126983     -1.83349608554662      1.59528210043744
  H   1.00571801929843     -0.09265610328270      1.27634319408192
  C   -1.44439465858867      0.91482931117106      1.21109294175457
  N   -1.78426512289160      1.88086394968722      1.78849136402980
  C   -1.66228518240109     -0.39606131382803     -0.78696183236038
  N   -2.22643407204205     -0.45909950742796     -1.81613692951076
  C   0.91595188275624      1.06113411097101     -0.54524272468739
  H   0.54650929870126      1.97298785718957     -0.07418345816772
  H   2.00264597142370      1.14619402507490     -0.62751419657998
  H   0.49976274962730      0.98045773613714     -1.55210567843882
  N   0.97972239982148     -1.36621452802696     -0.45610612776266
  H   1.08577908935108     -2.16082576497302      0.16085900790151
  H   1.85867414766174     -1.20658440404857     -0.93045557978644
