15
Coordinates from ORCA-job run
  C   -1.07109163404502     -0.09913259588181      0.08854348114274
  C   0.48952865452633     -0.09469236692055      0.13776723583339
  Br  -1.74480445806900      0.02164753007098     -1.74744250977951
  H   0.70974856656258     -0.07150733706914      1.21804998444977
  C   -1.55456679775142     -1.35410587831732      0.66126298466110
  N   -1.87408667705794     -2.37624579091773      1.14612742483926
  C   -1.60388286070355      1.03257981141725      0.84458184254612
  N   -1.97577736836625      1.95775750624360      1.46753773826406
  C   1.07658967480169      1.14863203820854     -0.50743427705829
  H   0.61070208137143      2.06039660069152     -0.13089229168384
  H   2.14445890670699      1.19870034893105     -0.28125759548280
  H   0.95146564050390      1.10682733641791     -1.59026900811388
  N   0.96344416637591     -1.29378736958516     -0.51684106045243
  H   1.88581777229670     -1.15465841837334     -0.90603774675998
  H   0.99145433284766     -2.08341141491580      0.11530379759429
