15
Coordinates from ORCA-job run
  C   -0.95394527650674      0.09496910406067      0.47115510214827
  C   0.61287931163468      0.07510259292191      0.31206195681993
  Br  -1.56543584667306      1.74583722224391      1.34338990989639
  H   1.00080201256073      0.23827533146769      1.32358541362278
  C   -1.58640955166201     -0.01088198203391     -0.84065382823888
  N   -2.02396566278430     -0.10798838976438     -1.92775159863327
  C   -1.36386400911849     -1.02364250292841      1.31696818454877
  N   -1.61995083841546     -1.94547404573358      2.00050174833623
  C   1.09519201019729      1.17618421773594     -0.61747374062517
  H   2.18483030411862      1.14502943827800     -0.64337480810208
  H   0.72631560540878      1.01315435425128     -1.63415905185901
  H   0.77634966162029      2.16386151744401     -0.28639180261196
  N   1.09024202476883     -1.19980080855706     -0.16025842380395
  H   0.78420095079410     -1.39598378413879     -1.10553600484166
  H   0.84175930405672     -1.96864226524727      0.44893694334362
