15
Coordinates from ORCA-job run
  C   -0.98317908862903     -0.28512523488892      0.43190549467165
  C   0.56007799035672     -0.17619522616337      0.29399928833752
  Br  -1.43797146644584     -1.88947283067835      1.48155236754555
  H   0.93857113010811     -0.10236151315286      1.32495946046833
  C   -1.52059813452764      0.86532911354664      1.15509347979988
  N   -1.90129681417715      1.81123204500820      1.74046077516383
  C   -1.61213250082498     -0.40315495433257     -0.88097666912377
  N   -2.11415125346825     -0.45198845881709     -1.94251728404462
  C   0.92355405198059      1.08566322326789     -0.47706350271105
  H   0.50962745242230      1.98186822606378     -0.01298753738971
  H   0.56661440889972      1.01450677049180     -1.50710440972539
  H   2.01119341179847      1.19325252620564     -0.49575143605675
  N   1.02406824815604     -1.34133109535733     -0.43058535054583
  H   1.92397661761240     -1.15737658934377     -0.85426994130022
  H   1.11264594673860     -2.14584600184966      0.17628526491059
