15
Coordinates from ORCA-job run
  C   -1.06728565318229     -0.11154149538449      0.08544563161404
  C   0.48607862300233     -0.17892083974141      0.14813434717714
  Br  -1.67406394611184      0.16541609832807     -1.76726875955231
  H   0.69412012825300     -0.38713276571439      1.20547166852853
  C   -1.63632464072751     -1.37268411213455      0.55533294804113
  N   -2.08802997871551     -2.37143377323208      0.97907159263120
  C   -1.58014228102001      0.99466361322205      0.89157189137338
  N   -1.97399545829663      1.86978453262477      1.57073371191396
  C   1.14218991807637      1.14275152128738     -0.23472207445035
  H   2.22166711139094      1.05119080415345     -0.09530580433748
  H   0.78924284848180      1.97567509357792      0.37761851819423
  H   0.95366312678502      1.37802276615855     -1.28443472237756
  N   0.90553013416666     -1.33543719332646     -0.61774913748380
  H   1.08005048149996     -1.08602816117071     -1.58336471124543
  H   1.74929958639769     -1.73532608864811     -0.23053510002667
