15
Coordinates from ORCA-job run
  C   -0.99253834639509      0.12042646677972      0.48392953704634
  C   0.55029344939511      0.00028446289456      0.28460802604245
  Br  -1.43283460713891      1.73301557539151      1.51988353126815
  H   0.98001023859742      0.09338390403546      1.29211688291583
  C   -1.67394662614041      0.19232001133718     -0.80521048487179
  N   -2.19236449775815      0.28373950596434     -1.85598874339415
  C   -1.46448547401606     -1.03004230364781      1.25190004810143
  N   -1.77574093648923     -1.96686907363393      1.89011823528804
  C   1.09132949700255      1.09802904455166     -0.61468193174642
  H   0.82367689646164      2.09033557317112     -0.25326952241705
  H   2.18170368855085      1.03153346028353     -0.64411685330389
  H   0.70809139478120      0.97460944480582     -1.63062680136813
  N   0.75951373699210     -1.29866869209796     -0.32485516851289
  H   1.54825550533168     -1.29291415837799     -0.95657328567295
  H   0.88703608082523     -2.03018322145724      0.36176653062501
