15
Coordinates from ORCA-job run
  C   -1.07145302480636     -0.11153980369935      0.05300723947532
  C   0.47971226473391     -0.18964258139562      0.15466791668070
  Br  -1.62493324416611      0.26652808867232     -1.79862898508521
  H   0.65849146942911     -0.45110565202169      1.20551427521294
  C   -1.65791722176020     -1.39355814985868      0.43736709550131
  N   -2.14539088286092     -2.40451634725184      0.78596939812103
  C   -1.60108538442264      0.95320948342657      0.90208838554663
  N   -1.97556523639240      1.81997645590051      1.60276960731759
  C   1.15292076746395      1.14481234534738     -0.14485181674789
  H   0.78502361401924      1.95035275492995      0.49460300321731
  H   2.22713566691507      1.04027539373708      0.02334471750525
  H   0.99810446768882      1.43008925441401     -1.18766405920766
  N   0.91416851327034     -1.30987633192213     -0.65590397036085
  H   1.11296080497353     -1.01449946775912     -1.60378433996899
  H   1.74782742591466     -1.73050544251940     -0.26849846720747
