15
Coordinates from ORCA-job run
  C   -0.94720056848420     -0.22565224046314      0.53420193624751
  C   0.56105023390879     -0.22747382586789      0.13387340931487
  Br  -1.15346818653862      0.16015817474825      2.45176806706851
  H   1.04784132972982     -0.90806399930187      0.84675168369653
  C   -1.68048522933120      0.78163983805431     -0.22653209061008
  N   -2.23571613415971      1.62469281417480     -0.82845006421199
  C   -1.50442092222746     -1.55589660389956      0.29784551545834
  N   -1.88670534064842     -2.65043914016393      0.10412674646129
  C   1.17417998270356      1.15809270690464      0.23416490267730
  H   2.24750896585892      1.08956388171677      0.04077762098549
  H   0.72855722934057      1.82100683368530     -0.51160459141345
  H   1.03657180542834      1.59455725168847      1.22286744228029
  N   0.59407853078466     -0.69481150231099     -1.23844303862888
  H   1.34541928299642     -0.26730137591180     -1.76180120855510
  H   0.67378902063850     -1.70107281305336     -1.30054633077065
