15
Coordinates from ORCA-job run
  C   -0.92489124023564     -0.20901422443573      0.57741885773779
  C   0.56437927904365     -0.22999199368606      0.11263949336242
  Br  -1.04395009743041      0.20688213168453      2.49663944424479
  H   1.07638940004523     -0.90341040256178      0.81456489398147
  C   -1.68236282270513      0.79360979168763     -0.16522770302689
  N   -2.25849090518179      1.63173627815571     -0.75415372205766
  C   -1.50235410775049     -1.53794026321591      0.38705099713254
  N   -1.89834192946190     -2.63349090379372      0.22940835909164
  C   1.19215701441272      1.15175922008519      0.16440412971282
  H   2.25609259489255      1.07106892646971     -0.07187578277170
  H   1.09881575859497      1.60538042372359      1.15055433757716
  H   0.72113404069218      1.80597457006292     -0.57346205565300
  N   0.53401808164680     -0.71810210074508     -1.25259764768686
  H   0.60060097639105     -1.72602697869534     -1.30222503140139
  H   1.26780395704620     -0.30743447473563     -1.81313857024314
