15
Coordinates from ORCA-job run
  C   -1.06214922073801     -0.13379967412176      0.14022149044284
  C   0.49397058071263     -0.13338960292996      0.16327263926074
  Br  -1.72707637771741     -0.20920260625560     -1.71215987245576
  H   0.73775853607782     -0.14427881140627      1.23333797456547
  C   -1.56694316376547     -1.31247928054022      0.84087604156557
  N   -1.96561222398181     -2.23748932311012      1.44629386532202
  C   -1.59698806625459      1.07896098536471      0.75563796672279
  N   -1.97536138174846      2.06669392356351      1.26903645529755
  C   1.08693186129782      1.12143898361672     -0.46735220785599
  H   2.17240213535992      1.09278693448886     -0.34866066607871
  H   0.71751905281941      2.03718316157756     -0.00039619542071
  H   0.86262580779090      1.16013554065453     -1.53552773125165
  N   0.93942021019129     -1.39249733722105     -0.39977530774216
  H   1.81538620651489     -1.67970206670037      0.01531588611328
  H   1.06811604344104     -1.31436082698050     -1.40112033848526
