15
Coordinates from ORCA-job run
  C   -0.93233495366437     -0.10220729840755      0.51048237999557
  C   0.60435352301388     -0.26399774729905      0.20602313196206
  Br  -1.23748454106810      0.55673795435194      2.33660670471719
  H   0.98154237813344     -0.91692699724740      1.00086305154510
  C   -1.53008667252459      0.83433803189209     -0.43654862449732
  N   -1.94327605115950      1.58771972537771     -1.23915496722814
  C   -1.58021578294173     -1.40725911345758      0.40454117317142
  N   -2.02992306286445     -2.48856045619581      0.29964759021473
  C   1.32639866495283      1.07260435311836      0.23936617033255
  H   1.19999996364727      1.58549387324374      1.19209307079682
  H   2.38822575563951      0.88817881529184      0.07366352356214
  H   0.96628415602791      1.72686701570986     -0.55976098069281
  N   0.83641176338226     -0.90745055977305     -1.06225549410362
  H   0.42072347413825     -1.82796043229158     -1.12403303227528
  H   0.53038138528734     -0.33757716431352     -1.84153369750046
