15
Coordinates from ORCA-job run
  C   -0.94161891727944     -0.17951487817650      0.55896388014749
  C   0.54524623685383     -0.27787761521643      0.09727702137654
  Br  -1.04488488024935      0.11424391782391      2.50110860774022
  H   1.00183421242445     -1.03386899817638      0.75177106030894
  C   -1.61977610052838      0.92275251362159     -0.11640519179186
  N   -2.13401243778715      1.83717610312158     -0.64624023918176
  C   -1.61251935019013     -1.44700626300183      0.27740011441540
  N   -2.08744041655308     -2.49766104731668      0.04869209980694
  C   1.27289308992769      1.04668372942319      0.24685986609384
  H   2.32878851658698      0.90422307530210      0.00404021413675
  H   0.85472054307443      1.78547008850161     -0.44130899813589
  H   1.20977715107342      1.43402268046387      1.26319085057923
  N   0.48951582035363     -0.66733415523702     -1.29844237695228
  H   1.25280141819243     -0.27076619731986     -1.82875861053449
  H   0.48567511410068     -1.67154295381312     -1.41814829800911
