15
Coordinates from ORCA-job run
  C   -1.07628473365023     -0.06748251894940      0.06096639364727
  C   0.48259060905086     -0.14639617846257      0.11321435515469
  Br  -1.72134051356837      0.49519910250551     -1.70136157854608
  H   0.68967364407977     -0.38100691368204      1.17048157292353
  C   -1.62107677229651     -1.39611249287167      0.33435326587941
  N   -1.98863444544626     -2.48598104562316      0.57763056718452
  C   -1.56734680771750      0.88744550043717      1.05243512138169
  N   -1.90280127791999      1.66500100402094      1.86800500445291
  C   1.13245893569170      1.18297751559032     -0.22857960382192
  H   2.20018990502754      1.12726515804453     -0.00224478374938
  H   1.01208399881341      1.40059116462992     -1.29086136448151
  H   0.70862183431126      2.00359079464274      0.35253365181818
  N   0.91053968100911     -1.18546120127447     -0.79677727073709
  H   0.90315188752266     -2.09755484259289     -0.35911545921917
  H   1.83917405509250     -1.00007504641494     -1.14967987188705
