15
Coordinates from ORCA-job run
  C   -0.96550931868489     -0.24899615505689      0.48989015437404
  C   0.57096323312956     -0.16713072686639      0.27766420305132
  Br  -1.38858762011230     -1.78915763262790      1.64386123517422
  H   0.99643984591901     -0.04302788631676      1.28518147981679
  C   -1.45770619577895      0.94521473223242      1.17333237310380
  N   -1.80106019541221      1.92690754552671      1.72164476723386
  C   -1.65461864142022     -0.42945913369086     -0.78508214532020
  N   -2.20659572102179     -0.53028131942773     -1.81775314734431
  C   0.91204347871181      1.04722016757294     -0.57561278178482
  H   0.53107919383973      1.97215177988210     -0.14055339609768
  H   1.99875068161458      1.13820540847393     -0.65105028090275
  H   0.50567942374851      0.92757915273448     -1.58262991628234
  N   0.98983531871460     -1.37521754134556     -0.40266132818392
  H   1.86941646445439     -1.22477176266940     -0.87892393336208
  H   1.10087005229817     -2.14623662842103      0.24269271652404
