15
Coordinates from ORCA-job run
  C   -0.91489271005033     -0.27859568700520      0.49183876004973
  C   0.64468696402982     -0.14200187826423      0.31048983933662
  Br  -1.31228429947676     -1.85132750892520      1.60597114552841
  H   1.04067302321473     -0.06888525753557      1.32929099498697
  C   -1.47467357573999      0.88641053088869      1.16776991517008
  N   -1.85957921464633      1.84801312830193      1.72497233776968
  C   -1.54342268311221     -0.47709163133109     -0.81003578226792
  N   -1.99464534019383     -0.62494314948499     -1.88582909535003
  C   0.95755967670409      1.13298709145961     -0.46183106344721
  H   0.56351653538296      2.02190393847434      0.03235345449183
  H   0.54719718400678      1.08574948705852     -1.47492018124865
  H   2.04143226010278      1.22428756512216     -0.53963376746065
  N   1.26110603819336     -1.26583127372718     -0.33977549238187
  H   0.95253745036038     -1.35619481816492     -1.30077546598729
  H   1.09178869122463     -2.13448053686692      0.15011440081027
