15
Coordinates from ORCA-job run
  C   -0.91987819779408     -0.25374826199844      0.49787559408953
  C   0.64126368788297     -0.13179990176690      0.31801154354188
  Br  -1.32969065183718     -1.78369298535229      1.66629311941308
  H   1.03235257206224     -0.02169376829694      1.33540858247904
  C   -1.47651647851789      0.93709441715727      1.13028886671011
  N   -1.86842818263532      1.91731851077622      1.64838856148378
  C   -1.54379002314576     -0.49623961628230     -0.79870986580389
  N   -1.96614909179581     -0.69398890803882     -1.87823335317639
  C   0.96373374802351      1.11114361400751     -0.50106996499839
  H   0.56706811135887      1.02164903766474     -1.51664757369018
  H   0.56261321761791      2.01911052522762     -0.04915784368338
  H   2.04844910207768      1.20066361864292     -0.56858126975615
  N   1.25606779833845     -1.28229203163475     -0.28491485618274
  H   1.08690313531475     -2.12916618387670      0.24186786664777
  H   0.94600125304971     -1.41335806622912     -1.24081940707405
