15
Coordinates from ORCA-job run
  C   -1.02082821897574     -0.06032845022702      0.00959083343042
  C   0.54155948388639     -0.12119748088904      0.22948368904674
  Br  -1.45564354388834      0.04720895859205     -1.90574369606907
  H   0.63831729939347     -0.17774684786546      1.32166508960300
  C   -1.61614194466624     -1.28975326601839      0.52480609479658
  N   -2.00953577478781     -2.30830500637490      0.96142351185444
  C   -1.59860171309047      1.10231819489117      0.67452553048634
  N   -2.00455659305484      2.05466570203964      1.23268523736580
  C   1.22684702456732      1.14165846349408     -0.26495007371808
  H   1.17775344124293      1.21155628980755     -1.35359732141089
  H   2.27654249264241      1.09257596878013      0.02607827337004
  H   0.78368089987711      2.04259474590675      0.16261410560563
  N   1.16943618731394     -1.28732729037624     -0.32760146525920
  H   1.09820410498072     -1.29985257150611     -1.33736439407835
  H   0.79196685455917     -2.14906741025420      0.04638458497659
