15
Coordinates from ORCA-job run
  C   -0.96351388621303     -0.27597284129684      0.48098903742957
  C   0.57238790157771     -0.15744012101996      0.27924412075080
  Br  -1.35878285398994     -1.83879816697676      1.61404776643825
  H   0.98894744512214     -0.03639358100952      1.29085553708159
  C   -1.48588133348194      0.89864798421836      1.17571789865616
  N   -1.85462918422827      1.86406431019019      1.73625221320103
  C   -1.63950930948639     -0.45728811776739     -0.80076822306902
  N   -2.17734035985300     -0.55952619011763     -1.84082435757441
  C   0.89154004433408      1.07451871653690     -0.55682098757038
  H   0.49196774582877      0.95978419629040     -1.56708421032294
  H   0.48969303888587      1.98543214580347     -0.11107638977307
  H   1.97646538973627      1.18897606721233     -0.62638278988581
  N   1.02180028526049     -1.34731135815928     -0.41318301346821
  H   1.14488005363644     -2.12463759952590      0.22222089701733
  H   1.89997502287081     -1.17205544437841     -0.88318749891089
