15
Coordinates from ORCA-job run
  C   -0.95933017661624     -0.18775080623126      0.51991975487701
  C   0.54307146659980     -0.28402369184381      0.11238613328785
  Br  -1.13351360671968      0.05879178304762      2.46348266899812
  H   0.97224996777670     -1.05645664078740      0.76636253412962
  C   -1.60557386966862      0.93485878267383     -0.15342381691138
  N   -2.10369106285057      1.85913883290349     -0.68159669202659
  C   -1.62963808411337     -1.44141173592538      0.18090919835622
  N   -2.13077559452879     -2.46689999695957     -0.10047534690613
  C   1.27007625875494      1.03336270258834      0.31793112320646
  H   0.88173735755022      1.78822958663847     -0.37026584188524
  H   2.33402266341275      0.89106932170568      0.11298911251203
  H   1.16939448375499      1.39961807102994      1.33906000647657
  N   0.53792227177549     -0.64095162288567     -1.29338406788433
  H   0.52348405164793     -1.64228256443531     -1.43550519824822
  H   1.33056387322455     -0.24729202151895     -1.78138956798198
