15
Coordinates from ORCA-job run
  C   -1.06598885481672     -0.10629615347402      0.14287911771929
  C   0.49476419398998     -0.12531890266204      0.08361849009056
  Br  -1.85753309073888      0.34152843455670     -1.59264309178424
  H   0.78631068080255     -0.30351875420365      1.13182128984610
  C   -1.53595346817913     -1.43801291651308      0.51996543686371
  N   -1.84292504725834     -2.52451136391353      0.84734574698852
  C   -1.52331540680519      0.87999892187199      1.11972853009387
  N   -1.82920404208474      1.68997395162594      1.91520065474610
  C   1.06459999429432      1.21056395998960     -0.36057795652028
  H   2.14799919767667      1.20147501178181     -0.21719428623069
  H   0.85399462260643      1.37979916034162     -1.41765215329523
  H   0.65610981302441      2.03907979851183      0.22035852053951
  N   0.89715269289146     -1.18921851261225     -0.80861418620408
  H   1.77987608755721     -0.97946682011519     -1.25323918000000
  H   0.97311262703999     -2.07707581518573     -0.32999693285316
