15
Coordinates from ORCA-job run
  C   -0.91941331534336     -0.27370759227895      0.48936291519766
  C   0.64076446708291     -0.11806853268458      0.32439087840081
  Br  -1.30677285477486     -1.81188512258987      1.65430208829106
  H   1.01977161578126     -0.00039866869814      1.34549095436608
  C   -1.50728737992261      0.90502115635431      1.11588836132985
  N   -1.92471244520208      1.87579177897462      1.63181950235567
  C   -1.52413252696666     -0.53050121876839     -0.81349605672072
  N   -1.92835537417333     -0.74199289636327     -1.89749108341828
  C   0.94392048338447      1.13245520077609     -0.49055111708177
  H   0.52348244397547      2.03171981999429     -0.03873906332656
  H   0.55433959927999      1.03794988251866     -1.50840369213552
  H   2.02706869816800      1.24241829811068     -0.55186937338905
  N   1.28541194336287     -1.25447578048272     -0.27397685786180
  H   1.12549003214264     -2.10635153929377      0.24750172405833
  H   0.99042461320529     -1.38797478556898     -1.23422918006576
