15
Coordinates from ORCA-job run
  C   -0.97078318202355     -0.26687610677053      0.47064468466762
  C   0.56807208502740     -0.16944764911703      0.28274873694535
  Br  -1.39996886688328     -1.83356362814796      1.58525718474194
  H   0.97774704318970     -0.06384701187168      1.29887469496842
  C   -1.48142706138337      0.90989769420878      1.17061402708924
  N   -1.84013346141729      1.87742191852422      1.73409848745283
  C   -1.63941112935718     -0.42451736022077     -0.81816331034332
  N   -2.17257759245409     -0.50455963114352     -1.86247394067998
  C   0.91205968417247      1.06515372783749     -0.53970830899899
  H   0.51819905910725      0.96534698032022     -1.55375194398664
  H   0.52079787157381      1.97811154753138     -0.08895628273442
  H   1.99903347685954      1.16369783801993     -0.60069232955635
  N   1.00552826886331     -1.35954486270763     -0.41744810740836
  H   1.89320028272821     -1.19363226870003     -0.87318003763717
  H   1.10866352199705     -2.14464118776287      0.21213644547983
