15

C	-0.326672	-0.065872	-1.475999
C	0.0	0.0	0.0
Cl	-2.107686	-0.173458	-1.774892
H	1.102377	0.0	0.0
H	-0.028993	0.871198	-1.944176
N	0.31199	-1.254658	-1.99109
H	0.269546	-1.248073	-3.002167
H	1.293813	-1.214976	-1.713868
N	-0.575504	-1.079829	0.746381
H	0.055558	-1.327896	1.497844
H	-0.644208	-1.873465	0.119098
N	-0.415715	1.320475	0.585912
O	-0.720353	1.341127	1.773482
O	-0.353505	2.310636	-0.142725
Br	3.439805	0.0	0.0
