15

C	-0.394599	0.013664	-1.479914
C	0.0	0.0	0.0
Cl	-0.158621	-1.713732	-2.143404
H	1.093431	0.0	0.0
H	-1.462909	0.179718	-1.61924
N	0.377837	0.996597	-2.116954
H	1.368518	0.88446	-1.907928
H	0.218975	1.051858	-3.112817
N	-0.514942	-1.026022	0.846914
H	-1.397813	-1.38598	0.514786
H	0.162262	-1.772182	0.900626
N	-0.507985	1.317554	0.531797
O	0.288837	2.146257	0.946364
O	-1.734666	1.449069	0.525618
Br	3.500446	0.0	0.0
