15

C	-0.304022	-0.040723	-1.498493
C	0.0	0.0	0.0
Cl	-2.084271	-0.255659	-1.796284
H	1.094583	0.0	0.0
H	-0.079739	0.931558	-1.939936
N	0.418823	-1.155459	-2.045038
H	0.454562	-1.079692	-3.053924
H	1.375098	-1.105881	-1.690431
N	-0.467669	-1.075749	0.801354
H	0.158498	-1.862555	0.677235
H	-1.407899	-1.349156	0.539748
N	-0.497871	1.318607	0.525334
O	-1.340485	1.318239	1.41772
O	-0.042146	2.324558	-0.017022
Br	3.444445	0.0	0.0
