15

C	-0.382302	0.262326	-1.460236
C	0.0	0.0	0.0
Cl	-0.147535	-1.33558	-2.394556
H	1.089133	0.0	0.0
H	-1.446661	0.458827	-1.582344
N	0.404428	1.329258	-1.92106
H	0.260676	1.533851	-2.899076
H	1.393419	1.167891	-1.730628
N	-0.518794	-1.157117	0.6558
H	-1.356121	-1.505065	0.208819
H	0.188826	-1.87765	0.653327
N	-0.513776	1.206288	0.747807
O	-1.733754	1.383185	0.693488
O	0.273305	1.900835	1.377117
Br	3.50357	0.0	0.0
