15

C	-0.588577	-0.014963	-1.402287
C	0.0	0.0	0.0
Cl	0.128445	-1.383052	-2.292494
H	1.089114	0.0	0.0
H	-1.659925	-0.230028	-1.33791
N	-0.293928	1.236377	-2.074897
H	-1.108761	1.833136	-2.046333
H	-0.017673	1.071014	-3.031816
N	-0.4711	-1.090424	0.795614
H	-1.426613	-0.953342	1.102957
H	0.141909	-1.231657	1.587837
N	-0.450414	1.313415	0.624561
O	-1.611563	1.672826	0.377379
O	0.293031	1.872902	1.418867
Br	3.58764	0.0	0.0
