15

C	-0.442727	0.071429	-1.46496
C	0.0	0.0	0.0
Cl	-0.432436	-1.603038	-2.148985
H	1.098222	0.0	0.0
H	-1.476236	0.409253	-1.535431
N	0.40325	0.897942	-2.276612
H	0.202239	1.862535	-2.045316
H	1.376169	0.710337	-2.038593
N	-0.627292	-1.037391	0.794001
H	-0.407189	-1.922284	0.353878
H	-0.162572	-1.034533	1.695433
N	-0.377035	1.297902	0.675978
O	-0.817247	2.235191	0.006248
O	-0.199408	1.340267	1.888818
Br	3.482418	0.0	0.0
