15

C	-0.320156	-0.067693	-1.477431
C	0.0	0.0	0.0
Cl	-2.095575	-0.211205	-1.785882
H	1.102227	0.0	0.0
H	-0.039702	0.877931	-1.939833
N	0.347622	-1.239529	-1.993859
H	1.324416	-1.18351	-1.702447
H	0.318636	-1.229107	-3.006154
N	-0.573281	-1.082911	0.746302
H	-0.626881	-1.878181	0.119054
H	0.057053	-1.322645	1.500276
N	-0.418894	1.318812	0.587356
O	-0.715356	1.336324	1.777502
O	-0.358616	2.310603	-0.140134
Br	3.437563	0.0	0.0
