15

C	-0.433017	0.095289	-1.46868
C	0.0	0.0	0.0
Cl	-0.334523	-1.55876	-2.199841
H	1.092682	0.0	0.0
H	-1.479919	0.387629	-1.550481
N	0.378952	0.99026	-2.24014
H	1.356775	0.849673	-1.992261
H	0.114808	1.937627	-2.000436
N	-0.551373	-1.043018	0.812195
H	-1.13741	-1.658458	0.267397
H	0.204564	-1.582644	1.209879
N	-0.379556	1.320504	0.670067
O	0.00025	1.45992	1.823051
O	-1.047451	2.155672	0.047856
Br	3.461239	0.0	0.0
