15

C	-0.521709	0.061887	-1.418156
C	0.0	0.0	0.0
Cl	-2.42156	0.293508	-1.28306
H	1.102493	0.0	0.0
H	-0.223736	0.976024	-1.92176
N	-0.163362	-1.088541	-2.105906
H	-0.541924	-1.144871	-3.038
H	-0.343418	-1.916633	-1.553702
N	-0.45284	-1.168337	0.6717
H	-1.386299	-1.038359	1.038931
H	0.181053	-1.389115	1.427385
N	-0.374539	1.295844	0.703025
O	-0.141636	2.337764	0.099244
O	-0.852787	1.222329	1.833509
Br	3.446561	0.0	0.0
