15

C	-0.612419	0.061006	-1.394312
C	0.0	0.0	0.0
Cl	-0.081921	1.435558	-2.396636
H	1.094993	0.0	0.0
H	-0.217162	-0.823751	-1.903617
N	-2.055725	0.099072	-1.273699
H	-2.470349	0.019248	-2.194571
H	-2.320513	-0.721324	-0.73685
N	-0.443906	-1.242838	0.605578
H	-1.065655	-1.018474	1.375575
H	0.37663	-1.697165	0.989883
N	-0.460571	1.188246	0.813253
O	-1.261738	0.99468	1.732254
O	-0.016052	2.282613	0.494877
Br	3.46565	0.0	0.0
