15

C	-0.483447	-0.040191	-1.447694
C	0.0	0.0	0.0
Cl	-0.048232	1.536831	-2.266435
H	1.089297	0.0	0.0
H	0.139594	-0.778377	-1.952856
N	-1.857468	-0.393417	-1.576246
H	-2.429894	0.317813	-1.138227
H	-2.110062	-0.491192	-2.550732
N	-0.460288	-1.124014	0.761511
H	-1.228087	-1.589252	0.296573
H	0.312032	-1.752458	0.932508
N	-0.520737	1.245533	0.676084
O	-1.734695	1.459754	0.574501
O	0.256369	1.935639	1.3203
Br	3.515595	0.0	0.0
