14

C	0.0	0.0	0.0
C	-0.293038	-0.009652	-1.587969
Br	1.925572	0.0	0.0
H	-0.021635	-1.047731	-1.834897
H	-0.431759	-0.845033	0.521248
N	-0.464593	1.239898	0.684109
O	-0.564662	2.250865	-0.002979
O	-0.63563	1.169066	1.894395
C	0.661973	0.841628	-2.331202
N	1.346957	1.485371	-3.036045
N	-1.582596	0.286188	-2.152668
H	-2.258595	0.023604	-1.366555
H	-1.656512	1.298243	-2.177425
F	-2.627038	0.0	0.0
