14

C	0.0	0.0	0.0
C	-0.470551	0.062148	-1.475153
Br	1.918676	0.0	0.0
H	0.413527	0.161808	-2.113657
H	-0.357353	-0.904411	0.470608
N	-0.407048	1.130728	0.891965
O	-0.602187	0.844707	2.06624
O	-0.398595	2.260974	0.419209
C	-1.334511	1.20542	-1.832494
N	-1.929596	2.038629	-2.412186
N	-1.098104	-1.226712	-1.754564
H	-1.95057	-1.122434	-1.175173
H	-1.362443	-1.239606	-2.734622
F	-2.441396	0.0	0.0
