14

C	0.0	0.0	0.0
C	-0.295106	0.063076	-1.569583
Br	1.91536	0.0	0.0
H	0.503808	-0.563923	-1.978597
H	-0.382211	-0.921067	0.424813
N	-0.509227	1.093977	0.883158
O	-0.615443	0.795196	2.067143
O	-0.692159	2.200272	0.399828
C	0.016402	1.404079	-2.107788
N	0.332658	2.415097	-2.614555
N	-1.532743	-0.414081	-2.126546
H	-2.247681	-0.168493	-1.371068
H	-1.48063	-1.427774	-2.114873
F	-2.613737	0.0	0.0
