15

C	0.0	0.0	0.0
C	-0.611359	-0.06466	-1.400891
F	1.363549	0.0	0.0
H	-1.736199	-0.034857	-1.151772
N	-0.562885	1.150725	0.603705
H	-0.342708	1.143668	1.594852
H	-1.602975	0.963195	0.520705
C	-0.349228	-1.282389	0.701178
N	-0.588877	-2.286558	1.262584
N	-0.31902	-1.368474	-2.087799
O	-1.2775	-1.973679	-2.560275
O	0.855092	-1.732732	-2.139134
C	-0.139222	1.010645	-2.246278
N	0.241802	1.853244	-2.972306
H	-2.866656	0.0	0.0
