15

C	0.0	0.0	0.0
C	-0.552609	-0.036632	-1.439912
F	1.37046	0.0	0.0
H	-1.675255	-0.062657	-1.219353
N	-0.525673	1.095641	0.729898
H	-1.562805	0.918187	0.689438
H	-0.326567	1.951622	0.218166
C	-0.398021	-1.269613	0.666531
N	-0.567381	-2.312514	1.179513
N	-0.149548	-1.271637	-2.19024
O	-1.042979	-2.062861	-2.482099
O	1.045436	-1.41311	-2.447238
C	-0.124394	1.128393	-2.183935
N	0.193904	2.093658	-2.77617
H	-2.833271	0.0	0.0
