15

C	-0.518883	-0.053614	-1.443765
C	0.0	0.0	0.0
Br	-0.062995	1.668755	-2.28086
H	1.090264	0.0	0.0
C	0.164243	-1.096207	-2.209239
N	0.658099	-1.928366	-2.876721
C	-1.966505	-0.236296	-1.570791
N	-3.11925	-0.38506	-1.746203
N	-0.461843	-1.19049	0.77616
O	-0.825084	-2.173004	0.134014
O	-0.384224	-1.101337	1.993735
N	-0.548095	1.192515	0.714648
O	-1.775774	1.244974	0.791084
O	0.245165	2.007353	1.163388
Cl	3.100264	0.0	0.0
