15

C	-0.537237	-0.001057	-1.438408
C	0.0	0.0	0.0
Br	0.371883	-1.390173	-2.479052
H	1.088811	0.0	0.0
C	-1.984565	-0.2121	-1.535911
N	-3.145603	-0.333518	-1.677047
C	-0.21708	1.281934	-2.068685
N	0.026597	2.315807	-2.572896
N	-0.461592	-1.174567	0.796516
O	-0.163201	-1.134626	1.983378
O	-1.062959	-2.078817	0.221712
N	-0.534921	1.215896	0.701759
O	0.204039	2.190684	0.766327
O	-1.693731	1.139061	1.112308
Cl	3.107479	0.0	0.0
