15

C	-0.521908	0.002459	-1.433238
C	0.0	0.0	0.0
Br	-2.427523	0.488401	-1.60821
H	1.091401	0.0	0.0
C	0.234586	0.969964	-2.234788
N	0.86598	1.704475	-2.902175
C	-0.326125	-1.323789	-2.024233
N	-0.121443	-2.369133	-2.522933
N	-0.47122	-1.158085	0.808316
O	0.237981	-1.415122	1.77588
O	-1.44619	-1.802281	0.416516
N	-0.452692	1.23404	0.708207
O	-1.240209	1.112293	1.643443
O	0.059549	2.271062	0.301076
Cl	2.671014	0.0	0.0
