16

C	-0.266896	0.081263	-1.494804
C	0.0	0.0	0.0
Br	-0.267616	-1.748841	-2.260027
H	1.094434	0.0	0.0
H	-0.420426	-0.903193	0.441749
N	-1.685941	0.621269	-1.72029
O	-1.788584	1.760923	-2.174793
O	-2.623043	-0.057882	-1.3179
N	0.663744	0.86979	-2.21745
H	1.581371	0.726862	-1.773897
H	0.396263	1.84469	-2.165631
C	-0.45543	1.255457	0.734885
H	-1.545157	1.348028	0.787881
H	-0.04952	2.153693	0.26294
H	-0.060327	1.225729	1.753352
H	2.893159	0.0	0.0
