16

C	-0.171972	-0.13702	-1.479045
C	0.0	0.0	0.0
Br	-2.061549	-0.789712	-2.080649
H	1.09898	0.0	0.0
H	-0.413129	0.936445	0.367684
N	-0.203734	1.277787	-2.159928
O	0.336762	1.364724	-3.259435
O	-0.765142	2.196607	-1.5765
N	0.799034	-0.957335	-2.010959
H	1.699594	-0.786092	-1.509447
H	0.889336	-0.856774	-3.012988
C	-0.46211	-1.207798	0.796354
H	-0.051687	-1.146826	1.808424
H	-1.551657	-1.269506	0.85823
H	-0.086761	-2.124682	0.338577
H	2.797176	0.0	0.0
