16

C	-0.208548	-0.115323	-1.483628
C	0.0	0.0	0.0
Br	-2.101729	-0.577282	-2.018257
H	1.097664	0.0	0.0
H	-0.410792	0.928093	0.396224
N	0.004718	1.291744	-2.093214
O	0.819649	1.406599	-2.998128
O	-0.649676	2.205723	-1.602431
N	0.668597	-1.011596	-2.150298
H	1.610628	-0.811565	-1.767105
H	0.424272	-1.955954	-1.87412
C	-0.446144	-1.209946	0.801541
H	-0.014307	-2.129581	0.39795
H	-0.074488	-1.111959	1.8251
H	-1.533802	-1.318017	0.828404
H	2.831173	0.0	0.0
