12
Coordinates from ORCA-job run
  C   0.59322994729316     -0.37938153861899      0.61138591089678
  C   -0.86667810050576     -0.11189867165791      0.32570484925432
  Cl  0.99090022593738     -0.14174788805889      2.31819078580919
  H   -1.12995722137253      0.87744099274524      0.71173543833441
  H   0.89274373854064     -1.38131017019021      0.31404662452562
  H   -1.44082985839538     -0.85605638981944      0.88262786274135
  N   1.45857276517406      0.55092663328158     -0.20152528092881
  O   1.01287721850059      1.67136610177346     -0.43475162929872
  O   2.55009948932352      0.11685139590346     -0.54954867081841
  N   -1.07595806988346     -0.28673195678754     -1.10443565957330
  H   -1.99400656915010     -0.66209602817099     -1.29353102450827
  H   -0.98999356546213      0.60063751960023     -1.58089920643416
