12
Coordinates from ORCA-job run
  C   0.47732659468660      0.09503505696669      0.60390273422036
  C   -0.51865496861665     -0.15438851299288     -0.51249168429803
  Cl  0.16584736201028      1.63043270389316      1.41900844478850
  H   -0.46038943593835      0.68250701753254     -1.21874466657787
  H   0.46028325053919     -0.70074920080393      1.34348148670851
  H   -0.19366369891573     -1.06232972036384     -1.03066870895799
  N   1.86315412406166      0.10857397569339      0.02156791341155
  O   2.11628801141729      0.97708740177148     -0.80538193345443
  O   2.61103797484851     -0.79701078326074      0.38321435036021
  N   -1.82778875483792     -0.39487806695336      0.07373478901879
  H   -2.42387629284290     -0.86846033031077     -0.59135172819617
  H   -2.26956416641200      0.48318045882827      0.31372900297658
