12
Coordinates from ORCA-job run
  C   0.52049881667098      0.13201230079857      0.56052333707787
  C   -0.55405397645338     -0.18439515605652     -0.46223391530988
  Cl  0.26370697996801      1.71433091150419      1.30100707540491
  H   -0.26475561625973     -1.12208754367795     -0.94748613030698
  H   0.56070792571349     -0.61723592016087      1.34637343581189
  H   -0.55173837562507      0.60820402799892     -1.22004313334803
  N   1.85947856158916      0.10811184199471     -0.12205720411517
  O   2.04957226644596      0.92624743183760     -1.01467729693169
  O   2.63321713576072     -0.77729571674060      0.23513320455954
  N   -1.81569514908458     -0.38769980399885      0.23267207554279
  H   -2.45496305588912     -0.90596614843236     -0.35444897717003
  H   -2.24497551283642      0.50377377493314      0.44423752878480
