14

C	-0.485629	-0.010672	-1.438215
C	0.0	0.0	0.0
Br	-0.226465	1.721271	-2.252966
H	1.095346	0.0	0.0
H	-1.538054	-0.274253	-1.539613
N	0.262779	-1.019136	-2.292273
O	1.462618	-1.122814	-2.115391
O	-0.411067	-1.637096	-3.104504
N	-0.420433	-1.283081	0.665372
O	-0.491366	-1.289546	1.89021
O	-0.52413	-2.267229	-0.071992
C	-0.521785	1.104378	0.770089
N	-0.961436	2.006473	1.389545
Br	2.731543	0.0	0.0
