15

C	-0.559746	-0.00975	-1.413246
C	0.0	0.0	0.0
Br	-0.145062	-1.679987	-2.355706
H	1.097877	0.0	0.0
H	-0.015569	0.740108	-1.999288
N	-1.995928	0.172351	-1.390542
H	-2.33576	0.383864	-2.320728
H	-2.129317	0.984613	-0.792309
N	-0.528562	-1.086212	0.77668
H	-1.502951	-0.944392	1.015544
H	0.033852	-1.211894	1.607796
N	-0.415288	1.350861	0.539821
H	-0.426466	1.240364	1.549188
H	0.386562	1.95232	0.356887
F	2.691842	0.0	0.0
