15

C	-0.152539	-0.179783	-1.524268
C	0.0	0.0	0.0
Br	-0.564763	1.689944	-2.524368
H	1.097541	0.0	0.0
H	-1.069862	-0.67165	-1.865567
N	1.006437	-0.77937	-1.967724
H	1.858373	-0.464681	-1.446382
H	1.09829	-0.903688	-2.962898
N	-0.405412	-1.255296	0.663678
H	0.366973	-1.903128	0.554276
H	-1.211695	-1.666538	0.199561
N	-0.595018	1.178439	0.568572
H	-0.276828	1.212356	1.530322
H	-1.605741	1.0748	0.592917
F	2.758116	0.0	0.0
