15

C	-0.637891	0.061551	-1.370924
C	0.0	0.0	0.0
Br	0.142286	-1.46111	-2.5344
H	1.096923	0.0	0.0
H	-0.295738	0.938341	-1.914481
N	-2.042305	-0.024191	-1.295162
H	-2.276051	-0.812916	-0.702148
H	-2.478587	-0.108648	-2.20239
N	-0.528277	-1.214349	0.688975
H	-0.199177	-1.130111	1.646989
H	-0.000614	-1.994201	0.302137
N	-0.408524	1.21534	0.684001
H	0.273731	1.405723	1.407929
H	-1.33442	1.109849	1.084685
F	2.683667	0.0	0.0
