15

C	-0.712386	0.033267	-1.341302
C	0.0	0.0	0.0
Br	0.199733	1.247664	-2.586915
H	1.097688	0.0	0.0
H	-1.689008	0.520412	-1.20758
N	-0.788013	-1.277228	-1.957037
H	-1.304782	-1.854119	-1.300426
H	-1.316885	-1.212426	-2.818737
N	-0.439289	-1.26887	0.672965
H	-0.165368	-1.141191	1.643624
H	0.217889	-1.967757	0.328364
N	-0.422806	1.160412	0.765084
H	0.339748	1.417219	1.378364
H	-1.24622	0.943494	1.317719
F	2.677716	0.0	0.0
