16

C	-0.501496	0.008151	-1.440708
C	0.0	0.0	0.0
F	-0.002299	1.059818	-2.140151
H	1.090527	0.0	0.0
N	0.042999	-1.25623	-2.120785
O	-0.73543	-2.229617	-2.196068
O	1.223487	-1.245866	-2.366744
C	-1.973796	0.008339	-1.582598
N	-3.146076	0.053459	-1.646599
N	-0.521721	-1.142199	0.657896
H	0.109554	-1.400777	1.41172
H	-1.457982	-0.970762	1.023464
N	-0.467376	1.302935	0.636371
O	-1.497736	1.265209	1.356836
O	0.173785	2.334144	0.355932
F	2.50684	0.0	0.0
