16

C	-0.370437	0.019232	-1.483257
C	0.0	0.0	0.0
F	-0.036544	-1.19313	-2.0054
H	1.091634	0.0	0.0
N	-1.896065	0.123745	-1.634437
O	-2.374989	1.241493	-1.79604
O	-2.522802	-0.923506	-1.49089
C	0.234369	1.059786	-2.31623
N	0.707782	1.777368	-3.116962
N	-0.430954	-1.150965	0.695624
H	0.329657	-1.813996	0.720798
H	-1.282262	-1.574208	0.353964
N	-0.498329	1.266685	0.620985
O	-0.205578	2.305439	0.023669
O	-1.124942	1.220812	1.676304
F	2.481127	0.0	0.0
