16

C	-0.467831	-0.002293	-1.438722
C	0.0	0.0	0.0
F	-0.026713	1.100555	-2.096326
H	1.090633	0.0	0.0
N	0.202468	-1.21347	-2.122159
O	1.384218	-1.071114	-2.39583
O	-0.50108	-2.203331	-2.320137
C	-1.919394	-0.147217	-1.638022
N	-3.078225	-0.289989	-1.767861
N	-0.525667	-1.13382	0.672854
H	-1.515066	-1.064248	0.891942
H	0.023377	-1.340036	1.497045
N	-0.430031	1.311523	0.625165
O	-1.463661	1.861335	0.218014
O	0.25625	1.722462	1.558934
F	2.519849	0.0	0.0
