16

C	-0.324806	0.016806	-1.496035
C	0.0	0.0	0.0
F	0.053761	-1.176806	-2.021287
H	1.088432	0.0	0.0
N	-1.843361	0.10219	-1.686107
O	-2.457423	-0.961439	-1.664276
O	-2.330485	1.225949	-1.740987
C	0.282681	1.095429	-2.279411
N	0.74791	1.869796	-3.029662
N	-0.460965	-1.139114	0.692804
H	-1.338805	-1.5269	0.374269
H	0.274563	-1.829997	0.702054
N	-0.551405	1.267356	0.572446
O	-0.014868	2.313472	0.210432
O	-1.513738	1.198846	1.336995
F	2.49153	0.0	0.0
