16

C	-0.60529	-0.054617	-1.383139
C	0.0	0.0	0.0
F	-1.969081	0.095496	-1.3424
H	1.091204	0.0	0.0
N	-0.068111	1.023141	-2.340153
O	1.116893	0.919011	-2.610486
O	-0.865434	1.846339	-2.762529
C	-0.300716	-1.340793	-2.021328
N	-0.093024	-2.341831	-2.598872
N	-0.436069	-1.143309	0.731828
H	-1.286677	-0.960092	1.247581
H	0.299701	-1.39566	1.378223
N	-0.411065	1.297322	0.627607
O	-0.197804	2.320585	-0.021238
O	-0.889598	1.276602	1.763151
F	2.476194	0.0	0.0
