16

C	-0.642848	-0.083945	-1.36347
C	0.0	0.0	0.0
F	-2.008637	0.033568	-1.277794
H	1.092945	0.0	0.0
N	-0.16354	0.995439	-2.348001
O	1.023765	0.940594	-2.621098
O	-1.001697	1.765103	-2.791761
C	-0.325426	-1.371001	-1.996904
N	-0.12747	-2.395853	-2.532998
N	-0.408809	-1.136109	0.759406
H	0.333243	-1.35434	1.410821
H	-1.263565	-0.964383	1.272553
N	-0.406884	1.301986	0.622046
O	-0.272808	2.315781	-0.062204
O	-0.798024	1.295326	1.790241
F	2.473101	0.0	0.0
