14
Coordinates from ORCA-job run
  C   -0.29948560288985      0.48310795760524      0.13158879011497
  C   0.33716683151750     -0.85312774257117      0.44718214947734
  Cl  0.79694314364516      1.81561645301075      0.63574921347529
  H   0.38478535149569     -0.99278884083806      1.52631332733922
  H   -0.24616384810294     -1.65014272704106     -0.01156137971320
  N   -0.58155721973368      0.62834015977634     -1.37282727861569
  O   -0.61337821142689     -0.40341537478660     -2.02710329287454
  O   -0.86146251868479      1.75401068860724     -1.75787811694416
  N   -1.58607117765896      0.53759552604120      0.72191006635483
  H   -2.03575035039365      1.42082706524203      0.50627765175905
  H   -1.53413494913590      0.42984393476499      1.72706352518644
  N   1.73804605066329     -1.00159275986846     -0.05042991332627
  O   2.05784286312437     -0.39265034263697     -1.06425715920041
  O   2.44321963758067     -1.77662399730548      0.58797241696714
