14
Coordinates from ORCA-job run
  C   -0.28471353649058      0.58816098523232      0.12143362592772
  C   0.35228307980445     -0.74070715576048      0.51388022083358
  Cl  0.78349197503229      1.90818919624227      0.55940332224891
  H   -0.26017462736962     -1.55886907192640      0.13197080555054
  H   0.44927206845970     -0.79185603754654      1.59658870897368
  N   -0.55110047163436      0.57844758845083     -1.39728279049776
  O   -0.10468848790639      1.45929986918244     -2.10467943547151
  O   -1.27453394718439     -0.35412298405577     -1.73441663764314
  N   -1.57611024239193      0.80882694967988      0.69857277134170
  H   -1.50706795793796      0.99373197598680      1.69024843077566
  H   -2.18774410520292      0.02183387822965      0.51808839616158
  N   1.71904070407583     -0.92131585765676     -0.05319568037952
  O   1.83996500819664     -0.70938381505580     -1.25656837113444
  O   2.60308054054924     -1.28223552100243      0.71695663331302
