14
Coordinates from ORCA-job run
  C   -0.24959586094259      0.62398899536083      0.07320227388393
  C   1.10114002082265     -0.03587991737929      0.26464167190400
  Cl  0.01735147281186      2.40972936479541      0.37169191923471
  H   1.78747165695488      0.27231100172663     -0.52116624683342
  H   1.50005005151243      0.19099275498093      1.25127447141720
  N   -0.67866817673165      0.57542127528889     -1.40167125634521
  O   -1.87745709987174      0.45008948624049     -1.61120459797143
  O   0.20187398856658      0.72479394482606     -2.23266690284131
  N   -1.24042065536222      0.01905726531578      0.84076469732532
  H   -2.16792673272848      0.35867009273791      0.62655789355023
  H   -1.04298129858311      0.05295084247881      1.83141789253312
  N   0.93080232103470     -1.51621548743840      0.18799913675767
  O   1.17526452279089     -2.16015718783079      1.20434998702810
  O   0.54309578972579     -1.96475243110326     -0.88519093964292
