14
Coordinates from ORCA-job run
  C   -0.22102096158016      0.44082394860348     -0.23224690289971
  C   0.32094160291475     -0.96785139976332     -0.05544798097844
  Cl  1.09851606948669      1.44670716337246     -0.99521538503810
  H   -0.42936671356181     -1.58649061226862      0.43941795705912
  H   0.61369272437479     -1.39306794571384     -1.00865779220594
  N   -1.32238860464254      0.41164789958409     -1.30248104305246
  O   -1.98485832824705      1.43328900339954     -1.39806186809674
  O   -1.45344187348307     -0.61394801734001     -1.95933091331151
  N   -0.80650599944216      0.96879119036151      0.91666241309255
  H   -0.19329787128230      0.88978794236939      1.71710945067203
  H   -1.13563601678817      1.91461361714612      0.77436861148867
  N   1.53719692484470     -0.97056311162974      0.81228364142517
  O   2.53198805496414     -1.53367802133161      0.37132703186887
  O   1.44418099244219     -0.43906165678945      1.91827277997648
