14
Coordinates from ORCA-job run
  C   -0.25192673203319      0.48409577308202      0.32481864430618
  C   0.33246961630689     -0.91621661911418      0.38232349646777
  Cl  0.81510985135522      1.63575961064920      1.10694705031346
  H   0.39835416899446     -1.22698825677023      1.42167288648771
  H   -0.28916458176109     -1.60081813552768     -0.19684590637891
  N   -0.43941741672029      0.88860224362326     -1.17360021281101
  O   -1.12549140456877      0.07782705947821     -1.79017554125072
  O   -0.00216998360999      1.94506792766661     -1.58973098076024
  N   -1.51346101782189      0.46903601296514      0.98239768519984
  H   -1.87834803518748      1.40747880845676      1.09366098166728
  H   -2.17162709211799     -0.09670851246100      0.45810567969128
  N   1.70509055257707     -0.99381167868346     -0.19212452827476
  O   1.89507681998477     -0.41002413923537     -1.25521461458042
  O   2.52550525460228     -1.66230009412928      0.42776535992254
