14
Coordinates from ORCA-job run
  C   -0.32718012321037      0.42661837223252     -0.08895043204991
  C   0.60595219084284     -0.74403825980907     -0.34823919101603
  Cl  0.67532893210900      1.95267927138145     -0.15343865686689
  H   1.08794008719061     -0.64901108045261     -1.31460108161907
  H   0.04703693390153     -1.67850749939167     -0.27709988370360
  N   -1.28161506796790      0.56694459978314     -1.28464424756832
  O   -1.04154638436484     -0.09405215216715     -2.28755710909719
  O   -2.21584210343675      1.33614203913461     -1.11948880954865
  N   -1.13220940384345      0.27015832427348      1.03706283493378
  H   -0.58792329913178      0.02591972542686      1.85372431414630
  H   -1.72566756187496      1.07400002756810      1.19435843900822
  N   1.69438821271177     -0.80228060875040      0.67390002653433
  O   1.35960020050258     -0.80749292553865      1.85801882149391
  O   2.84373738657171     -0.87607983369063      0.25595497535313
