14
Coordinates from ORCA-job run
  C   -0.28268608178493      0.42545570944838     -0.19003023104922
  C   0.48219692855613     -0.88709394755376     -0.15274769240365
  Cl  0.88048221455127      1.72354002997489     -0.73798826433792
  H   0.88330973726951     -1.12999549434583     -1.13011727132152
  H   -0.17259142550244     -1.67941635436074      0.21346374133062
  N   -1.31579941661319      0.35928257539617     -1.32418312321977
  O   -1.24578791482357     -0.58083711028459     -2.10631819006848
  O   -2.13469675764396      1.26532757915596     -1.33832523329527
  N   -0.99764474482885      0.69636471351412      0.97455730144162
  H   -1.47689815223093      1.58588899683063      0.92773260343918
  H   -0.41521282982047      0.61389174201575      1.79727897979764
  N   1.64318320155343     -0.80658824694226      0.78433479125927
  O   2.73627022629500     -1.14053565237285      0.34309711971645
  O   1.41487501502300     -0.44528454047586      1.93824546871107
