14
Coordinates from ORCA-job run
  C   -0.29297586000514      0.58331091871735      0.12459396208048
  C   0.37234695867093     -0.73349728968657      0.50946190751214
  Cl  0.75845929289914      1.92240461250180      0.54425785666647
  H   0.48678111945547     -0.78142621623063      1.59062210227937
  H   -0.23199120482414     -1.56283668777692      0.13883902610880
  N   -0.58163609367641      0.56615727811612     -1.39041856128724
  O   -0.16302215194725      1.45457911318400     -2.10528409809940
  O   -1.29231828010941     -0.38040487365065     -1.71538992948503
  N   -1.57951398547157      0.78280436704223      0.72017171104713
  H   -1.49847609775746      0.97620888682621      1.70931095636608
  H   -2.17840447255114     -0.01721032403074      0.55494320790876
  N   1.73313657427893     -0.89250703702746     -0.07828264910533
  O   1.83240953931100     -0.67968004027695     -1.28347841661392
  O   2.63420466172706     -1.23890270770781      0.67865292462169
