14
Coordinates from ORCA-job run
  C   -0.23651692268635      0.58187185356113     -0.15915902511781
  C   0.50923805989045     -0.75837781701359     -0.27063611859815
  Cl  0.90311440411932      1.88960282476869     -0.42840575751334
  H   -0.18005393206929     -1.57445504437821     -0.05191785413143
  H   0.96385342499464     -0.87197890541793     -1.25372091404428
  N   -1.25683653573834      0.51032486217106     -1.31787916430982
  O   -2.12561543169676     -0.33861263850025     -1.13180896223315
  O   -1.13640037218872      1.23506761791327     -2.28928462321745
  N   -1.01151894379970      0.84847320264730      1.00324198398891
  H   -0.40652299989910      0.92233925064460      1.81112576469523
  H   -1.67410260830583      0.09600120729577      1.15119285574947
  N   1.61154985819920     -0.82803145911264      0.72633783854282
  O   1.28922765279804     -0.73183096317413      1.90991975880476
  O   2.75158434638245     -0.97939399140506      0.29999421738423
