14
Coordinates from ORCA-job run
  C   -0.37425686671459      0.44205907722644      0.21688067529342
  C   0.41964335014382     -0.85051565365645      0.35847902615671
  Cl  0.46437679167219      1.86182541055333      0.94302839100491
  H   -0.13014633459536     -1.63709403799416     -0.15313429341548
  H   0.51005819754590     -1.07576077728716      1.42308356497254
  N   -0.55290138771908      0.80662119217181     -1.25775382534670
  O   -1.51672828188909      1.50922780820888     -1.52823695627414
  O   0.29756076424410      0.39187472104048     -2.03374102730382
  N   -1.67026466188672      0.21205513272144      0.73065104781391
  H   -1.64298748896604      0.08340650947604      1.73416511563754
  H   -2.27890921997981      0.98968328221135      0.50209953509207
  N   1.81160818564072     -0.88436188170718     -0.18966552623755
  O   2.62013596450697     -0.08563046653762      0.26766292935419
  O   2.04381098799699     -1.76439031642721     -1.01151865674760
