14
Coordinates from ORCA-job run
  C   -0.26818991361598      0.76342138551846      0.04588023306961
  C   1.07486572677826      0.03264062320749      0.19852951284123
  Cl  0.10695470728312      2.49014363359684      0.03439801265071
  H   1.49086847573544      0.24310944068691      1.18305474753537
  H   1.75895100347787      0.30708463051499     -0.60153277337772
  N   -0.77910105782589      0.34444696283535     -1.35183040325950
  O   -0.19937093205254      0.81073644927286     -2.32009469221677
  O   -1.66884869123688     -0.49742464864456     -1.35535649612470
  N   -1.30298670825774      0.51658532191924      0.97652137140123
  H   -1.52502257627683     -0.46917434013479      1.03071368856857
  H   -1.05287889092658      0.86981720196354      1.89044399880794
  N   0.85403692953126     -1.43930094396470      0.11286400296448
  O   1.16737007464646     -1.99500263553746     -0.93705560276939
  O   0.34335185274003     -1.97708308123417      1.09546439990895
