14
Coordinates from ORCA-job run
  C   -0.22533161006994      0.68435091455092      0.23286755810027
  C   1.11704301387308     -0.02095078417639      0.21830820216993
  Cl  0.10120926042090      2.42409672654455      0.41333928319542
  H   1.55682205214534      0.03298868108248      1.21450858043848
  H   1.78848275583714      0.41673589547862     -0.51448423629209
  N   -0.85309892393862      0.55991941864068     -1.19354070378458
  O   -0.07904571603114      0.46780238242273     -2.13751380711011
  O   -2.07415809331905      0.59286251200189     -1.24364529996627
  N   -1.08360588667814      0.26149124097641      1.25828948878321
  H   -1.93713132396889      0.80535820613450      1.26225570125299
  H   -1.30357247182289     -0.71959029952188      1.13525843881577
  N   1.01501306633830     -1.47336530433194     -0.13246357841179
  O   2.07818847484969     -2.04788950218382     -0.31883729047974
  O   -0.10281459763579     -1.98381008761874     -0.19434233671151
