14
Coordinates from ORCA-job run
  C   -0.24065793749823      0.53793167703810      0.23645749867086
  C   0.38714207818880     -0.81170980014751      0.53643692592993
  Cl  0.84891737831738      1.84126919563982      0.67393519939165
  H   0.54138610243528     -0.89717552137494      1.60885324547917
  H   -0.25625323620052     -1.61044087944503      0.16415058413241
  N   -0.55273035065806      0.61711313964558     -1.29321728306007
  O   -0.18127207251019      1.56964486653359     -1.95291149961288
  O   -1.25787618490617     -0.31445887148871     -1.67146857847158
  N   -1.44761414044413      0.64532430504473      0.98168508441487
  H   -1.83067709685021      1.58135432352939      0.92396655837732
  H   -2.12692398676359     -0.02629098398721      0.64157929243317
  N   1.71373812961304     -0.98985639391457     -0.11803955665659
  O   1.80540935847691     -0.63955746005996     -1.29099827507202
  O   2.59841195879969     -1.50214759701328      0.55957080404375
