14
Coordinates from ORCA-job run
  C   -0.24295811250059      0.69238167828468      0.18682833395306
  C   1.03471803416815     -0.07416569550484      0.46849670126728
  Cl  0.10824929110897      2.41350351914078      0.47043316020673
  H   1.87505962532585      0.33724022322895     -0.08289268705000
  H   1.23583894191060     -0.04754836504737      1.53972513588493
  N   -0.53006588136821      0.60964041779260     -1.34746107943417
  O   0.43592291216437      0.48894683076144     -2.08987743127468
  O   -1.70402326509310      0.70081488204739     -1.67637401160162
  N   -1.33203637878123      0.30103091060479      0.97939712908762
  H   -2.14018141559739      0.88147083936409      0.79393197008394
  H   -1.55763251970495     -0.66857040438174      0.79208492854366
  N   0.95352872029709     -1.51803441760730      0.07930794824306
  O   2.00464386716217     -2.14031887939158      0.13608496600147
  O   -0.14006381909174     -1.97539153929191     -0.25068506391129
