14
Coordinates from ORCA-job run
  C   -0.35525943219352      0.40686555023826      0.22495190504894
  C   0.37293050394520     -0.91980647835233      0.23693373081494
  Cl  0.55265797902935      1.60896518196420      1.20503965177753
  H   0.33680471509327     -1.35059485698128      1.23665874508682
  H   -0.09062320014949     -1.59409909928347     -0.48165426127843
  N   -0.50011333814864      0.95213496398586     -1.20504080553849
  O   -0.83491267504683      2.12357508866915     -1.30082998882940
  O   -0.38039651892702      0.14302617118763     -2.11313177498964
  N   -1.69326411219571      0.20769957141887      0.64675383593805
  H   -1.72969241126114     -0.17645477987010      1.58263580470759
  H   -2.20224202288865      1.08495999140065      0.62985317385932
  N   1.82007680482783     -0.83227838068088     -0.12343327677992
  O   2.17468538436412      0.06613484842332     -0.87720861313578
  O   2.53034832355123     -1.71912777211988      0.33947187331844
