14
Coordinates from ORCA-job run
  C   -0.28718515509516      0.60898306059941      0.05828211257194
  C   1.09613214330685      0.03240677020778      0.28104383460389
  Cl  -0.12543632643006      2.41331901787060      0.32313345442377
  H   1.77538825970845      0.36662867595368     -0.50038484199400
  H   1.46694235571752      0.29946328946206      1.26855551500189
  N   -0.69170497064591      0.50642937389694     -1.42083936166091
  O   -1.87804208078586      0.30749313119052     -1.64365965411325
  O   0.19110747359539      0.68899984211401     -2.24279150643470
  N   -1.25329160737312     -0.03465784963485      0.82568210720663
  H   -1.07474711348064      0.03509956342432      1.81802921390158
  H   -2.19527399890179      0.24507708076455      0.58907566825048
  N   1.01672445573181     -1.45657191760913      0.22799049755606
  O   1.30596081753308     -2.06817072309466      1.25263342315191
  O   0.65542574711945     -1.94549931514524     -0.83675046246530
