14
Coordinates from ORCA-job run
  C   -0.18511645544730      0.72278252262803      0.12831144602804
  C   1.07682557871732     -0.08572431763350      0.35910116746465
  Cl  0.28196164910202      2.43963135615214      0.16249520746668
  H   1.86763838520441      0.20768007555050     -0.32492647881576
  H   1.40067172812514      0.04859216137020      1.39149275567537
  N   -0.65105190206553      0.48384465697220     -1.34473693814501
  O   0.21546806237909      0.21758535475560     -2.16759383028658
  O   -1.84898243858525      0.61146387003434     -1.55273978377099
  N   -1.19358489518812      0.49437841943312      1.07578328790941
  H   -1.98751273895295      1.10017533328943      0.91122981835966
  H   -1.48783122672170     -0.47394812920943      1.03229197259384
  N   0.87992055477796     -1.55619066028806      0.15479186538120
  O   1.89876034060011     -2.23227612545513      0.16604073667948
  O   -0.26616664194520     -1.97899451759943      0.00745877346000
