14
Coordinates from ORCA-job run
  C   -0.29312049674159      0.48449772644496      0.14816143277376
  C   0.32388558390813     -0.86954146642778      0.42365735535110
  Cl  0.81434188644262      1.78496683255197      0.70664394586850
  H   -0.27255559635969     -1.64426842116280     -0.05588752708855
  H   0.37101356206259     -1.04099209840858      1.49828628682904
  N   -0.56032093118448      0.68245013063088     -1.35293716373721
  O   -0.60317230731521     -0.32787783314316     -2.03923246291889
  O   -0.81809850098844      1.82402575947504     -1.70483638480237
  N   -1.58456026159315      0.53485850572280      0.72919737827604
  H   -1.54208308733122      0.39362901922128      1.73071032889368
  H   -2.02104541813096      1.43074844959367      0.54004112526030
  N   1.72155411948173     -1.02672551180180     -0.08102902316269
  O   2.40397494615774     -1.85308373687430      0.51619605718720
  O   2.06018650159195     -0.37268735582218     -1.05997134872992
