14
Coordinates from ORCA-job run
  C   -0.29140679651785      0.58103688225102      0.13929666155223
  C   0.35203320585210     -0.75608830441934      0.49072072785024
  Cl  0.75983111017751      1.89268543050112      0.63900300721079
  H   -0.24888522196670     -1.56474547765082      0.07202108277515
  H   0.43639360728726     -0.84602713859125      1.57197056187899
  N   -0.53869182163399      0.62537910217217     -1.38224100557041
  O   -1.24965456626859     -0.30020716378331     -1.76240488899491
  O   -0.09142675910174      1.53535917340372     -2.05108728179318
  N   -1.59189444071540      0.76965994850045      0.70747638831313
  H   -2.19362143587900     -0.01610710112460      0.49172571241327
  H   -1.53634411885642      0.91925507597772      1.70595958681211
  N   1.72704949192485     -0.90496867005931     -0.06525904595630
  O   2.60458397374676     -1.28644307116098      0.70242950198570
  O   1.86103377195121     -0.64878868601658     -1.25861100847680
