14
Coordinates from ORCA-job run
  C   -0.26367787899493      0.51727887586803      0.25739930151974
  C   0.40596959137896     -0.82305033599560      0.50403943117152
  Cl  0.77088315887188      1.83428832674052      0.77903473206336
  H   0.54290407517470     -0.95596186089533      1.57397089466903
  H   -0.20205933136207     -1.62405230768387      0.08061559054887
  N   -0.55081597915245      0.66064106163744     -1.27267965252628
  O   -1.21690742471639     -0.27435935696884     -1.70886003861571
  O   -0.20051507854518      1.65622415684644     -1.87812176545384
  N   -1.48687778911826      0.54612535921181      0.98315932585280
  H   -2.13568431921392     -0.13107356635994      0.59768713847613
  H   -1.90165799777062      1.47012038227591      0.96314757786861
  N   1.74953378074414     -0.92375830407965     -0.13184248983996
  O   1.85036254121347     -0.51126929383970     -1.28369025968752
  O   2.63854265149068     -1.44115313675721      0.53614021395325
