14
Coordinates from ORCA-job run
  C   -0.25852929524907      0.44135994018218     -0.18720407080104
  C   0.43748861934307     -0.90919253756586     -0.15968372194323
  Cl  0.97337125528817      1.68507375827478     -0.70912472523066
  H   -0.26090385636077     -1.67021820542818      0.19200207493544
  H   0.83494066079959     -1.16156202572871     -1.13609745390286
  N   -1.28345474485250      0.44213396582945     -1.33115156125150
  O   -1.24544898709925     -0.48384712883940     -2.13212742654146
  O   -2.06201679464363      1.38311975170272     -1.33480380470383
  N   -0.96861638964101      0.73364802048276      0.97513023151077
  H   -0.39907223904156      0.61010142318702      1.80169586794127
  H   -1.40188189571015      1.64677360000423      0.93641171981711
  N   1.59245564191210     -0.89814157971092      0.78832732320937
  O   2.67355918983552     -1.27284711386081      0.35020988352698
  O   1.37010883541949     -0.54640186852928      1.94641566343366
