14
Coordinates from ORCA-job run
  C   -0.12369308150605      0.65171145448577      0.12847859371584
  C   1.02498434778578     -0.30591800283440      0.37169260069994
  Cl  0.46656851272709      2.29308949406217      0.68391854438160
  H   1.85756982118740     -0.07371733675480     -0.28899331895294
  H   1.32913051677342     -0.27958260830510      1.41613358967308
  N   -0.35877734165571      0.85455858851822     -1.37690466705848
  O   0.63417553117284      0.89255414879029     -2.08460247770701
  O   -1.52018183987134      1.01785120528056     -1.72474417029452
  N   -1.30939654031987      0.20420520504396      0.70379511660709
  H   -2.11040398307777      0.76025452557061      0.43764526862759
  H   -1.24005883316515      0.09528251356497      1.70624838927751
  N   0.56770744306524     -1.69621644045376      0.08124846298394
  O   0.22781656195966     -1.92826370960074     -1.07370717998045
  O   0.55655888492445     -2.48780903736775      1.01979124802682
