14
Coordinates from ORCA-job run
  C   -0.35586630958477      0.38414846671185     -0.15059302391051
  C   0.64653217685121     -0.75475666580056     -0.23490637027326
  Cl  0.54306271161217      1.93558526883444     -0.49808743781622
  H   1.10342697142667     -0.79788869996574     -1.21703199262856
  H   0.15054256610546     -1.69494816133916      0.01129289530069
  N   -1.33803591312094      0.26089594111163     -1.32548748246662
  O   -2.31810885561346      0.98716742547361     -1.26522821130468
  O   -1.07218225417410     -0.54364604215968     -2.21003963459767
  N   -1.12919717972904      0.37112081247103      1.00829123145235
  H   -1.76888362155028      1.15370411495371      1.04685521612663
  H   -0.55502233880458      0.30055624273540      1.83797073928824
  N   1.75424031105002     -0.56896874694584      0.75029382736318
  O   2.89865084304127     -0.62821933963868      0.31683162327134
  O   1.44084089249037     -0.40375061644200      1.92883862019509
