14
Coordinates from ORCA-job run
  C   -0.24697640459621      0.56336844894445     -0.20313090088848
  C   0.52833880387776     -0.76482509511065     -0.20933068312706
  Cl  0.86762971189169      1.87313527635865     -0.55474441347775
  H   0.99608159514513     -0.93962815559243     -1.17714888715274
  H   -0.14647073162309     -1.57732412162796      0.06161933108245
  N   -1.25133589615174      0.38568098993818     -1.36455311743781
  O   -1.13242107044218      1.03854920943331     -2.38579541673408
  O   -2.10619460211133     -0.46412168741901     -1.12549317371947
  N   -1.04121497894288      0.89608659234587      0.92873918967120
  H   -1.68906500430221      0.14172710512660      1.12449725908467
  H   -0.44762694808152      1.04226274963648      1.73523924299664
  N   1.61995776947613     -0.73745445398698      0.80112163175874
  O   2.76833492131937     -0.89048479319150      0.39849226955996
  O   1.28096283454109     -0.56597206485502      1.97148766838372
