14
Coordinates from ORCA-job run
  C   -0.20935116651387      0.62807284946554      0.13526189186977
  C   1.05442015807439     -0.17275177469107      0.37502229017956
  Cl  0.15664368243454      2.32577849946439      0.71361445932756
  H   1.85205658717434      0.17550356402476     -0.27777936234824
  H   1.34747201868620     -0.11849234139154      1.42156391849223
  N   -0.46083340234234      0.81682048215237     -1.36931405032081
  O   -1.63195248931722      0.83400714211684     -1.72275683773444
  O   0.52195246527618      0.99202427458292     -2.07047379251527
  N   -1.32877609735341      0.02147398291512      0.69668959027560
  H   -1.25148669293806     -0.09246244997155      1.69794148264031
  H   -2.19501311991128      0.46953121508621      0.43139835526948
  N   0.78609098901691     -1.60765593784330      0.06598045254380
  O   0.87506410724612     -2.40516298471730      0.99524599847396
  O   0.48371296046751     -1.86768652119337     -1.09339439615353
