14
Coordinates from ORCA-job run
  C   -0.24985048769113      0.51996567961662      0.26454282936886
  C   0.39431753073660     -0.83590481758880      0.49321371510524
  Cl  0.81772147595696      1.81072321686820      0.78513804869836
  H   0.54051119393122     -0.97994249826745      1.56047484647335
  H   -0.23508057319458     -1.62055422480491      0.07045941977799
  N   -0.55052219082495      0.68220275586147     -1.26119714189209
  O   -1.24211090654252     -0.23397516925763     -1.69766033367319
  O   -0.18529070789456      1.67530623790569     -1.86191319992645
  N   -1.46452574905453      0.56845894722833      1.00375255359385
  H   -2.13210520825278     -0.09040951606860      0.61851991504344
  H   -1.85871160673251      1.50163795917719      0.99732356735864
  N   1.72825035704484     -0.95874733820812     -0.15890407519613
  O   2.61503269901079     -1.49617652474742      0.49618231176198
  O   1.82336417350714     -0.54258470771457     -1.30993245649387
