14
Coordinates from ORCA-job run
  C   -0.28346509025783      0.48836335921297      0.15149731805154
  C   0.31210559675246     -0.87751816393332      0.41620898068206
  Cl  0.85432903984009      1.76680919762919      0.70217938974009
  H   0.36218441310509     -1.05609233594010      1.48951219091949
  H   -0.30014529810268     -1.63888568773028     -0.06487290861474
  N   -0.56234439446453      0.69692746314295     -1.34566670709322
  O   -0.62858143633253     -0.30944833838736     -2.03607955343342
  O   -0.80642464356746      1.84394621303332     -1.68994111353352
  N   -1.56688179256087      0.56041454713002      0.74641917222508
  H   -1.99051589600511      1.46375260766719      0.56408090240701
  H   -1.51771858678223      0.41349833024360      1.74669192251660
  N   1.70379124877866     -1.05498858585925     -0.09694530067801
  O   2.38048526581583     -1.88697602119376      0.49916692156660
  O   2.04318157378112     -0.41080258501519     -1.08225121475557
