14
Coordinates from ORCA-job run
  C   -0.24233563420493      0.52648220175759      0.25984997345175
  C   0.38470068438382     -0.83537785805741      0.50047110661170
  Cl  0.84297974313730      1.80866312106136      0.76469100122477
  H   -0.25635017166757     -1.61607227730027      0.08800822022519
  H   0.53201495880401     -0.97049313042563      1.56874686986434
  N   -0.54543681402936      0.67706095556193     -1.26638418309941
  O   -0.17020235021580      1.65915547709213     -1.87882281865427
  O   -1.24815137698128     -0.23599239436157     -1.69156469822855
  N   -1.45407215986313      0.59787393659459      1.00194216470437
  H   -1.83595457449054      1.53602376444574      0.98814320748117
  H   -2.13138533254388     -0.05583279583419      0.62508721572269
  N   1.71511573765631     -0.98357184240910     -0.15375031590456
  O   2.59421705364942     -1.53170072902065      0.50271263772431
  O   1.81486023636562     -0.57521842910452     -1.30713038112349
