15
Coordinates from ORCA-job run
  C   -0.55308054473322     -0.34325242622143      0.31785567587020
  C   0.75674496429803      0.47640106177167      0.25356408502722
  F   -0.22659110011649     -1.65495148158145      0.58926789325331
  H   0.52052903396903      1.54041660555642      0.18284547005686
  C   -1.33522914110558      0.18792909358629      1.44783613432228
  N   -1.97464441729930      0.63405446205996      2.32639452223115
  C   -1.35018399848204     -0.29397181407748     -0.97107774894333
  H   -2.29220756243972     -0.82196530692047     -0.82051683726839
  H   -0.79204255179972     -0.79560868677799     -1.76247284673639
  H   -1.55588298506861      0.73469579699419     -1.27001695890176
  N   1.47827070962490      0.12912744021743     -1.02832732737096
  O   1.28681670512260      0.89943172428336     -1.96431742074271
  O   2.13469986997865     -0.90382006758791     -1.03792806934210
  C   1.61235109144282      0.20351405120969      1.39971640896306
  N   2.29044992660864      0.00899954748772      2.33817701958158
