15
Coordinates from ORCA-job run
  C   -0.64782348980181      0.06677113022932      0.51799864883088
  C   0.86566203948369      0.33580553085850      0.36188037010629
  F   -0.77857072322401     -0.24144008758058      1.86938208876497
  H   1.15270800986304      1.11394129960864      1.07559351523061
  C   -1.39022211377341      1.31389010013838      0.27746861271810
  N   -1.99482264802768      2.30881928740017      0.12306453754768
  C   -1.19160896747363     -1.09189660367413     -0.28720997402063
  H   -1.13759596346855     -0.88539337511647     -1.35420278115752
  H   -2.23294960396004     -1.24869689898592     -0.00257738559742
  H   -0.62434896392469     -1.99358656085432     -0.05059135184207
  N   1.26048653626066      0.88132665319036     -0.99989172263812
  O   0.39419287014067      0.95235292580880     -1.86353997848784
  O   2.43229039979479      1.21518617390602     -1.09876505689756
  C   1.64505542822155     -0.86963378141852      0.61531152090928
  N   2.24754718988941     -1.85744579351025      0.81607895653334
