15
Coordinates from ORCA-job run
  C   -0.59400627772717      0.16307138193685      0.35277312214242
  C   0.91481257008671      0.02296872110063      0.07735128688180
  F   -0.70144368234197      1.01947244089280      1.43571192631685
  H   1.38671232848441     -0.39475381083409      0.96944152332451
  C   -1.30223522367176      0.76543997126898     -0.78728595117723
  N   -1.93961477347801      1.19768442237711     -1.67413350930948
  C   -1.20596815932190     -1.17556217752786      0.71813329534026
  H   -1.15006297942973     -1.87359360915728     -0.11852155377023
  H   -0.68070516643947     -1.59035178456731      1.58094220005202
  H   -2.25309267910666     -1.02197702572732      0.98177782582886
  N   1.52587503304962      1.39644397624397     -0.10104468399131
  O   2.18209582877105      1.81510746740560      0.84428732820102
  O   1.28671878619509      1.96645357487100     -1.15818622921761
  C   1.17110740090794     -0.79608763344616     -1.09652877494346
  N   1.35980699402186     -1.49331591483691     -2.02271780567842
