15
Coordinates from ORCA-job run
  C   -0.55934841389452     -0.19227882915268      0.41890229761042
  C   0.77013213228693      0.51476378578018      0.06643585393639
  F   -0.26498063822353     -1.32561144280984      1.14643080881568
  H   0.55863143988210      1.48692541030611     -0.38419900699372
  C   -1.31904727432609      0.73227041935061      1.27866962025943
  N   -1.93586817661428      1.48619602976665      1.93501914699200
  C   -1.36390862762751     -0.59006305754102     -0.80328748463359
  H   -2.31771932760694     -1.00393610326437     -0.47487935152851
  H   -1.54616981948776      0.26682275981491     -1.45326199988368
  H   -0.82407535463228     -1.35700135897066     -1.35992330360857
  N   1.47392219678078     -0.29011345079826     -1.00161236479429
  O   1.29579014663759      0.09535021747227     -2.15302713565448
  O   2.10345889438561     -1.27399548387993     -0.63583108068829
  C   1.62624319535556      0.65338655479462      1.23598993271252
  N   2.30293962708433      0.79728454913141      2.18457406745871
