15
Coordinates from ORCA-job run
  C   -0.63657501631925      0.06204841968833      0.53081290847887
  C   0.87552107840865      0.37529569301334      0.39971438954003
  F   -0.81088788350539     -0.22615232033625      1.87586351907872
  H   1.11875480506624      1.19525574091961      1.07840896068788
  C   -1.40619024034934      1.27728562859818      0.21899432709714
  N   -2.04080747188856      2.23043266263259     -0.04268318635996
  C   -1.11019533685286     -1.11781511716010     -0.28893563645444
  H   -1.00757332771331     -0.92479367522433     -1.35629035337412
  H   -2.16038729302916     -1.29837089431172     -0.05568611974335
  H   -0.52850141146399     -2.00193989879769     -0.02454021954171
  N   1.17811982204203      0.87180538854905     -0.99495492300677
  O   1.30613536060618      0.02305981957644     -1.87047495015906
  O   1.23351096549944      2.08951480516688     -1.12567807490027
  C   1.67825437582820     -0.80175726348393      0.69754143202063
  N   2.31382157367108     -1.75386898883040      0.95890792663642
