15
Coordinates from ORCA-job run
  C   -0.63445041261209      0.14978867406492      0.28099244427543
  C   0.89905798298045      0.06174364610873      0.17297305350898
  F   -0.88886001046985      1.03673506065093      1.31372342613315
  H   1.28736740359825     -0.31067825894323      1.12346244178539
  C   -1.23771544863712      0.68397665861761     -0.94983379479395
  N   -1.78725432301510      1.05780889645512     -1.91816884079594
  C   -1.23254698865697     -1.19977635561155      0.62893000857757
  H   -2.30637294297571     -1.07947937982022      0.77714988966468
  H   -1.06438265183267     -1.92086297758570     -0.17232441416136
  H   -0.78612417737836     -1.56640708857565      1.55549092302686
  N   1.47596130247655      1.45287100314685      0.01513034319321
  O   1.32462512925471      1.98537944024624     -1.07710735386697
  O   2.01788661878532      1.92074361041509      1.00859031122514
  C   1.31064529159698     -0.77987043827408     -0.93925259753121
  N   1.62316322688565     -1.49297249089514     -1.81875584024101
