15
Coordinates from ORCA-job run
  C   -0.59874691763897      0.14282123141419      0.35338355037344
  C   0.91359956881478      0.03865270868040      0.08210911607593
  F   -0.72787475369548      0.97402365747728      1.45342996565809
  H   1.39013248517441     -0.39125405574763      0.96584196559952
  C   -1.31385923771301      0.75433613912109     -0.77754378993852
  N   -1.95209366200446      1.19275677418750     -1.66064610807448
  C   -1.18527758603440     -1.21525253484325      0.68749078921866
  H   -1.11564621425214     -1.89236676218396     -0.16508493322800
  H   -2.23534035980530     -1.08756821081916      0.95325450491626
  H   -0.65332554654287     -1.64016253397052      1.54113866655675
  N   1.49865165977360      1.42794585989470     -0.06034524644701
  O   1.25111102267789      2.01993372146730     -1.10327705845880
  O   2.14368368608830      1.83502770575639      0.89774272457022
  C   1.19068593630986     -0.74623744121083     -1.11034630935317
  N   1.39329991884781     -1.41265625922352     -2.05614783746888
