15
Coordinates from ORCA-job run
  C   -0.68268572486545      0.15704352238330      0.12232109866695
  C   0.84377767486576      0.15689519759850      0.32606769096416
  F   -1.16610214937697      1.20202792066994      0.89158006961850
  H   1.04468992777435      0.01068011825470      1.38968859948689
  C   -1.04310445823261      0.40969211190360     -1.28143350550089
  N   -1.39850790949090      0.56317080014341     -2.39031373097457
  C   -1.29612198601327     -1.14138635792599      0.60978506204751
  H   -1.02766497285149     -1.29926316139942      1.65632351132244
  H   -2.38138639642656     -1.06676419323184      0.53057480457122
  H   -0.95425892271017     -1.98590097603202      0.00973506169534
  N   1.39892171492477      1.52544170827003     -0.00903045817604
  O   1.48812342440902      1.80242036205287     -1.19846293560644
  O   1.68093490044109      2.23404044785503      0.94916847465933
  C   1.49373486749487     -0.85949350115316     -0.48567698831028
  N   1.99765001005758     -1.71060399938895     -1.11932675446411
