15
Coordinates from ORCA-job run
  C   -0.65590082883566      0.17330831994477      0.25933172493197
  C   0.87222659830546      0.06389570371716      0.17839422746598
  F   -0.91119515159909      1.09239957011859      1.26407614268487
  H   1.24331160600804     -0.33131767423215      1.12674871683798
  C   -1.25438443815012      0.65119180531814     -0.99553305171042
  N   -1.76832038606400      0.92931479589965     -2.01410239085569
  C   -1.26244986472306     -1.16256229869486      0.65085671299176
  H   -1.07898679746022     -1.91463215175452     -0.11840762621389
  H   -0.83577957368886     -1.49278416408342      1.59997707455985
  H   -2.33927538402346     -1.03876771125424      0.77106331701283
  N   1.52222319119521      1.43101037237423      0.04802494860291
  O   2.55002472198671      1.58163986682699      0.69664437922800
  O   0.98460652778834      2.23668440990604     -0.69685649842805
  C   1.30534638607375     -0.77071819390638     -0.93287859845892
  N   1.62855339318691     -1.44866265017999     -1.83633907864917
