15
Coordinates from ORCA-job run
  C   -0.52375710715016     -0.23269388731448      0.44372863455353
  C   0.68465396184803      0.62719667863755      0.00486713037220
  F   -0.06114611598340     -1.23421293275575      1.27045386326724
  H   0.33038777467922      1.50877816881312     -0.53389361689886
  C   -1.41146909007453      0.64746967202108      1.22355951920093
  N   -2.13255877375398      1.36486995622798      1.81111907803000
  C   -1.26188655551988     -0.86179825784733     -0.72169819619066
  H   -0.61344483710940     -1.58758576572391     -1.21374296907357
  H   -2.14033070615636     -1.38206268025451     -0.33910396924756
  H   -1.57465634567086     -0.10807121570817     -1.44547654605616
  N   1.50058855284856     -0.16392743151373     -0.99130957826069
  O   1.26343171664083      0.07414750927559     -2.17169263141645
  O   2.27354754477653     -0.99992910538173     -0.54226622601079
  C   1.51075496559240      1.00476868504285      1.14288242579441
  N   2.15788501503298      1.34205060648141      2.06257308193641
