15
Coordinates from ORCA-job run
  C   -0.64154030805794      0.08372834825061      0.52229322721218
  C   0.87269070223567      0.38664851334688      0.39444858200775
  F   -0.82973455374807     -0.15525297802219      1.87511330304029
  H   1.11296954934587      1.23048022265859      1.04434823943576
  C   -1.40392962507200      1.28927340627824      0.15926177967007
  N   -2.03379028236650      2.23331469412465     -0.14365192282324
  C   -1.11137285373036     -1.12333032250809     -0.25912460267301
  H   -0.99831584568288     -0.96896476248057     -1.33176386813791
  H   -2.16427434841548     -1.29229999999351     -0.02949160142485
  H   -0.53509412959078     -1.99919600233187      0.04211837206613
  N   1.19019267118571      0.82968191464435     -1.01487597750876
  O   1.32530885340018     -0.05151063342905     -1.85657883547326
  O   1.24962439450681      2.04155618815997     -1.19048406212009
  C   1.66809883772911     -0.78127904795936      0.74352309767426
  N   2.29916693826067     -1.72484954073872      1.04386426905466
