15
Coordinates from ORCA-job run
  C   -0.56946880160398     -0.20561216816968      0.39927508030707
  C   0.81519965160755      0.42597337324387      0.12486101346615
  F   -0.37167902601283     -1.46191142208205      0.93131658972816
  H   0.69069080491093      1.47287753731277     -0.16060690041648
  C   -1.22784039717541      0.63530234801813      1.41435616663728
  N   -1.76343761202866      1.33052912898511      2.19503431431137
  C   -1.42400842697828     -0.33069003077773     -0.84700019224606
  H   -2.40731207732584     -0.70491096784893     -0.56092395029916
  H   -1.53526316352194      0.63136806951367     -1.34888591047363
  H   -0.96488462298795     -1.04455216290557     -1.53189032633972
  N   1.42652444999551     -0.25855263751374     -1.07566248386660
  O   1.96581723906945     -1.34102103099065     -0.88702039383959
  O   1.27087216294668      0.32017525404559     -2.14665186900058
  C   1.69649940401710      0.29911183624174      1.27715675292585
  N   2.39729041508763      0.23091287292751      2.21664210910591
