15
Coordinates from ORCA-job run
  C   -0.63761206922913      0.14575429140125      0.27641530084942
  C   0.89735247821279      0.10808947169403      0.15988740990282
  F   -0.91847456468988      1.09292635792807      1.24692417548428
  H   1.30600565899677     -0.17795360201114      1.13159362727364
  C   -1.26900675671971      0.56927462615847     -0.98299048599983
  N   -1.83834964163432      0.85411934974512     -1.96999151049015
  C   -1.18154058819400     -1.19749220450556      0.72359540076840
  H   -0.71232607552435     -1.48331599346129      1.66720419614658
  H   -2.25740465567563     -1.10562325627303      0.87734317994825
  H   -0.99550710267291     -1.96548269247330     -0.02858263101363
  N   1.41934908983150      1.50443743692932     -0.10572600683835
  O   1.24704166441461      1.94582017993856     -1.23486636604941
  O   1.94258901435776      2.06779172400933      0.84746347597227
  C   1.33295388662059     -0.79749274481241     -0.89126927776402
  N   1.66492966190593     -1.56185294426742     -1.71900048819030
