15
Coordinates from ORCA-job run
  C   -0.51238699409043     -0.23927937517993      0.45324404779228
  C   0.67699214713148      0.63468842363598     -0.00763190261277
  F   -0.02223524867910     -1.23856998154577      1.26695231810833
  H   0.30236212813354      1.51369538478574     -0.53679863735761
  C   -1.39322715088462      0.62804558054897      1.25491729155936
  N   -2.11131149454362      1.33224662991433      1.86164159413406
  C   -1.26739098480896     -0.87304796514196     -0.69881053559942
  H   -0.62147527699177     -1.59219102398298     -1.20395383364578
  H   -1.60071583078299     -0.12134996913192     -1.41554246176554
  H   -2.13354550712432     -1.40216624166955     -0.30058049784819
  N   1.48209847573688     -0.14444611786483     -1.02223511250902
  O   2.27234171870919     -0.97372945108823     -0.59108624439614
  O   1.22103902906096      0.09597418438006     -2.19702057158187
  C   1.52205682430563      1.01865629458715      1.11438141994449
  N   2.18540300577676      1.35847539904063      2.02152401057114
