15
Coordinates from ORCA-job run
  C   -0.59406779006675     -0.25225746176656      0.32950316848344
  C   0.79627153398507      0.41803168988480      0.23181412057915
  F   -0.41473376080808     -1.55731312219975      0.73613880362418
  H   0.67544827313235      1.48838619872716      0.05105261240531
  C   -1.34093543663635      0.46673397782791      1.37644287625669
  N   -1.94474350079704      1.06684902013381      2.18572231123349
  C   -1.35075315993806     -0.24877174902792     -0.98434581079987
  H   -0.82892891295152     -0.87846206421342     -1.70588829753855
  H   -1.44231721887923      0.76122828779103     -1.38598252906382
  H   -2.34546217566266     -0.66226385982340     -0.81591498167400
  N   1.50822183318859     -0.12726106523168     -0.98482559156042
  O   2.05229754768617     -1.21780685680043     -0.87192223107438
  O   1.42177933964051      0.56146337949726     -1.99691137818165
  C   1.58973882006797      0.17434894990770      1.42820552488879
  N   2.21818460803904      0.00809467529353      2.40591140242168
