15
Coordinates from ORCA-job run
  C   -0.53449414192553     -0.16611376345048      0.46033793259452
  C   0.71347454652512      0.59252480897293     -0.04867253709456
  F   -0.12042132243088     -1.10966890768608      1.37619791379951
  H   0.40164967137353      1.43824594365085     -0.66549284688671
  C   -1.38002767371268      0.82139098153633      1.15369300222524
  N   -2.06830052937387      1.61955747981910      1.67223496602084
  C   -1.30094592770838     -0.86246195569210     -0.64717700286424
  H   -0.68758891418203     -1.66034755568749     -1.06743687940347
  H   -1.57620596490211     -0.16366476215383     -1.43818993354787
  H   -2.20392695454086     -1.30307046705728     -0.22378162141237
  N   1.49081876226784     -0.32232145979883     -0.96652650948722
  O   2.22172454727738     -1.15165442625734     -0.44110314544297
  O   1.26723203283656     -0.17831714167206     -2.16461724548068
  C   1.55648938629930      1.03078423399598      1.05476390708569
  N   2.21952248219656      1.41611699148029      1.94376999989426
