15
Coordinates from ORCA-job run
  C   -0.57360219036059     -0.32630163901678      0.29932335147987
  C   0.79359256003664      0.39630021987659      0.27492392219802
  F   -0.34375749584926     -1.67609388094361      0.46034125562661
  H   0.63713689820555      1.47714820405622      0.29170463230737
  C   -1.29693254802676      0.17057574174725      1.48294782987544
  N   -1.88358875906251      0.59674652359919      2.40692125066772
  C   -1.38201223322015     -0.11522833704918     -0.96592943809644
  H   -0.87297999822620     -0.58922729005522     -1.80577469226146
  H   -2.35782375809329     -0.58494729734005     -0.83963471947251
  H   -1.51642388837291      0.94635876594419     -1.17752923335488
  N   1.47147586373158      0.09883588528560     -1.04270058609413
  O   1.32645529262780      0.95212129346007     -1.91275094707538
  O   2.04803994404179     -0.97600640508485     -1.14462982555679
  C   1.63992377060670     -0.02803911643341      1.38128070799836
  N   2.31149654196160     -0.34224266804606      2.29150649175814
