15
Coordinates from ORCA-job run
  C   -0.68876435254985      0.16907993517685      0.01984455897463
  C   0.80797953247601      0.21626395020920      0.37887584543135
  F   -1.23747037487849      1.32928611656255      0.54015408511175
  H   0.89687197434100      0.24865288037350      1.46697538002175
  C   -0.90007240652665      0.16725796172372     -1.43599478778551
  N   -1.13852588502143      0.11491915773009     -2.58482839992061
  C   -1.36386388547828     -1.02824948294914      0.66072712919851
  H   -0.96691572212493     -1.96229513868523      0.26053993285955
  H   -1.21174795826759     -0.99525085114397      1.74144319140190
  H   -2.43339663027732     -0.98003621524217      0.45256695413390
  N   1.40584386544077      1.51616948263391     -0.11667330815736
  O   1.58774652324045      1.60771281096459     -1.32419866596296
  O   1.62590789525534      2.36235120774286      0.74073272867171
  C   1.52991908986008     -0.91366787115094     -0.18391679019382
  N   2.08848833451088     -1.85219394394580     -0.61624785378479
