15
Coordinates from ORCA-job run
  C   -0.61984642934100      0.08009406841571      0.54829972267293
  C   0.89441424821654      0.35842297649713      0.37244010580928
  F   -0.76240607357106     -0.19708117250365      1.89934976064681
  H   1.17548949056146      1.17802746216647      1.03681168119011
  C   -1.37169260085744      1.30986864490014      0.25064663094702
  N   -1.99475531385870      2.27323432287834     -0.00094099294743
  C   -1.14218498376150     -1.09319851240749     -0.25119176268661
  H   -2.18853198236869     -1.25057797630037      0.01405284910847
  H   -1.06775752284064     -0.90671361110572     -1.32209230613958
  H   -0.57155601820828     -1.98841040493621     -0.00024470287846
  N   1.16820215547715      0.83672046165338     -1.03447980656921
  O   1.24060112178569      2.05212276531790     -1.17798263454826
  O   1.25794201524828     -0.02189379783028     -1.90515026886342
  C   1.67874690407688     -0.83395716222899      0.65826482109900
  N   2.30133498944128     -1.79665806451636      0.91221690315937
