15
Coordinates from ORCA-job run
  C   -0.63554593257591      0.09953124414613      0.52752015373805
  C   0.87893314201680      0.33412536631393      0.33108301517779
  F   -0.74416598836018     -0.15172056673892      1.89245216158012
  H   1.19420889218182      1.13436426764930      1.00736262467532
  C   -1.36059915364484      1.34951726822476      0.25115193696837
  N   -1.95245969664796      2.34727783170899      0.06837516603749
  C   -1.21665910148929     -1.07997801520941     -0.21938525313670
  H   -2.25418412613200     -1.20627609557242      0.09310609386874
  H   -1.18216515117591     -0.91663135697114     -1.29458203827416
  H   -0.66028565983684     -1.98195112504140      0.04089868765487
  N   1.25574815805737      0.81763616896691     -1.05906274066809
  O   2.43001487864940      1.12988577070495     -1.19259502884731
  O   0.37496371131043      0.86442843108558     -1.90947500521595
  C   1.64159977646791     -0.87468819349096      0.61747713028995
  N   2.23059625117926     -1.86452099577626      0.84667309615151
