15
Coordinates from ORCA-job run
  C   -0.67704861474230      0.14636735927710      0.16024961809431
  C   0.85849854973514      0.19233902206609      0.26012617245233
  F   -1.13575638857371      1.21640639933194      0.91028073196610
  H   1.13438574817815      0.10085601214855      1.31287253519150
  C   -1.13847499892055      0.32087058577161     -1.22572674213911
  N   -1.57380700536002      0.41631098791403     -2.31240337263237
  C   -1.22114596691057     -1.14085050603874      0.74961727096302
  H   -0.87809103816855     -1.24175089862958      1.78131291117233
  H   -2.31090144213437     -1.09550673329721      0.74245942409860
  H   -0.89861767840641     -2.00514539274150      0.16734249912553
  N   1.35569855719569      1.55589451273744     -0.17322190743482
  O   1.33966966822921      1.78577056154862     -1.37562967267012
  O   1.70531833915404      2.30586758822335      0.72928268824015
  C   1.47927334062081     -0.84514877285661     -0.54808014995169
  N   1.96099893010346     -1.71128072545509     -1.17848200647580
