15
Coordinates from ORCA-job run
  C   -0.64651958446367      0.06904700853204      0.51805339083759
  C   0.86524706810778      0.39100154488142      0.40606159954027
  F   -0.84183029331042     -0.19197411252631      1.86581357821752
  H   1.09067953455432      1.22857477409314      1.06921444975287
  C   -1.42025476749763      1.27107762307548      0.16777824641163
  N   -2.05996866374934      2.21263006476047     -0.12181356089992
  C   -1.09661877408418     -1.13177843259029     -0.28427006841215
  H   -2.14969163157423     -1.31524143842649     -0.06685020065879
  H   -0.51372300904092     -2.00557515258937      0.01018037624507
  H   -0.97539252929660     -0.96145628470232     -1.35354853463142
  N   1.18852146033454      0.85674443586646     -0.99455198293081
  O   1.23197577203270      2.07153237934930     -1.15379727127656
  O   1.34257695001209     -0.01117149030786     -1.84668595194130
  C   1.67117423467658     -0.77242285609695      0.74589131692087
  N   2.31182423329901     -1.71198806331874      1.03852461282519
