15
Coordinates from ORCA-job run
  C   -0.64003515328070      0.08680736711286      0.52360695330163
  C   0.87446447333538      0.38714009132293      0.38920221101593
  F   -0.82408397612962     -0.14500462666867      1.87818539351336
  H   1.11835038347579      1.23280949797273      1.03533021468960
  C   -1.40221093446003      1.29155236269615      0.15768337946204
  N   -2.03102392718963      2.23669006508128     -0.14389044173577
  C   -1.11354738663962     -1.12379799982081     -0.25001210372030
  H   -0.99713074005767     -0.97754962935087     -1.32324515122723
  H   -0.54099260017063     -1.99947870884786      0.05869925804240
  H   -2.16743230762621     -1.28785384460694     -0.02188364727276
  N   1.18800662232567      0.82523535057504     -1.02254400081047
  O   1.24783303901719      2.03639678874616     -1.20259163355573
  O   1.31939481011506     -0.05877824522132     -1.86194128813340
  C   1.66918331040827     -0.78078413430735      0.73992545104164
  N   2.29922438687676     -1.72338433468332      1.04547540538901
