17

C	-0.496044	0.012425	-1.45464
C	0.0	0.0	0.0
F	-1.919916	0.038347	-1.400881
H	1.089872	0.0	0.0
N	-0.124956	1.286886	-2.018041
H	0.892431	1.308863	-2.011955
H	-0.411888	1.289126	-2.991614
N	-0.065156	-1.09745	-2.227035
H	-0.694088	-1.247373	-3.004176
H	0.029332	-1.939045	-1.674936
N	-0.498439	-1.276531	0.65003
O	-1.433408	-1.206604	1.438247
O	0.053182	-2.327975	0.313694
N	-0.446167	1.113078	0.769235
H	-1.317571	1.476189	0.408248
H	0.261703	1.832333	0.723361
Br	3.471401	0.0	0.0
