17

C	-0.421224	0.027026	-1.479927
C	0.0	0.0	0.0
F	-1.797344	0.398177	-1.541435
H	1.089298	0.0	0.0
N	0.297853	1.112064	-2.076175
H	0.09071	1.158244	-3.070272
H	1.293874	0.93361	-1.950941
N	-0.239488	-1.217356	-2.139126
H	-0.723394	-1.97751	-1.68048
H	-0.557683	-1.145551	-3.097576
N	-0.537348	-1.2607	0.614777
O	0.143319	-2.281195	0.531684
O	-1.664824	-1.205681	1.106332
N	-0.461912	1.118122	0.759739
H	0.21941	1.859773	0.662223
H	-1.357181	1.435224	0.409683
Br	3.493725	0.0	0.0
