17

C	-0.442707	0.039759	-1.470734
C	0.0	0.0	0.0
F	-0.141168	-1.159196	-2.114796
H	1.09715	0.0	0.0
N	-1.861843	0.195796	-1.543509
H	-2.136403	0.464471	-2.481374
H	-2.099696	0.936426	-0.892407
N	0.326167	1.104765	-2.050126
H	0.140241	1.147821	-3.046413
H	1.317347	0.903121	-1.916109
N	-0.488368	-1.231856	0.684937
O	-1.283509	-1.100243	1.619077
O	-0.047746	-2.302675	0.286918
N	-0.54575	1.179009	0.661761
H	-0.553858	1.007381	1.660012
H	0.111094	1.928585	0.473417
Br	3.486523	0.0	0.0
