17

C	-0.481348	0.033844	-1.463414
C	0.0	0.0	0.0
F	-1.881633	-0.314554	-1.411848
H	1.090412	0.0	0.0
N	-0.409567	1.372116	-1.972065
H	-0.001689	1.358305	-2.894295
H	-1.31827	1.810592	-1.971422
N	0.233147	-0.851028	-2.29789
H	-0.365296	-1.190763	-3.039086
H	0.640506	-1.617034	-1.778536
N	-0.459022	-1.312755	0.58332
O	0.103835	-2.329414	0.173664
O	-1.385268	-1.30592	1.388321
N	-0.48062	1.059803	0.826677
H	-1.465696	1.229388	0.662065
H	0.055079	1.887109	0.596372
Br	3.538025	0.0	0.0
