17

C	-0.410896	0.170741	-1.479572
C	0.0	0.0	0.0
F	-0.187262	-1.09885	-2.099305
H	1.089499	0.0	0.0
N	-1.7875	0.518313	-1.638295
H	-2.358513	-0.269713	-1.361206
H	-1.980641	0.746534	-2.606843
N	0.435672	1.152484	-2.046456
H	0.307492	1.191482	-3.05141
H	1.409258	0.924146	-1.849626
N	-0.509776	-1.349588	0.431882
O	0.29199	-2.206447	0.777392
O	-1.73776	-1.498687	0.39956
N	-0.52227	1.003716	0.867982
H	0.174829	1.726347	0.975063
H	-1.352444	1.397767	0.444206
Br	3.548801	0.0	0.0
