17

C	-0.469449	-0.043265	-1.468168
C	0.0	0.0	0.0
F	-0.066386	1.20622	-1.966286
H	1.088925	0.0	0.0
N	0.158121	-0.996631	-2.329432
H	1.159144	-0.833686	-2.276383
H	-0.008824	-1.917354	-1.947682
N	-1.877829	-0.194224	-1.506822
H	-2.284179	0.566233	-0.974892
H	-2.178343	-0.137952	-2.472117
N	-0.419309	-1.275774	0.689398
O	-0.074718	-2.337725	0.180681
O	-1.072551	-1.196772	1.729887
N	-0.553566	1.14484	0.6843
H	0.220202	1.718989	0.990436
H	-1.056064	0.822509	1.501838
Br	3.460159	0.0	0.0
