17

C	-0.568691	-0.08332	-1.412947
C	0.0	0.0	0.0
F	-2.006518	0.142053	-1.241544
H	1.087256	0.0	0.0
N	-0.025577	0.97466	-2.18167
H	-0.688028	1.229645	-2.904109
H	0.144479	1.771317	-1.581408
N	-0.36173	-1.316779	-2.060868
H	-0.312326	-1.201079	-3.058725
H	-1.030538	-2.009099	-1.768955
N	-0.42362	-1.184422	0.861845
O	-1.179104	-2.052226	0.418934
O	-0.000739	-1.162186	2.014846
N	-0.399932	1.230923	0.615198
H	0.161864	1.392447	1.439589
H	-1.385257	1.230331	0.841353
Br	3.522498	0.0	0.0
