16

C	0.0	0.0	0.0
C	-0.297191	-0.294493	-1.506561
F	1.358156	0.0	0.0
H	0.49109	-1.018757	-1.750705
H	-0.375792	-0.80862	0.649264
N	-0.619825	1.207548	0.500459
O	-1.795195	1.371888	-0.061954
O	-0.32782	1.55491	1.674798
C	-0.048656	0.949133	-2.352185
H	0.885392	1.440197	-2.062289
H	-0.871468	1.64916	-2.219486
H	0.009704	0.656798	-3.404267
N	-1.556573	-0.911039	-1.883005
H	-2.297468	-0.391551	-1.398039
H	-1.59583	-1.833361	-1.45759
H	-2.998237	0.0	0.0
