16

C	0.0	0.0	0.0
C	-0.534159	0.024587	-1.439529
F	1.356181	0.0	0.0
H	0.368788	-0.177366	-2.033699
H	-0.368221	-0.876293	0.527438
N	-0.3333	1.169725	0.901122
O	-0.758036	0.906615	2.022926
O	-0.022763	2.292336	0.503897
C	-1.148684	1.340659	-1.925013
H	-0.450081	2.179036	-1.892331
H	-1.468808	1.190488	-2.962089
H	-2.035719	1.551523	-1.325911
N	-1.43931	-1.121	-1.552
H	-2.271274	-0.846925	-0.972039
H	-1.774798	-1.150283	-2.510089
H	-3.336323	0.0	0.0
