15

C	0.0	0.0	0.0
C	-0.482631	-0.008735	-1.445224
Cl	1.788322	0.0	0.0
H	-0.095037	0.886571	-1.938149
H	-1.572514	0.054136	-1.328739
N	-0.289957	1.454573	0.578437
O	-0.287068	2.415328	-0.183314
O	-0.457397	1.525248	1.790889
N	-0.590774	-0.971456	0.779141
H	-1.631299	-0.78332	0.583582
H	-0.383774	-0.791135	1.754956
N	-0.101705	-1.257012	-2.102864
H	-0.750352	-1.426656	-2.859856
H	0.82614	-1.171575	-2.498341
F	-2.836435	0.0	0.0
