15

C	0.0	0.0	0.0
C	-0.45946	-0.113628	-1.446286
Cl	1.84566	0.0	0.0
H	-1.550317	-0.061052	-1.347199
H	-0.08472	0.753736	-1.993196
N	-0.254991	1.49643	0.472256
O	-0.23928	2.398234	-0.357866
O	-0.418702	1.657823	1.676162
N	-0.589979	-0.903307	0.84739
H	-0.393966	-0.638816	1.806779
H	-1.635562	-0.726169	0.621574
N	-0.044445	-1.393876	-2.015865
H	0.849079	-1.290352	-2.481365
H	-0.729024	-1.672871	-2.707803
F	-2.821853	0.0	0.0
