13

C	-0.544918	0.00368	-1.410576
C	0.0	0.0	0.0
F	-0.143905	-1.130346	-2.114413
H	1.093739	0.0	0.0
H	-1.643717	-0.019539	-1.410274
H	-0.325402	0.932269	0.479608
C	-0.135326	1.191108	-2.185029
N	0.177815	2.128338	-2.81852
C	-0.5054	-1.211656	0.773675
H	-0.179195	-2.129011	0.28132
H	-1.598383	-1.236649	0.86746
H	-0.069733	-1.209505	1.775017
H	2.997183	0.0	0.0
