13

C	-0.425349	-0.054207	-1.449426
C	0.0	0.0	0.0
F	-0.194628	1.163469	-2.080819
H	1.093648	0.0	0.0
H	0.165936	-0.809502	-1.977112
H	-0.378505	0.930318	0.435091
C	-1.861245	-0.363485	-1.628289
N	-3.000342	-0.616489	-1.757432
C	-0.469572	-1.221561	0.781522
H	-0.031404	-1.193405	1.781607
H	-1.558638	-1.288224	0.875972
H	-0.107669	-2.139817	0.307386
H	2.973111	0.0	0.0
