13

C	-0.555495	0.04845	-1.405049
C	0.0	0.0	0.0
F	-0.171372	-1.066647	-2.14179
H	1.093278	0.0	0.0
H	-1.654184	0.039755	-1.39236
H	-0.339291	-0.947212	0.434617
C	-0.145948	1.257128	-2.148902
N	0.171747	2.205003	-2.763671
C	-0.49529	1.183557	0.824146
H	-0.104622	2.121579	0.420575
H	-0.117011	1.096267	1.844889
H	-1.589526	1.253554	0.866745
H	2.991378	0.0	0.0
