14

C	0.0	0.0	0.0
C	-0.190439	-0.329808	-1.509316
F	1.363851	0.0	0.0
H	0.292137	-1.305128	-1.636473
H	0.453608	0.425231	-1.973881
N	-0.5827	1.302865	0.359392
O	-0.570503	2.176758	-0.553472
O	-0.586271	1.592983	1.581453
C	-0.466116	-1.006776	0.953533
N	-0.549916	-1.908826	1.709066
N	-1.514881	-0.392046	-2.113378
H	-1.356251	-0.417937	-3.122008
H	-1.973943	0.4896	-1.90221
H	-1.992732	0.0	0.0
