15

C	-0.43134	0.062129	-1.472143
C	0.0	0.0	0.0
F	-0.151336	-1.182984	-2.040376
H	1.096781	0.0	0.0
H	-1.521374	0.18496	-1.540029
C	0.307729	1.128101	-2.244765
H	0.040174	1.079398	-3.303045
H	1.381681	0.969948	-2.127544
H	0.056312	2.119676	-1.863579
N	-0.456559	-1.180736	0.723623
H	-1.365406	-1.471474	0.373286
H	0.205004	-1.922667	0.523403
C	-0.490502	1.215895	0.66095
N	-0.943764	2.19208	1.131304
Br	3.532897	0.0	0.0
