15

C	-0.501177	0.006887	-1.443708
C	0.0	0.0	0.0
F	-0.027136	1.157141	-2.067484
H	1.100105	0.0	0.0
H	-0.039886	-0.846753	-1.952187
C	-2.006154	-0.021022	-1.574027
H	-2.289426	-0.067082	-2.628377
H	-2.428547	0.888993	-1.142108
H	-2.407036	-0.885867	-1.046745
N	-0.479133	-1.244281	0.653784
H	0.251	-1.931714	0.491932
H	-0.481657	-1.092849	1.656704
C	-0.512246	1.164981	0.718026
N	-0.972442	2.067667	1.311587
Br	3.509981	0.0	0.0
