14

C	0.0	0.0	0.0
C	-0.478306	-0.354805	-1.439534
Cl	1.7743	0.0	0.0
H	0.198973	0.186988	-2.103502
H	-0.261931	-1.423371	-1.550017
N	-0.401637	1.433827	0.351869
O	-0.723738	1.661609	1.50987
O	-0.30858	2.244189	-0.561026
C	-0.482687	-0.909337	1.027449
N	-0.760935	-1.760013	1.789266
N	-1.822703	-0.069644	-1.802585
H	-1.986288	0.92677	-1.863785
H	-2.553481	-0.431707	-1.186073
Cl	-4.422176	0.0	0.0
