14

C	0.0	0.0	0.0
C	-0.572162	0.236372	-1.391502
Cl	1.794348	0.0	0.0
H	-1.65975	0.241639	-1.238482
H	-0.31095	-0.655741	-1.967647
N	-0.410986	1.093012	0.990763
O	-0.782702	2.158161	0.522097
O	-0.276639	0.821881	2.176325
C	-0.428553	-1.28875	0.534096
N	-0.650368	-2.387822	0.884609
N	-0.017459	1.419977	-2.030407
H	0.038787	1.25522	-3.02499
H	-0.647407	2.194206	-1.873661
Cl	-3.602912	0.0	0.0
