14

C	0.0	0.0	0.0
C	-0.59065	-0.619729	-1.27647
Cl	1.761078	0.0	0.0
H	0.106352	-0.374585	-2.082732
H	-0.572052	-1.714204	-1.132342
N	-0.419602	1.491494	-0.006393
O	-1.259453	1.825348	0.81146
O	0.119509	2.182937	-0.852271
C	-0.474418	-0.625197	1.227662
N	-0.758809	-1.215152	2.203749
N	-1.855953	0.002997	-1.552463
H	-2.197253	-0.256307	-2.465922
H	-2.61781	-0.169014	-0.884382
Cl	-4.649145	0.0	0.0
