14

C	0.0	0.0	0.0
C	-0.488776	0.03231	-1.476567
Cl	1.772875	0.0	0.0
H	0.150433	0.766808	-1.972228
H	-0.232318	-0.954335	-1.8789
N	-0.413458	1.28824	0.714841
O	-0.75245	1.20148	1.886429
O	-0.317701	2.310979	0.049074
C	-0.480517	-1.14848	0.750795
N	-0.795789	-2.141613	1.294639
N	-1.854057	0.343438	-1.72599
H	-2.552274	-0.213355	-1.230865
H	-2.066737	1.304825	-1.499965
Cl	-4.488101	0.0	0.0
