14

C	0.0	0.0	0.0
C	-0.473625	-0.009304	-1.476422
Cl	1.788886	0.0	0.0
H	-0.144189	-0.97873	-1.867414
H	0.118678	0.762258	-1.974265
N	-0.414045	1.290617	0.702946
O	-0.456472	2.289973	-0.001595
O	-0.605152	1.231547	1.909603
C	-0.465196	-1.143965	0.768674
N	-0.773563	-2.137566	1.315662
N	-1.855548	0.199857	-1.741065
H	-2.509315	-0.406476	-1.248234
H	-2.147634	1.139009	-1.508973
Cl	-4.484768	0.0	0.0
