17

C	-0.621568	-0.051551	-1.379503
C	0.0	0.0	0.0
Cl	0.067644	-1.405335	-2.376169
H	1.095656	0.0	0.0
H	-1.685115	-0.340451	-1.292935
N	-0.440017	1.163066	-2.143138
H	-0.749414	1.952016	-1.588505
H	-1.004312	1.116221	-2.98315
C	-0.443393	-1.208401	0.815471
H	-1.529513	-1.23082	0.988029
H	-0.154431	-2.138847	0.324103
H	0.060997	-1.189081	1.782361
C	-0.408045	1.287413	0.711952
H	-0.062932	1.235073	1.74841
H	-1.496736	1.463738	0.727634
H	0.0972	2.150443	0.268603
F	2.67644	0.0	0.0
