17

C	-0.050229	-0.027315	-1.521057
C	0.0	0.0	0.0
Cl	-1.693538	-0.484243	-2.20154
H	1.100547	0.0	0.0
H	0.111926	0.989808	-1.887451
N	0.97273	-0.869769	-2.114471
H	0.758207	-1.831989	-1.866844
H	1.818269	-0.622794	-1.558235
C	-0.496554	-1.27133	0.663006
H	-0.204312	-1.274219	1.71785
H	-1.586757	-1.37242	0.603576
H	-0.04523	-2.155882	0.20572
C	-0.613431	1.248616	0.597563
H	-0.176912	2.14706	0.148451
H	-1.70162	1.281928	0.447962
H	-0.417667	1.294931	1.674887
F	2.741623	0.0	0.0
