12
Coordinates from ORCA-job run
  C   -0.89472491268248     -0.25954853957438      0.04506847241442
  C   0.41110198597334      0.09094857940340      0.03532214172080
  C   -1.53836153512813     -0.97500060069739      1.10062186033659
  N   -2.16819636742201     -1.55855023993357      1.90724003778626
  C   -1.70626325159822      0.10517918922895     -1.07642329530442
  N   -2.38108369574140      0.40164195280973     -1.99568615120228
  N   1.38529607683452     -0.20088357791168      1.09613179385479
  O   2.52707927960801      0.19376690162747      0.88235115494420
  O   0.96755520649049     -0.80234122304487      2.07590260006700
  N   0.98872697552136      0.82448476341570     -1.08809114404330
  O   0.96108261954836      2.04574226771622     -0.99113194141105
  O   1.44878761859615      0.13456052696041     -1.99030552916300
