12
Coordinates from ORCA-job run
  C   -0.90351889936176     -0.22438869588868      0.06085616206326
  C   0.41523350092431      0.07217997064308      0.02672757481240
  C   -1.55190032300203     -0.93334139145265      1.11793027262340
  N   -2.18659707249387     -1.50492211539091      1.92928462619733
  C   -1.72448177927505      0.19462323600347     -1.03445674848955
  N   -2.40652747214922      0.53527864373084     -1.93286587857949
  N   1.40050915801974     -0.27971403443084      1.05888080025061
  O   0.98492958183940     -0.90511726649587      2.02448173068775
  O   2.54755724430888      0.09538368773473      0.83854021466864
  N   0.99655349559299      0.80604167477929     -1.09457115106929
  O   1.40001751229625      0.11850060613922     -2.02525186034209
  O   1.02822505330037      2.02447568462832     -0.96755574282299
