12
Coordinates from ORCA-job run
  C   -0.91332624754173     -0.15575437322223      0.04454725893316
  C   0.41977454584821      0.03811373912552     -0.06768969959767
  C   -1.44350452493070     -0.89519101697195      1.15128799255579
  N   -1.97558575214750     -1.49240031888965      2.01479729302287
  C   -1.86289178152081      0.40397961558964     -0.86240018728170
  N   -2.68976081851489      0.86577049390956     -1.56229750826048
  N   1.05278833353495      0.86340825903751     -1.09740876352327
  O   0.50074267738188      0.91092955671922     -2.19044742564548
  O   2.06410737950040      1.45571118294628     -0.73141156536164
  N   1.37576999180311     -0.53017953896147      0.87928380666977
  O   2.17343048611365     -1.31602649772215      0.38061306860640
  O   1.29945571047343     -0.15036110156027      2.04112572988225
