12
Coordinates from ORCA-job run
  C   -0.91438658788190     -0.14630545888363      0.04653821508701
  C   0.41928484101529      0.07658689875857      0.03542008703488
  C   -1.87546427786832      0.88389315500747      0.27642705277031
  N   -2.71154419480579      1.69857744350693      0.43190434719763
  C   -1.42763092778978     -1.45185928224788     -0.24198277771406
  N   -1.94418422338192     -2.48739461121784     -0.45773664789714
  N   1.38633579536136     -0.98862173919236     -0.21061768178022
  O   1.35247383368668     -1.52921749011787     -1.30925210031579
  O   2.15131450910735     -1.20033315566951      0.72388433225609
  N   1.03844418377059      1.39104541137918      0.20808985877493
  O   2.06832198108463      1.56340865870287     -0.43720475058315
  O   0.45803506770179      2.18922016997405      0.93453006516952
