12
Coordinates from ORCA-job run
  C   -0.86904963572576     -0.33859329187975      0.02083204777135
  C   0.41131756221618      0.09439447905370     -0.01684230886012
  C   -1.91119412405601      0.62977679321189      0.18073833368334
  N   -2.77438898243483      1.42102492596528      0.31154532862010
  C   -1.27011204437452     -1.70525114445110     -0.08736793827668
  N   -1.71140785964970     -2.79463223811331     -0.16623642026113
  N   0.73245640979706      1.51495930595347      0.09777074434012
  O   0.82404325092505      2.12106978985236     -0.96327860057940
  O   0.88850826151921      1.93342987903452      1.23883522758394
  N   1.60013160153166     -0.75587655118991     -0.16942332386499
  O   1.40453555670699     -1.95699101486872     -0.29355095802581
  O   2.67416000354469     -0.16331093256842     -0.15302213213072
