12
Coordinates from ORCA-job run
  C   -0.91447964586428     -0.17327826804727     -0.04855251550068
  C   0.39893296532776      0.13399795365559      0.04516995839973
  C   -1.98384129662485      0.69736657823735      0.32369373458785
  N   -2.94002669515850      1.32913757538693      0.59667380900814
  C   -1.27791745215730     -1.46013715669086     -0.56033395372621
  N   -1.58768170881118     -2.51594838054528     -0.98168488134560
  N   1.42867097018229     -0.81795380846299     -0.36382165517333
  O   1.80430197995789     -1.59931726311805      0.50200135047706
  O   1.80791190085018     -0.71461512339082     -1.52448197847788
  N   0.94909246491192      1.39994694398320      0.54865691013205
  O   0.14214225890323      2.25897864803680      0.87584571670054
  O   2.17389425848284      1.45982230095538      0.58883350491834
