12
Coordinates from ORCA-job run
  C   -0.62518362270042     -0.60042881754895      0.22843488579489
  C   0.59539698319855      0.20656533716781     -0.06618423938842
  C   -1.46727035871840     -0.02525075389635      1.28131785974974
  N   -2.12485609960986      0.43372770691519      2.14112044302311
  C   -1.39518231517536     -0.95426451344654     -0.96734395320560
  N   -1.99335079672414     -1.24655904343358     -1.93632994499004
  N   0.85837409253110      1.51266898526581     -0.59821913789509
  O   2.03368033936235      1.84721880547785     -0.70652905300067
  O   -0.15160795422894      2.14849488943783     -0.88669026839493
  N   1.48926941733740     -0.68360293520132      0.33045622603659
  O   2.62295192945901     -0.93795822062183      0.47290011005996
  O   0.15977838526871     -1.69961144011591      0.70806707221044
