12
Coordinates from ORCA-job run
  C   -0.91930871310090     -0.14369733085771      0.06432571676261
  C   0.40354905014229      0.09467979407180     -0.08290214039899
  C   -1.93085503260659      0.28894086688667     -0.84669064619517
  N   -2.84400082483123      0.59372908216004     -1.52568356132309
  C   -1.35484760652570     -0.88327167864591      1.21021884716017
  N   -1.72110103042312     -1.48892259096086      2.15227170503293
  N   1.02369238161517      0.83879008763211     -1.18774957883589
  O   2.24345896851199      0.95243004705598     -1.12410156978491
  O   0.27149108360249      1.26990623507590     -2.05064767020385
  N   1.37175537625769     -0.39194942088902      0.89695847165121
  O   1.59195266558680      0.35565651377101      1.84246536145238
  O   1.86321368177110     -1.48729160530001      0.65153506468261
