12
Coordinates from ORCA-job run
  C   -0.62646153872821     -0.60458733380651      0.21039589285542
  C   0.59684030636726      0.20740592881773     -0.05711794065563
  C   -1.48162741875245     -0.04663525221687      1.26178949979372
  N   -2.15196662692710      0.39982550289681      2.11822746140177
  C   -1.38323420392427     -0.94014102816979     -0.99900271841714
  N   -1.97464071889406     -1.21771183262547     -1.97642456651887
  N   0.86487137493524      1.52238815968422     -0.56374432885845
  O   2.04121188777281      1.85702025473324     -0.65952744019025
  O   -0.14263053663261      2.16529368843500     -0.84553152729029
  N   1.48628731299070     -0.68822040780036      0.33731023271372
  O   0.15421195850922     -1.71057034571343      0.68160762847341
  O   2.61813820328346     -0.94406733423455      0.49101780669259
