12
Coordinates from ORCA-job run
  C   -0.60836781264990     -0.62108510376813      0.21782142971091
  C   0.58691857346791      0.23285194329426     -0.04521855829873
  C   -1.52654970265828     -0.05443831680651      1.20960363431350
  N   -2.24542806194157      0.40183591403329      2.02037322323169
  C   -1.30133447247994     -1.05033829767673     -1.00009919202251
  N   -1.83629382333198     -1.40936169146248     -1.98349743855911
  N   0.81645484765875      1.53378068167097     -0.60521490550797
  O   -0.20345676650671      2.10447224557398     -0.98150429475097
  O   1.97775375811419      1.92694295143678     -0.64962837143290
  N   1.50082283969858     -0.60050246790742      0.42277675635863
  O   2.63697542269715     -0.79746888307861      0.62394831929572
  O   0.20150519793179     -1.66668897530941      0.77063939766176
