12
Coordinates from ORCA-job run
  C   -0.89837199024091     -0.23272415444614      0.05532549815351
  C   0.40564919864205      0.10835547878038     -0.03757735064701
  C   -1.40527215870612     -0.89135066659637      1.21866869911816
  N   -1.85945557118551     -1.44575122490839      2.15367846224769
  C   -1.83352927901623      0.03959121844447     -0.99104164235191
  N   -2.65903980051576      0.24467638929870     -1.80615957149615
  N   0.98142294082549      0.82370111489021     -1.17790789085037
  O   1.77913348682813      1.70427743585017     -0.87185871535105
  O   0.60860363539548      0.49170852287613     -2.29583208979022
  N   1.38451227344319     -0.19867311437524      1.00468375426273
  O   2.38257613040669     -0.78458845185744      0.59737346458229
  O   1.11377113412350      0.14077745204353      2.14964738212233
