12
Coordinates from ORCA-job run
  C   -0.92482315754976     -0.11775918211349      0.01253060601629
  C   0.41075200956428      0.08026800742264     -0.05694226584191
  C   -1.44353404810948     -0.91230800017754      1.08397833653334
  N   -1.88227865680798     -1.56558357053922      1.96114136180719
  C   -1.87313719281176      0.40509287987873     -0.91959827453239
  N   -2.73826234577671      0.78711743644691     -1.62219908623986
  N   1.10328334058692      0.88572414516337     -1.07235050150257
  O   0.43142394192198      1.27442209237401     -2.01824676208154
  O   2.29248824229811      1.09280939752948     -0.85409272860375
  N   1.31730570222601     -0.50284179876121      0.92940617269414
  O   1.86713940670313     -1.53955053809522      0.57500946412347
  O   1.44064275775526      0.11260913087153      1.98136367762759
