12
Coordinates from ORCA-job run
  C   -0.91797616625215     -0.14870643748820      0.05678448168816
  C   0.40525056494191      0.09198015936802     -0.08309552260752
  C   -1.37701355159111     -0.74176734822736      1.27647033191965
  N   -1.76129075943099     -1.23325114829121      2.27578559058048
  C   -1.90852029891695      0.14265851505904     -0.93034297946870
  N   -2.80653418401152      0.33561609332048     -1.66839415043697
  N   1.04722924072462      0.69807700496369     -1.25756405222738
  O   0.31760408598525      0.97894717092852     -2.19838177636255
  O   2.25962535582314      0.86165606562716     -1.16687624814618
  N   1.35032014392320     -0.24718237572858      0.97856688074351
  O   1.51198853627968      0.61082853218780      1.83833091995595
  O   1.87931703252492     -1.34785623171936      0.88071652436152
