12
Coordinates from ORCA-job run
  C   -0.90426287251244     -0.19239418073203      0.08221767171308
  C   0.41220943365710      0.08784530175637     -0.03384014620337
  C   -1.40677132240591     -1.02600629036512      1.12914877741271
  N   -1.88294442450448     -1.69419440531288      1.97481199736873
  C   -1.86254313578344      0.32615965986002     -0.84389551170636
  N   -2.69150916810436      0.71191105870719     -1.58674741079700
  N   0.96928992628883      0.89176785369212     -1.12150608677052
  O   1.95290434068993      0.39237528507770     -1.65939427182976
  O   0.40645236923908      1.94499026835739     -1.39250665527664
  N   1.42311439068180     -0.37865472109636      0.91523669061539
  O   1.37945202596834     -1.55469280162178      1.25262772350539
  O   2.20460843678554      0.49189297167737      1.28384722196835
