12
Coordinates from ORCA-job run
  C   -0.88829924228495     -0.27496154474022      0.00535847231287
  C   0.40507768220807      0.11603030291361      0.00259650702441
  C   -1.94523068886521      0.66531978355607      0.21264486104985
  N   -2.84707109338222      1.40001671306032      0.39276052341912
  C   -1.27197710171167     -1.63645932366617     -0.20266542886370
  N   -1.65582355038057     -2.73770979093242     -0.37587018895475
  N   0.82773235158659      1.49275674977541      0.26148919441086
  O   0.25404057868812      2.38445093773214     -0.35322656333109
  O   1.72489617725279      1.59238267212459      1.09237892652737
  N   1.52494302616438     -0.78743397426779     -0.26705431664279
  O   2.36086477243288     -0.32884470282392     -1.04060858719481
  O   1.50984708829178     -1.88554782273163      0.27319660024266
