12
Coordinates from ORCA-job run
  C   -0.90130040197082     -0.21350820602714      0.08147473835766
  C   0.41140128809129      0.08431670470613     -0.03293696583762
  C   -1.40132957894766     -1.04373011334081      1.13260384615152
  N   -1.87120580333356     -1.70765856131767      1.98443747795232
  C   -1.86092986644807      0.29834925145990     -0.84714458562517
  N   -2.68589894452760      0.68160177096232     -1.59552238845209
  N   0.94967825906647      0.90384729431641     -1.11816004095143
  O   1.91281665426094      0.40568908830197     -1.69196388981737
  O   0.39654558668545      1.97223875470860     -1.34663351753353
  N   1.43258184531136     -0.36250110003025      0.91055278028538
  O   2.23363336569643      0.50784462474881      1.23724016228069
  O   1.38200759611577     -1.52748950848826      1.28505238318964
