12
Coordinates from ORCA-job run
  C   -0.89443429561108     -0.24200440583015      0.07504856527547
  C   0.40519262953576      0.10967558216441     -0.03456755523457
  C   -1.33055090609101     -1.58134969969610     -0.17063648756066
  N   -1.74745911807350     -2.66338534439182     -0.37827943319904
  C   -1.89929277104830      0.70646529904505      0.44207440509871
  N   -2.76400537475987      1.44147982797296      0.75791326791287
  N   0.90180804504237      1.45695652320398      0.24864903603027
  O   1.90097117772327      1.48568785505333      0.95968577433235
  O   0.27952318539388      2.39761234034469     -0.22823754005718
  N   1.45878511714413     -0.81788998929124     -0.44783543682929
  O   2.21100899681822     -0.37296892143136     -1.30872935360447
  O   1.47745331392615     -1.92127906714376      0.08291475783556
