12
Coordinates from ORCA-job run
  C   -0.89809672568882     -0.23784122085409      0.02633619991280
  C   0.40529846317381      0.11337109135497     -0.01830601242049
  C   -1.85082560852907      0.27115397342889     -0.90933484769871
  N   -2.68274066766717      0.63992797894548     -1.65755113348453
  C   -1.38655626370415     -1.13859363897861      1.02306596557108
  N   -1.84091446157474     -1.85810094762280      1.83761193155229
  N   1.39576334813741     -0.36841668967563      0.94609501391819
  O   2.05851651397793      0.52120079286585      1.46983420433885
  O   1.45761941051435     -1.57696250275885      1.13168636333415
  N   0.97209731867436      1.00546827021259     -1.03160117283741
  O   2.05323641460319      0.63827145355182     -1.47977318212699
  O   0.31660225808289      1.99252143953037     -1.33906333005922
