12
Coordinates from ORCA-job run
  C   -0.91622569736276     -0.15855799885455      0.01363281941678
  C   0.41493786504189      0.07048090039893     -0.00735352488898
  C   -1.75820874973564      0.21512039759945     -1.07963685772186
  N   -2.49690129632164      0.49685536174459     -1.95296369387013
  C   -1.54944806262672     -0.78635896786695      1.13132528551652
  N   -2.12557285082926     -1.28162215285704      2.03161601997061
  N   1.11226081269115      0.66968264860875     -1.14614515411189
  O   0.61346566001804      1.66836145036241     -1.64935500042226
  O   2.13375078967182      0.07734747562592     -1.47845526312053
  N   1.30615127452162     -0.25572634570481      1.10663951816176
  O   2.07736812761195      0.64730196662081      1.41434627387707
  O   1.18842212731954     -1.36288473567753      1.61634957719289
