12
Coordinates from ORCA-job run
  C   -0.90025245115394     -0.22922106201719      0.05378724337908
  C   0.40642103732632      0.10479535753962     -0.02363382281282
  C   -1.39419326539899     -1.08402199947798      1.08785517155811
  N   -1.84881220734865     -1.78758144789976      1.91613603875151
  C   -1.85375350196691      0.25495315412303     -0.89515680570347
  N   -2.68100093953111      0.62053643549284     -1.64996753491949
  N   0.96319117300886      0.93804142802888     -1.09003765693721
  O   0.36133928291793      1.96606088418921     -1.37364600638994
  O   1.98742611048605      0.48994377325790     -1.59509026810921
  N   1.40889374369412     -0.32947032728030      0.94983792932800
  O   2.14145039647630      0.56882945491339      1.35155594235511
  O   1.40929062149003     -1.51186565086963      1.26835976950033
