12
Coordinates from ORCA-job run
  C   -0.90719048054729     -0.18897788463076      0.05022126953436
  C   0.41395528876877      0.08472122998701     -0.01225171715825
  C   -1.78050771748574      0.11372777443279     -1.04031115226309
  N   -2.54472172340381      0.35322470736104     -1.90413723020042
  C   -1.50475987154722     -0.79012120355546      1.20202528760761
  N   -2.05612506890372     -1.30287285880149      2.10766735729762
  N   1.36321897495673     -0.23500070777567      1.05213968695753
  O   1.00853442485013     -0.02041933670128      2.20430480756422
  O   2.42255675532205     -0.71285029438887      0.65847225546727
  N   1.04038665980504      0.73471179194217     -1.16618470502071
  O   1.73541841278031      1.70411041306840     -0.88149060732121
  O   0.80923434540477      0.25974636906211     -2.27045525246495
