12
Coordinates from ORCA-job run
  C   -0.90655997124168     -0.19508696671825      0.07325342386689
  C   0.41127414250818      0.08355748633640     -0.03013407649153
  C   -1.84231093822297      0.27006372761749     -0.90270796470383
  N   -2.64930551530464      0.61449613061235     -1.68876049507373
  C   -1.43232717218635     -0.96391510181595      1.15774203029033
  N   -1.92601255637530     -1.57534787078818      2.03532573624174
  N   0.98716061216679      0.83332766703958     -1.14660303590965
  O   1.96576832251251      0.29876646208638     -1.65799681553808
  O   0.44482185841393      1.88630526233665     -1.45752960072627
  N   1.40593461620554     -0.32769887004106      0.96186272794093
  O   1.33808081424945     -1.47493363268675      1.38436964057474
  O   2.20447578727451      0.55146570602132      1.26917842952846
