12
Coordinates from ORCA-job run
  C   -0.87622210489088     -0.30848742830940     -0.02156574030829
  C   0.39775085747584      0.13791680685353      0.01250481076926
  C   -1.41690505523079     -1.11945817172275      1.02505009131869
  N   -1.91364471119026     -1.80513951700314      1.84423815775758
  C   -1.74903031194823      0.01113037329600     -1.10718258394696
  N   -2.51643142684269      0.26531575966534     -1.96409937411062
  N   0.96754492264492      1.01390217123902     -1.00986252403444
  O   1.52345141199301      2.00932966291687     -0.55745402139549
  O   0.82341485015031      0.68683795349237     -2.18027128802992
  N   1.34918574862708     -0.20784797301976      1.07033112723213
  O   0.95861682622528     -0.12961759898531      2.22841707381710
  O   2.45226899298640     -0.55288203842276      0.65989427093095
