12
Coordinates from ORCA-job run
  C   -0.90425786351188     -0.22326614085315      0.06033438350248
  C   0.40286004985591      0.10772356412455     -0.03061744756543
  C   -1.37422658735930     -1.09258622346849      1.09276567155818
  N   -1.80309119165565     -1.79960946150372      1.93210803013452
  C   -1.86978435652984      0.26723235767284     -0.87387566869246
  N   -2.70224987137372      0.61502720372360     -1.63175285204054
  N   0.95956170982325      0.93553894575434     -1.10105661455541
  O   0.35012342290782      1.95617084411199     -1.39949698793719
  O   1.99231887470327      0.49396273812970     -1.59393620728218
  N   1.40816687256637     -0.32854055944240      0.93958404721960
  O   1.45659862994352     -1.52132397642097      1.21133758569502
  O   2.08498031063025      0.58767070817171      1.39460605996340
