12
Coordinates from ORCA-job run
  C   -0.89942534083841     -0.23264180323287      0.04303392955036
  C   0.40648409689139      0.10800080900204     -0.01834482863589
  C   -1.85026453961716      0.27059577632324     -0.89859363968878
  N   -2.67082052160109      0.63885933761401     -1.65939558400607
  C   -1.39523191631700     -1.11558799990550      1.05232647485645
  N   -1.85987980696625     -1.82423836561606      1.87075877628019
  N   1.40462581882337     -0.35161756968558      0.94781896020787
  O   1.40480455348164     -1.54224188787989      1.23400001226620
  O   2.13439990022296      0.53596584887803      1.37765903125961
  N   0.96679356864123      0.97049186684645     -1.05931652746100
  O   2.00224291591533      0.54509079612418     -1.56126434064012
  O   0.35627127136400      1.99732319153194     -1.32868226398882
