12
Coordinates from ORCA-job run
  C   -0.86590586072084     -0.33763629591500     -0.03188592684904
  C   0.39287824895605      0.15028697380014      0.01302465201350
  C   -1.38470543320167     -1.16508966224442      1.01223748509939
  N   -1.85726353616446     -1.86336244833174      1.83496435215433
  C   -1.74288953085040     -0.04917223469420     -1.12350536230110
  N   -2.51283310073715      0.17292945055372     -1.98693817726883
  N   0.95118131886619      1.03622009369361     -1.00910023479635
  O   0.76898340383783      0.72941970775029     -2.18043765174278
  O   1.53367420078079      2.01786879677469     -0.55986614829318
  N   1.33583442159039     -0.15319278734092      1.08990754876376
  O   0.92689283016766     -0.05672522880120      2.24001485433035
  O   2.45315303747560     -0.47954636524497      0.70258460888995
