12
Coordinates from ORCA-job run
  C   -0.91500589551748     -0.16722750141901      0.01062007016208
  C   0.40991989802341      0.09079551525067     -0.06310605124893
  C   -1.40945559003546     -0.90401373297019      1.13464577560050
  N   -1.83007341594486     -1.50790192589495      2.05483862030102
  C   -1.87998385151872      0.24745010477113     -0.95711888698926
  N   -2.76014137489871      0.53436113079905     -1.68593170026306
  N   1.07070187519826      0.86439971739750     -1.12390946468769
  O   2.25012355259828      1.13316738858055     -0.91935823734286
  O   0.38363538778651      1.16933365080990     -2.08919742236870
  N   1.33178260933550     -0.37641089016586      0.96845043025622
  O   1.95704900544707     -1.39240464592679      0.68873201483322
  O   1.39244779952620      0.30745118876799      1.98333485174745
