12
Coordinates from ORCA-job run
  C   -0.86593150180751     -0.33494739150891     -0.04697206538991
  C   0.39243991979373      0.15156476078648      0.02178343894181
  C   -1.36332672948276     -1.26507770610900      0.91816102535975
  N   -1.82011814685798     -2.04630550542063      1.67232975982552
  C   -1.76313595302872      0.05632363273881     -1.08910112026641
  N   -2.54924153068325      0.35886536104756     -1.91266426407351
  N   0.92783962834105      1.13577037415614     -0.91947017380524
  O   0.73655311979564      0.93614214520417     -2.11238348517847
  O   1.50929511453963      2.07574014871183     -0.38716833870476
  N   1.35805919451546     -0.25245331872666      1.04445684769258
  O   2.46931249750824     -0.53010872215145      0.60520083828834
  O   0.96825438736644     -0.28551377872835      2.20482753731031
