12
Coordinates from ORCA-job run
  C   -0.87513631984859     -0.34355739968544     -0.01643479149223
  C   0.38840676723706      0.12958545626586      0.01878276402302
  C   -1.38816670325837     -1.23366806451530      0.97583210377889
  N   -1.82465001882951     -1.97487129017584      1.78622696106527
  C   -1.76362583552967      0.08495289507382     -1.05307385757920
  N   -2.52478633747742      0.47505126946397     -1.86361060463144
  N   0.91520360625459      1.05187058395992     -0.98656193516222
  O   0.82209745212116      0.70785194385938     -2.16153525606566
  O   1.39623627031354      2.08665045533787     -0.53762149562452
  N   1.37237288138389     -0.23403079203919      1.03906603456065
  O   2.51808916300440     -0.34402973072184      0.61857875783194
  O   0.96395907462893     -0.40580532682321      2.17935131929550
