12
Coordinates from ORCA-job run
  C   -0.85841443956586     -0.35649444005885     -0.04112237164365
  C   0.38897359524373      0.15892198559834      0.01589733902370
  C   -1.32941938441182     -1.28369699653257      0.94002363593754
  N   -1.76935702878661     -2.04378974407769      1.72515472503186
  C   -1.76985392912573     -0.00009801551067     -1.08331105510568
  N   -2.56580815054364      0.26972290808370     -1.90875888986635
  N   0.89872344462373      1.14455365089589     -0.93798076563225
  O   1.47268606716758      2.09672629726612     -0.41947384025176
  O   0.69664184033630      0.93355541758988     -2.12726402443761
  N   1.36747257155175     -0.21168482611353      1.03862514065716
  O   0.98832289359407     -0.22401352419464      2.20297407732344
  O   2.47803251991650     -0.48570271294599      0.59523602896361
