12
Coordinates from ORCA-job run
  C   -0.88111226438232     -0.30751659936874      0.01682535247763
  C   0.40274535464411      0.11897802276189      0.03968879428317
  C   -1.42562319110728     -1.24069202923991      0.95076661783750
  N   -1.96740742722521     -2.01469102126155      1.65685481473802
  C   -1.76445523206966      0.19886920183047     -0.98862248261790
  N   -2.47304909296985      0.55923660043919     -1.85983510498922
  N   0.88814800641485      1.13655654077361     -0.89191326824437
  O   1.17978951859117      2.19234470209141     -0.33950668527255
  O   0.93743198901426      0.84707000814769     -2.07919356636787
  N   1.44225334172793     -0.37837707885506      0.94723922852657
  O   1.06459780434824     -0.87767911547588      1.99920333642111
  O   2.59568119301376     -0.23509923184313      0.54749296320789
