12
Coordinates from ORCA-job run
  C   -0.87925435820699     -0.30926823228477      0.09668528176314
  C   0.40911000077093      0.07690936480476     -0.03714779925828
  C   -1.34627441934737     -1.64101996137812     -0.11739506671008
  N   -1.81737443107794     -2.70909775473137     -0.27862334392845
  C   -1.85656959129820      0.68635243419826      0.41432267949224
  N   -2.67129684805027      1.50066102671522      0.66165182281119
  N   0.79809889234829      1.47503741488978      0.13695868914411
  O   1.00419927749071      2.07020408993027     -0.91671251806362
  O   0.89783408264730      1.88973610327781      1.28412248377206
  N   1.54172633488646     -0.80158024421132     -0.34268756414335
  O   2.64916841435613     -0.32422587586746     -0.12021465976092
  O   1.27263264548098     -1.91170836534304     -0.78196000511804
