12
Coordinates from ORCA-job run
  C   -0.90685765686310     -0.20218168888634      0.04804635075202
  C   0.40963386345746      0.09282578070166     -0.02238923037509
  C   -1.84049503494445      0.30212863271413     -0.91002382208369
  N   -2.65263683016102      0.67419073760604     -1.67796502092207
  C   -1.43118060431663     -1.03379361857863      1.08610814412660
  N   -1.91287899549673     -1.70362479798763      1.92695692726705
  N   1.39188371942520     -0.36639959319862      0.96013723064138
  O   2.14326163109154      0.51343828491797      1.36793726323482
  O   1.35928237905840     -1.54810121541171      1.27940971304084
  N   0.99822165618239      0.90266515600927     -1.08985357178664
  O   0.42284539379981      1.94088754959880     -1.39087124043392
  O   2.01792047876714      0.42696477251506     -1.57849274346128
