12
Coordinates from ORCA-job run
  C   -0.91193653563871     -0.17422394892166      0.06080726532880
  C   0.41207762108340      0.07936976282081     -0.02694373147940
  C   -1.81030650450015      0.16203397846903     -0.99926041792424
  N   -2.59354889149343      0.43113573158687     -1.83702968979944
  C   -1.48005811936240     -0.79171445387349      1.21842691851483
  N   -1.99900030880199     -1.31409616346813      2.13797108558330
  N   1.37314214430745     -0.28620367148246      1.01424056671342
  O   2.38043685959998     -0.84655317531384      0.59439435213219
  O   1.07909544615347     -0.01571778103010      2.17179689804459
  N   1.03075316159020      0.74715534379744     -1.17276586650303
  O   0.71193162964098      0.35949357662216     -2.28971447728741
  O   1.80641349742119      1.64832080079337     -0.87092290332361
