12
Coordinates from ORCA-job run
  C   -0.91719244452278     -0.21778596468642      0.06139041879216
  C   0.39570429462150      0.09061529550224     -0.02406414973274
  C   -1.85520287148612      0.32595907119196     -0.87025361922585
  N   -2.65139631818493      0.73881572310441     -1.63324430870927
  C   -1.41308942997763     -1.09733311125087      1.07236651082770
  N   -1.86780739638352     -1.83208477431826      1.87352314188992
  N   1.40960632057815     -0.38202357482640      0.92195894098400
  O   1.36036281856912     -1.55633064196868      1.26308637933093
  O   2.19667491773717      0.48680260091909      1.28404529228977
  N   0.96612895235416      0.94670779943323     -1.06566348971371
  O   0.44533324051972      2.04009998502496     -1.24107783371884
  O   1.93087791617515      0.45655759187474     -1.64106728301407
