12
Coordinates from ORCA-job run
  C   -0.91315808281327     -0.18288579375240      0.04452635137976
  C   0.40696565604355      0.09252605366240     -0.02274076295641
  C   -1.83296583589193      0.26643961724054     -0.95348111238649
  N   -2.65078924757822      0.64311064514052     -1.71405093811405
  C   -1.44479914143277     -0.95933521090020      1.12018713275959
  N   -1.92397332856397     -1.61540865162042      1.97354022329865
  N   1.01592662252233      0.89320564710924     -1.08982515206735
  O   0.66618043998322      0.65133878233777     -2.23749124439618
  O   1.82952543525593      1.72203883773938     -0.69975227135680
  N   1.37443678609900     -0.38150168329107      0.96306409712551
  O   2.35506156831491     -0.93175437837062      0.47081390956334
  O   1.11758912806124     -0.19877386529513      2.14620976715042
