12
Coordinates from ORCA-job run
  C   -0.90683283030636     -0.16552013223239      0.10121893753195
  C   0.41228158778640      0.08068903581128     -0.04575269624328
  C   -1.39005934772865     -0.91176011362167      1.22003170056712
  N   -1.80553803925313     -1.52993028097228      2.13254910615906
  C   -1.85366416502495      0.29016472778525     -0.86719884362931
  N   -2.65130278795858      0.64900155408367     -1.65627220326550
  N   0.95172650170647      0.83341758603834     -1.18163622679477
  O   1.72840934093225      0.22458067781158     -1.90805959967735
  O   0.56611841613688      1.99419423425684     -1.27863525966123
  N   1.40880892308140     -0.37965059175373      0.92452579532810
  O   2.19994206340851     -1.22566678545521      0.52547034664119
  O   1.34011033721979      0.13948008824832      2.03475894304403
