12
Coordinates from ORCA-job run
  C   -0.90277176339515     -0.21740383123659      0.03748590638330
  C   0.40894185175738      0.09437591092634     -0.05310988245112
  C   -1.41074275359512     -0.83774713675424      1.22312027480168
  N   -1.86298737846868     -1.35284505061637      2.18098520658567
  C   -1.84017382387176      0.05115112853836     -1.00621100964023
  N   -2.67942958982005      0.25646916537826     -1.80666708442561
  N   1.01612630728756      0.79683226875024     -1.18460140854283
  O   1.92418359243676      1.56244756171935     -0.87665730449272
  O   0.55115113515148      0.58050112996918     -2.29539375333698
  N   1.36334174791511     -0.22714794825482      1.01028716185432
  O   2.28510143223895     -0.95138416662810      0.65104596141828
  O   1.14725924236353      0.24375096820838      2.11971593184623
