12
Coordinates from ORCA-job run
  C   -0.89373122034931     -0.24568632966834      0.07117334643540
  C   0.41480788002496      0.08010478635143     -0.01617384809101
  C   -1.42648999658614     -1.05428936126912      1.12069536954653
  N   -1.94896423504712     -1.69415003476818      1.96021527961768
  C   -1.81711459515317      0.23257213379844     -0.91228436279123
  N   -2.60406679439069      0.60440024944951     -1.70587000487585
  N   0.94924725279161      0.87746791126281     -1.12220613238041
  O   0.48274464538744      1.99819187147541     -1.28217827663618
  O   1.82044114599905      0.30959867895016     -1.77143355292933
  N   1.42814171892275     -0.29160757910309      0.97270940463646
  O   2.30474754285087      0.55012905840209      1.14099362890076
  O   1.29023665554974     -1.36573138488112      1.54235914856716
