12
Coordinates from ORCA-job run
  C   -0.88343008751819     -0.26571804391031     -0.00234368660314
  C   0.40918769604319      0.12203007950613     -0.01153527662056
  C   -1.80181327272684      0.15285648510328     -1.01360709240954
  N   -2.59096515048501      0.49041580644697     -1.82003570399666
  C   -1.37954101959063     -1.09830008823828      1.04792592938784
  N   -1.80463937450464     -1.77366887946345      1.91465323487894
  N   1.35378668563318     -0.29807905727154      1.02531579409365
  O   1.65799899136519     -1.48771634490170      0.99931900703177
  O   1.73783743308326      0.56969133701797      1.79848267000597
  N   0.96742312331966      0.98578529215057     -1.05806964432160
  O   1.55624869495311      1.98786223066322     -0.66927108143908
  O   0.77890628042774      0.61584118289714     -2.21183415000759
