12
Coordinates from ORCA-job run
  C   -0.85635592827968     -0.35630265787848     -0.05048854601560
  C   0.38935252393303      0.16220745378450      0.02839299537290
  C   -1.33648408784654     -1.30905239788649      0.90109062876716
  N   -1.77639316614697     -2.10793219879408      1.64625186523593
  C   -1.75679370670469      0.01597093212177     -1.09810915275667
  N   -2.54357531467743      0.29760590957066     -1.92838389958032
  N   0.90139290906107      1.16700242235563     -0.90830985475782
  O   1.44675303952966      2.12339200757148     -0.36793931552869
  O   0.72483296480208      0.96692411004091     -2.10247566357412
  N   1.36028577316740     -0.22390983158696      1.05163887979538
  O   2.48203908394774     -0.46558969331554      0.61797107938066
  O   0.96494590921434     -0.27131605598341      2.21036098366118
