12
Coordinates from ORCA-job run
  C   -0.88986945234022     -0.27983037110266      0.00041729713066
  C   0.39935152513551      0.12371910217271      0.03028043176109
  C   -1.49173691220490     -1.03790505152694      1.05189241261099
  N   -2.04220279766049     -1.67322399705631      1.87640332741343
  C   -1.71989848071940      0.05931848243227     -1.11418549140345
  N   -2.43008101797148      0.33235865062376     -2.01351974015560
  N   1.34859226949303     -0.20996394969763      1.09775654174907
  O   2.51087570763333     -0.33890205139552      0.72534003613789
  O   0.89707203644383     -0.33507363486951      2.22808068625909
  N   0.99410882037689      0.91944958072754     -1.04058685689470
  O   1.40311360633595      2.01905581427585     -0.68350304243151
  O   1.02167469547794      0.42099742541642     -2.15937560217697
