12
Coordinates from ORCA-job run
  C   -0.86949025888727     -0.33781609933672     -0.00189634406527
  C   0.38696570202585      0.15847214507098      0.01829731710393
  C   -1.76131731369209     -0.01896846950259     -1.07274894606045
  N   -2.51653749380144      0.23782905066455     -1.93867338136523
  C   -1.36092337786869     -1.20653267612322      1.02150126540350
  N   -1.82327732143528     -1.95135672956841      1.80864657346742
  N   1.37270942347398     -0.16476741653885      1.05882069381166
  O   2.50761979962997     -0.35046130158198      0.63591572076739
  O   0.96674611675744     -0.24945655754068      2.20990697937334
  N   0.90088781285138      1.06985399064271     -1.00410338473471
  O   1.37991730353514      2.10983946551115     -0.56489611302011
  O   0.81569960741100      0.70236459830306     -2.17077038068144
