12
Coordinates from ORCA-job run
  C   -0.91610799065285     -0.07598223978262      0.14627348068213
  C   0.41347643484643      0.03366377770936     -0.06588504756425
  C   -1.86643992040187      0.48237500743017     -0.76429290288684
  N   -2.69075370079990      0.93950460948116     -1.47088875766244
  C   -1.43711281533610     -0.75554788664993      1.29105099169280
  N   -1.91937691735329     -1.31999752930167      2.20579199511344
  N   1.42193956597854     -0.55477621067415      0.81618811266519
  O   2.30314962804396     -1.17452784908083      0.22951470468082
  O   1.28302120041769     -0.38625464044858      2.02097355506783
  N   0.99121577195950      0.75446406011073     -1.20078576829171
  O   0.52023923851583      0.52995026716954     -2.30880815094170
  O   1.89474950478208      1.52712863403683     -0.89813221255528
