18
Coordinates from ORCA-job run
  C   0.77507033110148      0.16463534436484     -0.17930947300653
  C   -0.70023111619013     -0.22191982538371      0.07066382957314
  Cl  0.91078923005183      1.20411131599611     -1.60156729091631
  H   -0.67432690348703     -0.83793189229430      0.97576929111119
  C   1.67708036738559     -1.03871992901917     -0.34582603722152
  H   1.60383849682190     -1.68107268100125      0.53215039059267
  H   2.71352180347854     -0.72138371283225     -0.47416576236317
  H   1.34945489419865     -1.58284476917554     -1.22957112355711
  N   1.22426073482099      0.93649496384637      1.06040669168561
  O   1.45228424514825      2.13615794301030      0.99732903140841
  O   1.27235991704487      0.24884966492874      2.07953595868193
  N   -1.14703456791981     -1.03832710105415     -1.04896946013275
  H   -1.58930893418101     -1.88674351981958     -0.72657542685196
  H   -1.80139708003859     -0.53313116170396     -1.63076429179737
  C   -1.58959229224464      0.98773894471938      0.33293671178991
  H   -2.59182289840590      0.64235738913263      0.59645253398802
  H   -1.22213236917609      1.60939355063483      1.15175395005206
  H   -1.66181385840891      1.61333547565071     -0.55924952303622
