18
Coordinates from ORCA-job run
  C   0.67527597676878      0.15770585380590     -0.25377838491721
  C   -0.74710804044840     -0.25095001938596      0.21856664721333
  Cl  0.64387874600860      0.71257930317801     -1.93456359715343
  H   -0.60536693478088     -0.58137239659761      1.25299193537974
  C   1.70266515400095     -0.94818522831355     -0.11110038433704
  H   1.70592702916046     -1.32296525521084      0.91269131636590
  H   2.69777345114836     -0.57458337578812     -0.35907612863533
  H   1.46506729416758     -1.75746921995597     -0.80108166700105
  N   1.10749689383660      1.30811303029843      0.65082543043301
  O   1.22934744638818      2.43899240000901      0.20330061081055
  O   1.25734730578922      0.97656795133524      1.82605628386240
  N   -1.31886770252542     -1.35891510111975     -0.51768973888586
  H   -1.40267649249654     -1.13412664595894     -1.50161399662744
  H   -0.77004672414691     -2.20280602187619     -0.42037842589328
  C   -1.71815610260404      0.92067252766666      0.21011974751145
  H   -1.86553279350704      1.30196161668560     -0.80257347595257
  H   -1.37792958049775      1.74465335056066      0.83946087654563
  H   -2.67809492626175      0.56812723066743      0.58784295128121
