18
Coordinates from ORCA-job run
  C   0.85361806406819     -0.18377727030927     -0.30532464943227
  C   -0.67132497886327     -0.26457562698300     -0.53439171909499
  Cl  1.66986580129357     -0.82829582673855     -1.74036822903139
  H   -0.80883825184988     -1.23978372055077     -1.01135759873938
  C   1.36523145785823     -0.90305512156029      0.92762030799840
  H   0.95457111712488     -0.44298898326948      1.82762837664560
  H   2.45456750066228     -0.85089722501489      0.96094567101190
  H   1.06863634161910     -1.95256471867818      0.88982354357676
  N   1.26105102845663      1.28108944749746     -0.14046575342373
  O   2.30358555100386      1.67755414697125     -0.63460273597207
  O   0.50838088117737      1.94274464588575      0.57351378241776
  N   -1.03154633996699      0.74950798165456     -1.51678907077259
  H   -1.79662247835902      0.42881871514883     -2.09391355451861
  H   -1.31919300760503      1.60023430813972     -1.04869268046524
  C   -1.52751086739529     -0.25359094841137      0.73255079396143
  H   -1.42942237913543      0.68924411144045      1.26945928711361
  H   -2.57230371672678     -0.37479985431457      0.43490844579256
  H   -1.28174572336242     -1.07486406090764      1.40945578293226
