18
Coordinates from ORCA-job run
  C   0.77726070368063     -0.23073784932164     -0.31296598798886
  C   -0.73831471671511     -0.03072822928685     -0.45137594965262
  Cl  1.27626534501645     -1.69628433180901     -1.20386877200138
  H   -0.97349000285306     -0.15491090735050     -1.51369813385649
  C   1.28656674517129     -0.28358032553723      1.10310408967019
  H   2.37289668258077     -0.33499671122163      1.11558268514663
  H   0.95797802604228      0.61429799720203      1.62726377270661
  H   0.88781483121139     -1.16901469604403      1.59774297572192
  N   1.44892577083898      0.92911085468975     -1.05822877233827
  O   2.49456062831783      1.37427155305238     -0.60241385041894
  O   0.89754076941397      1.31401515952972     -2.08541384399815
  N   -1.03143688283859      1.31627529080319      0.03241214472448
  H   -1.00506040983757      1.97769457138152     -0.73281874459126
  H   -1.95167930278004      1.35154367877389      0.45063158964867
  C   -1.51772324866082     -1.05547464408670      0.35815988523383
  H   -2.57799752362392     -0.98356106659383      0.10322414699645
  H   -1.19132078818407     -2.07419151068222      0.14770903128772
  H   -1.41178662678041     -0.86272883349885      1.42795373370945
