15

C	-0.503507	0.085118	-1.435393
C	0.0	0.0	0.0
F	0.059701	1.143326	-2.053846
H	1.092032	0.0	0.0
N	-0.099882	-1.169962	-2.220128
O	-0.746726	-2.17868	-1.953461
O	0.814714	-1.064577	-3.020244
C	-1.968236	0.198953	-1.528736
N	-3.134718	0.338234	-1.572387
C	-0.49391	-1.170839	0.701963
N	-0.884669	-2.060803	1.366136
N	-0.343404	1.254379	0.658422
H	0.522835	1.612241	1.054753
H	-1.022347	1.12096	1.396071
H	2.57314	0.0	0.0
