15

C	-0.324416	0.273176	-1.458605
C	0.0	0.0	0.0
F	0.036723	-0.773065	-2.238096
H	1.109497	0.0	0.0
N	-1.834647	0.450875	-1.638201
O	-2.295562	1.524397	-1.245434
O	-2.472535	-0.499988	-2.07056
C	0.302648	1.511821	-1.949892
N	0.75213	2.49337	-2.413822
C	-0.564608	-1.276006	0.393916
N	-0.981146	-2.328581	0.716566
N	-0.293764	1.066335	0.925674
H	0.535108	1.65341	0.983651
H	-1.105363	1.616203	0.674113
H	2.48468	0.0	0.0
