15

C	-0.53001	0.116403	-1.410273
C	0.0	0.0	0.0
F	0.088598	1.134766	-2.063565
H	1.101906	0.0	0.0
N	-0.240294	-1.13076	-2.256225
O	-0.69924	-1.101584	-3.396094
O	0.45641	-2.010427	-1.76625
C	-1.98527	0.340572	-1.458717
N	-3.147209	0.515878	-1.426356
C	-0.528888	-1.168845	0.677033
N	-0.957521	-2.072651	1.298849
N	-0.315854	1.254431	0.681861
H	-1.00404	1.12475	1.411074
H	0.557473	1.576847	1.0941
H	2.548143	0.0	0.0
