19

C	0.0	0.0	0.0
C	-0.55804	-0.090342	-1.413515
F	1.361393	0.0	0.0
H	-1.646785	-0.160692	-1.289877
N	-0.342959	1.362195	0.630481
O	-1.195031	2.071445	0.110135
O	0.281072	1.633994	1.654234
C	-0.544966	-1.030804	0.955486
H	-0.112206	-0.858639	1.941831
H	-0.282032	-2.034641	0.620682
H	-1.633613	-0.925424	0.985387
C	-0.014548	-1.338971	-2.098397
H	-0.213643	-2.249803	-1.533669
H	1.063299	-1.235769	-2.248586
H	-0.495346	-1.450767	-3.074393
N	-0.143935	1.076232	-2.205556
H	-0.239382	0.833242	-3.184872
H	-0.804838	1.82067	-2.021564
Br	-4.087963	0.0	0.0
