19

C	0.0	0.0	0.0
C	-0.40565	0.028873	-1.480105
F	1.377359	0.0	0.0
H	0.015213	0.95811	-1.874796
N	-0.313076	1.33352	0.693362
O	-0.113224	1.365948	1.905146
O	-0.648098	2.291261	0.003444
C	-0.56122	-1.117411	0.824295
H	-1.641956	-0.987299	0.928105
H	-0.098476	-1.121933	1.809815
H	-0.363329	-2.067733	0.326911
C	-1.900234	0.006469	-1.711117
H	-2.347205	-0.944422	-1.416458
H	-2.090467	0.151546	-2.776802
H	-2.443431	0.767049	-1.156591
N	0.215237	-1.070996	-2.219158
H	1.186395	-1.174849	-1.955617
H	-0.269147	-1.936659	-2.015672
Br	-4.945446	0.0	0.0
