19

C	0.0	0.0	0.0
C	-0.554927	-0.150509	-1.411637
F	1.369447	0.0	0.0
H	-1.642608	-0.046042	-1.312736
N	-0.311637	1.451018	0.435998
O	0.635366	2.173173	0.743992
O	-1.487784	1.780612	0.42017
C	-0.574029	-0.910193	1.047261
H	-0.170908	-0.64396	2.02714
H	-1.664128	-0.800742	1.038116
H	-0.305897	-1.944739	0.827673
C	-0.219924	-1.522132	-1.981624
H	0.863194	-1.67937	-2.008179
H	-0.598947	-1.564178	-3.003376
H	-0.685286	-2.324317	-1.406203
N	-0.065723	0.89156	-2.314937
H	-0.577039	1.749817	-2.147155
H	0.914585	1.072524	-2.127766
Br	-4.249777	0.0	0.0
