19

C	0.0	0.0	0.0
C	-0.423693	0.257776	-1.441926
F	1.376905	0.0	0.0
H	0.013035	1.225946	-1.712261
N	-0.306409	1.214569	0.887099
O	-0.447761	2.308228	0.345491
O	-0.279113	1.023412	2.099379
C	-0.560143	-1.23753	0.628668
H	-1.629152	-1.108484	0.814878
H	-0.411608	-2.05664	-0.073215
H	-0.05251	-1.440786	1.569914
C	-1.925073	0.310597	-1.629647
H	-2.402608	-0.647736	-1.428403
H	-2.151537	0.594125	-2.662464
H	-2.41642	1.032826	-0.980418
N	0.144974	-0.841861	-2.233108
H	-0.360627	-0.903084	-3.108446
H	1.115733	-0.648293	-2.444004
Br	-5.042486	0.0	0.0
