16

C	-0.510407	0.054296	-1.437256
C	0.0	0.0	0.0
F	-0.356094	-1.260321	-1.958851
H	1.087296	0.0	0.0
H	-0.384235	0.85987	0.549818
N	-1.877528	0.452422	-1.509721
H	-2.199847	0.353692	-2.464876
H	-2.431661	-0.14356	-0.906099
C	0.379333	0.953578	-2.26482
H	0.054451	0.924174	-3.309102
H	1.415133	0.62038	-2.186661
H	0.308946	1.979767	-1.900664
N	-0.535815	-1.206018	0.68196
O	0.237897	-2.086729	1.031119
O	-1.76203	-1.245627	0.851229
Cl	3.461203	0.0	0.0
