16

C	-0.527763	0.050351	-1.441708
C	0.0	0.0	0.0
F	-0.314268	-1.227129	-1.966106
H	1.088088	0.0	0.0
H	-0.37672	0.862516	0.552156
N	-1.935376	0.31592	-1.596714
H	-2.102709	1.308166	-1.486158
H	-2.447775	-0.173007	-0.870146
C	0.304345	1.03038	-2.23802
H	0.195347	2.044091	-1.840732
H	-0.03178	1.011985	-3.27651
H	1.356752	0.75107	-2.169214
N	-0.547712	-1.196227	0.682329
O	-1.748398	-1.14862	0.991086
O	0.179479	-2.161441	0.874468
Cl	3.43927	0.0	0.0
