16

C	-0.45165	0.009766	-1.457976
C	0.0	0.0	0.0
F	-0.011856	1.284308	-1.923611
H	1.088929	0.0	0.0
H	-0.402142	0.868485	0.517104
N	0.184138	-1.048621	-2.14312
H	0.04149	-0.963535	-3.141243
H	1.178611	-1.060944	-1.932681
C	-1.9502	0.008137	-1.673065
H	-2.156415	0.075974	-2.745195
H	-2.403041	-0.89975	-1.277306
H	-2.394235	0.875119	-1.181572
N	-0.524032	-1.19644	0.694319
O	-1.621979	-1.084604	1.251538
O	0.13234	-2.230964	0.659317
Cl	3.442697	0.0	0.0
