16

C	-0.367683	0.047925	-1.478624
C	0.0	0.0	0.0
F	-1.757911	0.198954	-1.58094
H	1.089285	0.0	0.0
H	-0.396085	0.882486	0.501145
N	0.228888	1.223662	-2.071093
H	1.238158	1.091691	-2.061702
H	0.04138	2.024358	-1.474201
C	0.045732	-1.170186	-2.270414
H	-0.543659	-2.035723	-1.975575
H	-0.117575	-0.952205	-3.327578
H	1.100122	-1.388554	-2.089188
N	-0.540356	-1.161527	0.740841
O	-1.350893	-0.933201	1.64209
O	-0.154446	-2.284624	0.421057
Cl	3.342193	0.0	0.0
