19

C	-0.468996	-0.00649	-1.552334
C	0.30692	0.005963	-0.233523
F	-1.850631	0.025683	-1.205364
H	1.375393	-0.0174	-0.475353
C	-0.20705	1.229943	-2.386227
H	0.846213	1.265759	-2.677121
H	-0.822992	1.207948	-3.290041
H	-0.426848	2.120385	-1.801314
C	-0.25284	-1.284185	-2.33558
H	0.799004	-1.372093	-2.620446
H	-0.507993	-2.141688	-1.716807
H	-0.865273	-1.274615	-3.242006
N	0.027062	-1.220302	0.508693
H	-0.931944	-1.164589	0.839004
H	0.626313	-1.194934	1.334215
N	0.070184	1.269381	0.459683
H	-0.890189	1.260396	0.790605
H	0.668418	1.255774	1.286223
Br	2.241606	0.035046	2.982274
