19

C	-0.55488	0.066601	-1.622451
C	0.253954	-0.037791	-0.325116
F	-0.152984	-0.998606	-2.453321
H	1.298498	-0.217629	-0.622692
C	-2.040749	-0.087651	-1.384204
H	-2.595755	0.054325	-2.316019
H	-2.370185	0.647565	-0.647678
H	-2.233695	-1.092246	-1.007098
C	-0.227289	1.335505	-2.388603
H	-0.621078	2.21302	-1.874053
H	0.855703	1.440459	-2.50258
H	-0.672213	1.280564	-3.385616
N	-0.157171	-1.188872	0.454321
H	0.583491	-1.348321	1.136245
H	-0.966251	-0.903361	0.999707
N	0.093375	1.202164	0.446752
H	0.5826	1.0263	1.327077
H	0.628612	1.941929	0.00054
Br	2.385457	-0.158641	2.738798
