19

C	-0.567383	-0.137224	-1.587399
C	0.213325	0.013071	-0.280443
F	-0.412474	1.084457	-2.298972
H	1.274318	0.099478	-0.541568
C	0.02357	-1.22353	-2.45818
H	-0.027732	-2.176237	-1.932351
H	1.072899	-0.998814	-2.664949
H	-0.516812	-1.286574	-3.40712
C	-2.052034	-0.31837	-1.35474
H	-2.582945	-0.289871	-2.310569
H	-2.236613	-1.281295	-0.875013
H	-2.420239	0.477063	-0.706713
N	0.066535	-1.19801	0.511282
H	-0.743011	-1.047124	1.107218
H	0.864666	-1.213907	1.145794
N	-0.26321	1.185837	0.451012
H	0.382371	1.297585	1.233034
H	-0.147559	1.999413	-0.145331
Br	2.495921	0.258179	2.581434
