14

C	0.0	0.0	0.0
C	-0.54599	0.523787	-1.360641
Cl	1.781875	0.0	0.0
H	0.321106	0.740664	-1.990041
H	-0.315165	-1.03512	0.127487
C	-0.41537	0.777386	1.166627
N	-0.655538	1.359784	2.156569
N	-1.241962	1.785026	-1.154509
H	-2.129256	1.575976	-0.691574
H	-1.467598	2.172432	-2.064823
N	-1.260673	-0.587513	-1.983546
H	-2.135938	-0.701685	-1.464549
H	-1.528404	-0.293845	-2.916505
Cl	-3.822216	0.0	0.0
