14

C	0.0	0.0	0.0
C	-0.492466	0.32016	-1.434903
Cl	1.790464	0.0	0.0
H	0.075529	-0.373034	-2.080639
H	-0.314663	-1.007658	0.278116
C	-0.463306	0.957405	0.998619
N	-0.769998	1.709917	1.845534
N	-0.212245	1.723643	-1.697836
H	0.768043	1.873587	-1.895331
H	-0.759715	1.979192	-2.507341
N	-1.88193	0.095251	-1.679588
H	-2.526418	0.530698	-1.017434
H	-2.123426	-0.887255	-1.681712
Cl	-4.608698	0.0	0.0
