14

C	0.0	0.0	0.0
C	-0.548967	0.154294	-1.446716
Cl	1.78167	0.0	0.0
H	0.31904	0.206281	-2.109804
H	-0.31125	-0.968623	0.389214
C	-0.416498	1.047003	0.931927
N	-0.661183	1.858113	1.744182
N	-1.249433	1.422675	-1.573002
H	-2.132524	1.342224	-1.064129
H	-1.491182	1.548848	-2.550183
N	-1.256691	-1.083822	-1.761704
H	-2.142507	-1.054943	-1.249267
H	-1.500787	-1.060214	-2.746842
Cl	-3.824801	0.0	0.0
