14

C	0.0	0.0	0.0
C	-0.537551	-0.366802	-1.416945
Cl	1.781636	0.0	0.0
H	0.337533	-0.540981	-2.049681
H	-0.317852	-0.772624	0.699194
C	-0.420757	1.310015	0.492501
N	-0.634286	2.386336	0.910182
N	-1.244907	0.770948	-1.992712
H	-2.104885	0.896679	-1.454601
H	-1.541207	0.507402	-2.927447
N	-1.231158	-1.642817	-1.280621
H	-2.122503	-1.45465	-0.813633
H	-1.461563	-1.977629	-2.210717
Cl	-3.789702	0.0	0.0
