14

C	0.0	0.0	0.0
C	-0.516215	-0.242874	-1.441975
Cl	1.792162	0.0	0.0
H	-0.118023	-1.2303	-1.724804
H	-0.325496	-0.813872	0.651449
C	-0.445395	1.283551	0.533337
N	-0.766571	2.309669	1.00307
N	-0.038034	0.843571	-2.280631
H	-0.580456	0.803468	-3.134652
H	0.942137	0.732491	-2.502927
N	-1.936033	-0.285429	-1.574666
H	-2.381235	-1.064011	-1.109308
H	-2.409762	0.533021	-1.206048
Cl	-4.701133	0.0	0.0
