13
Coordinates from ORCA-job run
  C   -0.34629370071490     -0.05180931479056      0.23169409963623
  C   1.13275683180200      0.21446590700207     -0.06403439826204
  Cl  -0.42168196201450     -1.51350777504228      1.33151661513681
  H   1.18304051993510      1.09674175663670     -0.70945087649180
  H   1.66613503762470      0.44403103512116      0.86265670786141
  N   -0.89645053357902      1.11822797312757      0.84164391412821
  H   -1.87774618102970      0.97593726966527      1.05083997997896
  H   -0.41714734289409      1.35293744090885      1.70347240877548
  N   -1.02816647370161     -0.42430081366377     -0.97829665405122
  H   -1.87490127240164     -0.94152585476402     -0.78253420524909
  H   -1.25782766169969      0.41771804264176     -1.49416610863484
  C   1.78567355149854     -0.90727613573790     -0.72919071983316
  N   2.35260918717482     -1.78263953110485     -1.26515076299496
