13
Coordinates from ORCA-job run
  C   -0.41590853552346     -0.19006503333005      0.28624411248058
  C   1.05515299276854     -0.59867169300053      0.15920769631945
  Cl  -1.13341213791297     -1.34253609972272      1.52894076784997
  H   1.57870875335818     -0.44221528104632      1.10631453224259
  H   1.09466199968537     -1.66098606754684     -0.08419994402227
  N   -0.50725595227018      1.17031313880311      0.69111554984763
  H   -1.47328192103710      1.46354669619551      0.76995419835842
  H   -0.03628788405719      1.34395220910227      1.57085792777184
  N   -1.10143923874316     -0.46616836814358     -0.94782480573063
  H   -2.10339577486902     -0.49221297019859     -0.80584006683497
  H   -0.87828990603462      0.26921207550505     -1.61085654909034
  C   1.70725555183848      0.16820764927248     -0.89959696406994
  N   2.21549205279713      0.77662374411021     -1.76431645512234
