13
Coordinates from ORCA-job run
  C   -0.42394494175682     -0.03376220490978      0.05784487039886
  C   0.90744766010397     -0.42790116619229     -0.58270101215510
  Cl  -0.56622062579812     -1.16696919901244      1.59804974112854
  H   0.91684018970074     -1.50019011057492     -0.78761340224351
  H   0.97451123887461      0.11645650023648     -1.52824504840151
  N   -0.42144337131245      1.32337039071787      0.43503449938295
  H   -1.30021140547113      1.59653072429322      0.85718279505864
  H   0.32547361125447      1.52218236358671      1.08880265408160
  N   -1.47988818622717     -0.31044522924718     -0.84408938323085
  H   -2.36513148704690      0.03363760689503     -0.49239713127333
  H   -1.56705828239992     -1.30703480669922     -0.99574467607616
  C   2.04738833792341     -0.08241276173072      0.25916527146716
  N   2.95123726215532      0.23653789263722      0.93571082186273
