13
Coordinates from ORCA-job run
  C   -0.35744564948655      0.10282906277385      0.21403885238796
  C   1.14838884032681      0.16001892861107     -0.04565699095893
  Cl  -0.57642320448448     -1.36362211846075      1.42985403604712
  H   1.68427714120469      0.25237089405551      0.90100889358163
  H   1.32974922867520      1.05474415594261     -0.64686402656592
  N   -0.77438488280460      1.30738610366585      0.83069084212654
  H   -1.78226402577827      1.34497946140291      0.92289252515120
  H   -0.37010160148702      1.39341217763904      1.75423988714569
  N   -1.06804824026901     -0.12821532269849     -0.98000816400485
  H   -2.06719205910542     -0.16426284703478     -0.82040432578371
  H   -0.78034774685071     -0.99454509436088     -1.41764440488513
  C   1.62829994860017     -1.01464455620882     -0.76497148999249
  N   1.98649225145920     -1.95045084532713     -1.37517563424911
