13
Coordinates from ORCA-job run
  C   -0.42038722989012     -0.03161843392454      0.28209971671403
  C   1.08004228320194      0.17255195954547     -0.00149804321881
  Cl  -0.50993339472119     -1.50441768599728      1.39531483536602
  H   1.18564720557124      1.12022024457153     -0.53832573183707
  H   1.62185245310775      0.24154090499203      0.94374901696069
  N   -1.04317697064808      1.03765975284139      1.00914397252846
  H   -0.61594717632440      1.17324446031656      1.91573468066066
  H   -0.99306659920967      1.88891887110941      0.46202682786594
  N   -1.12410845504248     -0.18474406894848     -0.93154291352240
  H   -0.78499101667228     -0.96301176068148     -1.48233885766519
  H   -2.11207692208253     -0.29746717195831     -0.74202121877595
  C   1.64882900203422     -0.89652811065990     -0.81621292641941
  N   2.06631682067560     -1.75634896120639     -1.49712935865697
