13
Coordinates from ORCA-job run
  C   -0.38497900679506     -0.27479777580968      0.39373779056423
  C   1.07657308053610     -0.64291491978206      0.10770803821763
  Cl  -0.98912140518071     -1.42661594150673      1.62817849293897
  H   1.11761374152608     -1.66909907779315     -0.26035385425808
  H   1.64954351544079     -0.56109438754417      1.03249604272612
  N   -0.41792147133482      1.03637246904633      1.00671807583709
  H   -1.36120861564051      1.26152536882155      1.30119654620370
  H   -0.11729671134079      1.73246117861577      0.33150371401756
  N   -1.16272141170822     -0.51399396843443     -0.80394404609703
  H   -0.88392010895527      0.14481500397273     -1.52467311866551
  H   -2.14932822434316     -0.38179514238395     -0.61288028389292
  C   1.62570009868464      0.26542518890924     -0.89651378036606
  N   1.99806651911095      1.03071200388856     -1.70517361722572
