13
Coordinates from ORCA-job run
  C   -0.46909400417987     -0.11738223712594      0.16744243431945
  C   0.85475181203112     -0.39708215858999     -0.57280430635767
  Cl  -0.49374820958736     -1.29263400792442      1.58732025469707
  H   0.84838089715466      0.20366535651029     -1.48735693511641
  H   0.92296976981210     -1.45132048449214     -0.85401652628585
  N   -0.61264315997624      1.18899536571154      0.73643771680717
  H   -0.57324778734012      1.88153526306612     -0.00257031556550
  H   0.10173585398774      1.37511110312947      1.42858192380161
  N   -1.53981163820457     -0.30375997765253     -0.74179602332158
  H   -2.41574201878459     -0.11315857921016     -0.27019094536035
  H   -1.55634447298008     -1.24153323080687     -1.12162432065056
  C   2.01096732629273     -0.03156235165352      0.23629239152658
  N   2.92382563177449      0.30012593903814      0.89428465150604
