13
Coordinates from ORCA-job run
  C   -0.44476322875863     -0.18907945763467      0.45481504130425
  C   0.98761408749423     -0.64290820977285      0.10223905979681
  Cl  -1.03696375647144     -1.38036390934525      1.67444319786721
  H   0.96516560606503     -1.67479613304298     -0.25459055962857
  H   1.61377767497976     -0.59995188352409      0.99603514388750
  N   -0.37956713730492      1.10023175574699      1.07073620638616
  H   -1.32120428711095      1.45493602176888      1.19057649965725
  H   0.14729663076012      1.74711116242792      0.49440567639658
  N   -1.39278946121644     -0.23019738843918     -0.63354421487766
  H   -1.49553166185865     -1.16387273811732     -1.01293418921300
  H   -1.09883171477052      0.40306319603047     -1.36945243954617
  C   1.53941539665199      0.22040959020480     -0.93915065021565
  N   1.91638185154040      0.95541799369730     -1.77357877181470
