13
Coordinates from ORCA-job run
  C   -0.41810680723716     -0.04914496022438      0.22153346174608
  C   0.98713712463604     -0.63167349856091      0.08121409546408
  Cl  -1.22490632322844     -1.23317143807752      1.52465831977911
  H   0.92126322806257     -1.67450020041157     -0.23780530321209
  H   1.48311194180048     -0.62984697776793      1.05465280233199
  N   -0.37593432969005      1.26566634940650      0.71858590956287
  H   0.06002121847379      1.30364697490298      1.62984026492548
  H   -1.29539313010218      1.68466484848140      0.77676241283241
  N   -1.11965768724828     -0.11500505631059     -0.99559822766634
  H   -2.03620153380575      0.30999961812588     -0.93489589226223
  H   -1.22125025180566     -1.06923897790506     -1.31338737988278
  C   1.78379964722719      0.12841584458962     -0.88080260597793
  N   2.45611690291746      0.71018747375158     -1.64575785764066
