13
Coordinates from ORCA-job run
  C   -0.41331067796765     -0.04091904191726      0.23205140007158
  C   0.98083218372582     -0.64308173305607      0.06615785526027
  Cl  -1.20122082260287     -1.19365211080649      1.57413354642104
  H   1.50010683507442     -0.63507455437234      1.02735171157150
  H   0.89415142153937     -1.68900273031682     -0.23735344608766
  N   -0.34292042130801      1.28103210936475      0.70687234405075
  H   0.11249968920446      1.32705821727649      1.60818401939078
  H   -1.25525467062755      1.71346189280109      0.77777017592788
  N   -1.14566660849050     -0.11709713673645     -0.96604887158985
  H   -1.26330603442990     -1.07452018834666     -1.26835209881930
  H   -2.05664614767864      0.31698993572467     -0.88837189181494
  C   1.76427012571115      0.09530081748587     -0.92322984489605
  N   2.42646512784989      0.66050452289922     -1.70916489948600
