13
Coordinates from ORCA-job run
  C   -0.38570347378908     -0.13779570584864      0.35102779462806
  C   1.00054074136775     -0.70384410949044      0.02660835455424
  Cl  -1.06708160186624     -1.24255577566343      1.65572671532980
  H   1.56923418672182     -0.76757796227990      0.95505909644396
  H   0.91432789784939     -1.70910473779810     -0.39490178951411
  N   -0.24684422340065      1.15591873701199      0.96460244927033
  H   -0.06030178719330      1.83831461038958      0.23671800627802
  H   -1.09386522623940      1.41585537687544      1.45431306274319
  N   -1.18927147972264     -0.12294508588451     -0.82223829228679
  H   -2.10683091057323      0.26043131965656     -0.63162076965661
  H   -1.29363901054424     -1.04366599567265     -1.23119124923877
  C   1.69971596667258      0.16959292564520     -0.91323025516153
  N   2.25871892071722      0.88837640305890     -1.65287312338980
