13
Coordinates from ORCA-job run
  C   -0.47319582717565     -0.10318746191237      0.33835972981123
  C   0.95450122938749     -0.63449205025586      0.10225926003011
  Cl  -1.18952615118346     -1.29780146141462      1.56180003810647
  H   0.90505384194673     -1.68529729549551     -0.19100650338959
  H   1.54006880521319     -0.58188397689765      1.02459733891725
  N   -0.41918762720685      1.22554858466590      0.80433224028981
  H   0.12801124676086      1.32589062119505      1.64825774423172
  H   -1.35455717688759      1.58579683879160      0.94375478423010
  N   -1.35317059143930     -0.12636550275055     -0.79134480984465
  H   -1.47824780986384     -1.06328326621958     -1.15015232544476
  H   -0.98731300491588      0.48273758821069     -1.51476783245964
  C   1.61366819855190      0.13227375538237     -0.95229808502864
  N   2.11489486681241      0.74006362670052     -1.82179157944941
