13
Coordinates from ORCA-job run
  C   -0.48791657826260     -0.13407223756425      0.30464949734676
  C   0.94473324325069     -0.65308736503873      0.07123561080953
  Cl  -1.15082759828820     -1.25371216668430      1.62525081289256
  H   0.92314306068935     -1.67539002156008     -0.31709029078424
  H   1.47919863919745     -0.67901132399873      1.02324200956179
  N   -0.60373553768253      1.19513618553718      0.82514375723125
  H   -0.21652724268493      1.85245529849260      0.15716304133541
  H   -0.14196264425762      1.28919982721166      1.71963752486078
  N   -1.21686593125104     -0.18068532478108     -0.90036025458941
  H   -2.15297778317244      0.17611364148441     -0.75710550322747
  H   -1.24914525299216     -1.10570618011636     -1.30656195352436
  C   1.65565546732043      0.21997897958234     -0.85982409350362
  N   2.21922815813360      0.94978068743536     -1.58538015840897
