13
Coordinates from ORCA-job run
  C   -0.42583273632275     -0.16591298988307      0.28745255737329
  C   1.06124271836236      0.06279136507751     -0.03342538642583
  Cl  -0.53961001272022     -1.73743354908364      1.16754199353600
  H   1.16781851879045      1.06035476173354     -0.47667462889627
  H   1.62782999432267      0.05654997602684      0.90036914470626
  N   -0.98506152528723      0.82283356889970      1.18581101370001
  H   -0.90378449015521      1.74524551894286      0.77200398045252
  H   -0.52458731726604      0.81631465565149      2.08830688030840
  N   -1.15804769704721     -0.26865402722615     -0.93167290408706
  H   -2.15142252763437     -0.24349417369203     -0.73798303647460
  H   -0.91003808883638      0.46550045873360     -1.58283587738794
  C   1.62784529678270     -0.92315843093128     -0.94975560996679
  N   2.11464786701123     -1.69193713424936     -1.69013812683799
