13
Coordinates from ORCA-job run
  C   -0.39335141119455      0.09083954711996     -0.11478861557087
  C   0.94032897082588     -0.66232012735429     -0.10340902493227
  Cl  -0.66162481328171      0.68598949324504     -1.82556288219032
  H   1.09644094525854     -1.03447008649216      0.91374422687424
  H   0.89079821034799     -1.52495246046210     -0.77371565069281
  N   -1.41708035398902     -0.80889944117748      0.31608150810835
  H   -1.48241441740306     -1.62073082627895     -0.28731998569057
  H   -2.31598662163724     -0.34126535488372      0.32135418417581
  N   -0.29940524205876      1.26591173798080      0.70876431836756
  H   -0.43402150091530      0.99593025860771      1.67666568480191
  H   -0.99318755132653      1.95529347738420      0.45125024787596
  C   2.06673208305281      0.18088477780635     -0.48741225476277
  N   3.00177170232095      0.81778900450465     -0.79565175636422
