13
Coordinates from ORCA-job run
  C   -0.40990176530210     -0.18557008703407      0.29820964573479
  C   1.04843082050126     -0.61925552841400      0.11854572653893
  Cl  -1.10682496910091     -1.33610394202943      1.55396828537805
  H   1.60565600889304     -0.48179895944404      1.04930394387116
  H   1.06066515822900     -1.67957307673844     -0.13650257545139
  N   -0.46282136921204      1.17253964908847      0.71759945747544
  H   -1.42020191465241      1.48246738870475      0.83022006329034
  H   0.03958649999299      1.32958608875321      1.58298495516289
  N   -1.14100071733124     -0.43781988866978     -0.91462653255586
  H   -2.13811240723332     -0.44600837520492     -0.73981080455696
  H   -0.92599922526472      0.29902370262837     -1.57864529279648
  C   1.67938489023157      0.14727875967409     -0.95355414013449
  N   2.17013899024890      0.75523426868580     -1.82869273195641
