13
Coordinates from ORCA-job run
  C   -0.40106827223799     -0.13237732708074      0.33668106368096
  C   1.04666167512938      0.17252782146569     -0.08528588599403
  Cl  -0.32265334500326     -1.42104965480028      1.59746302370524
  H   1.03137303742434      1.02680857010136     -0.77284105058606
  H   1.61565915663389      0.47259077312336      0.79741110798071
  N   -1.07084922019452      0.98656174231532      0.96652547029448
  H   -1.10658747393276      1.76964551032912      0.32300045307866
  H   -0.60698872861908      1.27251586815813      1.82085748640381
  N   -1.12095145747133     -0.63386193692526     -0.78755992942425
  H   -2.10921661118533     -0.67359354781106     -0.57125190699729
  H   -0.96648846448609     -0.07105831047392     -1.61459780368276
  C   1.72075365012682     -0.94658832345066     -0.73740079590430
  N   2.29035605381593     -1.82112118495107     -1.27300123255519
