13
Coordinates from ORCA-job run
  C   -0.41081348094679     -0.14177844132412      0.12356175401572
  C   0.96261592462421     -0.54062694677308     -0.42583146543703
  Cl  -0.59467279291388     -0.98916415856740      1.74411766320912
  H   1.01439904097539     -0.19843671733586     -1.46353053753584
  H   1.03654343573090     -1.62804105072318     -0.41632355286089
  N   -0.50509586712915      1.27333465728062      0.22718462615714
  H   -1.40716471379795      1.54614085564059      0.59780621759686
  H   0.22290022674714      1.66637535446242      0.81254750148613
  N   -1.42196886292879     -0.70782126126159     -0.73812365878798
  H   -2.28706707922459     -0.84952884599952     -0.23337081704491
  H   -1.58652205235353     -0.05591534164393     -1.49758447349275
  C   2.06071396058904      0.05476698191438      0.32845078311870
  N   2.91813226062802      0.56969491433066      0.94209595957573
