13
Coordinates from ORCA-job run
  C   -0.41174170407954     -0.14738070223638      0.11558832837732
  C   0.95074605355958     -0.51342640541289     -0.48172680341965
  Cl  -0.59116725367363     -1.13050925000048      1.65792490025984
  H   0.99581402439790     -0.08357670767080     -1.48668149397734
  H   1.01197473270194     -1.59847199948606     -0.56639557969176
  N   -0.48604599301258      1.25444475554458      0.34352616984087
  H   0.25172432346213      1.58505453976202      0.95523405838202
  H   -1.38158657826726      1.50511765543718      0.74461996597709
  N   -1.43852010468194     -0.62362314433394     -0.78082500970999
  H   -2.30182311039867     -0.79435097193066     -0.28166078993516
  H   -1.59880892466652      0.09218327718509     -1.48143435418026
  C   2.06412238519350      0.00214088747144      0.30873322234792
  N   2.93531214946509      0.45239806567089      0.95309738572909
