13
Coordinates from ORCA-job run
  C   -0.42473370277666      0.03362841178329     -0.05063250397064
  C   0.91090708473520     -0.70640970943451     -0.13476988739204
  Cl  -0.59771927012797      0.90100990780895     -1.75133968568521
  H   0.91296333780676     -1.36954169028988     -1.00207993132266
  H   0.99396921868642     -1.30781488560342      0.77420840289827
  N   -1.47160237400132     -0.90391583106017      0.12225823543991
  H   -2.35781263213732     -0.44195819124415      0.28635601477047
  H   -1.56703995812228     -1.48737362290997     -0.69881349600764
  N   -0.41364518916900      0.97943716745124      0.99344745458443
  H   0.32570445166904      1.65908162801350      0.86587648911349
  H   -1.29550617165376      1.47237130909913      1.06084084919665
  C   2.04346177801378      0.20881527747715     -0.21850420676364
  N   2.94205342707713      0.96267022890884     -0.24784773486139
