13
Coordinates from ORCA-job run
  C   -0.38242447111436     -0.28392642711029      0.39038051661469
  C   1.06065131463996     -0.67631699682349      0.04782693279596
  Cl  -0.98684126464217     -1.47787305023161      1.58394797938874
  H   1.65877154081008     -0.65593806153034      0.95993237855027
  H   1.06385738720352     -1.68372072016131     -0.37087451476430
  N   -0.36286072152805      0.99622216158231      1.06687510689977
  H   -1.29108670712590      1.23001521816114      1.40012116815389
  H   -0.06426729427034      1.71676246184898      0.41667334583497
  N   -1.19677414015605     -0.44311171776231     -0.79592931399524
  H   -0.91385782431894      0.23804514481847     -1.49374402265265
  H   -2.17338785974078     -0.28805179386913     -0.57345514461735
  C   1.60843534255583      0.26608856014483     -0.92527973936523
  N   1.97978469768722      1.06080522093276     -1.70547469284352
