13
Coordinates from ORCA-job run
  C   -0.46657223452427     -0.06025705218672      0.18897423474688
  C   0.84521113591688     -0.48168622976504     -0.49991839682221
  Cl  -0.56329011485616     -1.08940781026674      1.72200798389837
  H   0.86893335868211     -0.00007125343401     -1.48220844537840
  H   0.85030127511816     -1.56442865939855     -0.63898651885259
  N   -0.46019878418434      1.33004733772136      0.42953965024814
  H   0.32197265894842      1.62306858773536      1.00096124046362
  H   -1.33171908440148      1.60656891444213      0.86383281206949
  N   -1.65697983321452     -0.36397468353471     -0.55253225578008
  H   -1.75131631280808     -1.35642802472468     -0.72064611420935
  H   -1.64682841115752      0.14581699045170     -1.42810678204364
  C   2.02982794471294     -0.07784308864746      0.25095599462548
  N   2.96065840176786      0.28759497160738      0.86512659703431
