13
Coordinates from ORCA-job run
  C   -0.49689693538503      0.04049881608779     -0.11494258648216
  C   0.89267853848439     -0.62668757422112     -0.16285765364084
  Cl  -0.83147758638841      0.59821789853605     -1.83985449983729
  H   1.07406152945681     -1.07090796179639      0.82060276702292
  H   0.91056215409389     -1.42501334116928     -0.90950761697547
  N   -1.43380079610588     -0.90763937558614      0.36623664528018
  H   -2.35019578431984     -0.47842287329959      0.41129118420858
  H   -1.47422722067537     -1.73168731026856     -0.21955358392890
  N   -0.61041716656611      1.20909833397411      0.70487708716466
  H   -0.40726659163328      0.96345000689687      1.66683982652304
  H   0.00942432164486      1.94584420858874      0.39325427283618
  C   1.94362898851252      0.34012610761564     -0.45550994684176
  N   2.77392654888144      1.14312306464189     -0.66087589532915
