13
Coordinates from ORCA-job run
  C   -0.42874581010016     -0.18456368648643      0.47127202986238
  C   0.97737838321722     -0.66504882334262      0.05360056158007
  Cl  -0.99230657823694     -1.37377876110523      1.70652349173773
  H   1.64076477218746     -0.64682395803433      0.92097118493707
  H   0.91676650273397     -1.69166105197011     -0.31378787600342
  N   -0.31032647888269      1.09786120935584      1.09336224594428
  H   -1.23850451385765      1.46962905114310      1.25804201061129
  H   0.20282235714842      1.73924916398426      0.49891388609069
  N   -1.42364108932063     -0.19736899995613     -0.57519284092546
  H   -1.55994878777608     -1.12518634426839     -0.95800535465531
  H   -1.14960248450640      0.43748535337069     -1.31731343582527
  C   1.50348207066540      0.20000213291400     -0.99961355902888
  N   1.86086165672808      0.93820471439534     -1.83977234432518
