13
Coordinates from ORCA-job run
  C   -0.43874475301086     -0.20032391068631      0.45594141057457
  C   0.97512327765085     -0.66780417115466      0.05063374249818
  Cl  -1.03000307728945     -1.43345580070309      1.63399216118620
  H   1.62154429017680     -0.67785765563163      0.93085364604317
  H   0.92173992631096     -1.68195882573030     -0.35085916795777
  N   -0.33193641971587      1.05792147743633      1.12741584779492
  H   0.19683758379934      1.71932980728650      0.56950205210424
  H   -1.26274702927731      1.42667595242413      1.28451992009351
  N   -1.41116731584928     -0.17203906849511     -0.61109321347026
  H   -1.12122436765342      0.49053555760104     -1.32246065374816
  H   -1.53988680820566     -1.08445657997990     -1.03205173220343
  C   1.52262561530352      0.22988258995381     -0.96365997023628
  N   1.89783907776038      0.99355062767919     -1.77273404267889
