13
Coordinates from ORCA-job run
  C   -0.47981637308086     -0.08661780084773      0.15737104392564
  C   0.87688225520026     -0.48924255979566     -0.45636394371529
  Cl  -0.60266745964656     -1.03001460670286      1.73527041362244
  H   0.94196621247560     -1.57478966188264     -0.56781046282691
  H   0.93006036319769     -0.03724047397653     -1.45137902837199
  N   -0.62936846899491      1.29316967800290      0.51157493687093
  H   0.05010771186685      1.57510661768016      1.20668788592188
  H   -0.53691990688800      1.86412532817636     -0.32083812524249
  N   -1.50248588092376     -0.39856782627244     -0.77251237389145
  H   -2.39897301860156     -0.12792911622650     -0.38654579474814
  H   -1.51736081201113     -1.38338465745231     -1.00512263751312
  C   1.99410463371043     -0.01384172641191      0.35004249833062
  N   2.87547074369594      0.40922680570915      0.99862558763787
