17

C	0.0	0.0	0.0
C	-0.356947	-0.284131	-1.55499
Cl	1.774898	0.0	0.0
H	0.577168	-0.677574	-1.963325
C	-0.482143	1.253739	0.558395
N	-0.625655	2.346582	0.968795
N	-0.382531	-1.137533	0.927846
O	-0.245529	-2.269662	0.475664
O	-0.688567	-0.861635	2.077805
C	-0.663772	1.064465	-2.191458
H	0.112546	1.810971	-2.000818
H	-0.766407	0.916448	-3.268568
H	-1.612569	1.406489	-1.777523
N	-1.394388	-1.21734	-1.891434
H	-1.1134	-2.133898	-1.568256
H	-2.180701	-0.903916	-1.294633
F	-2.455618	0.0	0.0
