17

C	0.0	0.0	0.0
C	-0.34348	0.026677	-1.584904
Cl	1.76888	0.0	0.0
H	0.588394	-0.304249	-2.052721
C	-0.490938	1.116573	0.79056
N	-0.62	2.112437	1.403772
N	-0.38327	-1.300217	0.6819
O	-0.66779	-1.262346	1.86917
O	-0.260099	-2.318887	0.008742
C	-0.607867	1.480177	-1.953061
H	-0.699287	1.543456	-3.039227
H	-1.550557	1.774235	-1.490799
H	0.18908	2.152355	-1.617883
N	-1.39237	-0.801162	-2.116002
H	-1.117223	-1.767187	-1.994629
H	-2.175538	-0.622018	-1.467028
F	-2.426717	0.0	0.0
