17

C	0.0	0.0	0.0
C	-0.523081	0.051323	-1.479792
Cl	1.751273	0.0	0.0
H	-1.319626	-0.687065	-1.481223
C	-0.464562	1.09264	0.848469
N	-0.596707	2.012331	1.568431
N	-0.402014	-1.323444	0.647788
O	-0.577242	-1.332365	1.856553
O	-0.405727	-2.302643	-0.087356
C	0.501669	-0.284834	-2.550755
H	1.264464	0.491339	-2.641586
H	0.977651	-1.248549	-2.370084
H	-0.033578	-0.352426	-3.504439
N	-1.066759	1.391579	-1.688932
H	-1.929202	1.32133	-1.131978
H	-1.33333	1.460463	-2.666596
F	-2.496718	0.0	0.0
