17

C	0.0	0.0	0.0
C	-0.351382	-0.20289	-1.568652
Cl	1.775466	0.0	0.0
H	0.58226	-0.58177	-1.992948
C	-0.485923	1.222274	0.62136
N	-0.620991	2.293001	1.089308
N	-0.382603	-1.184519	0.86708
O	-0.252565	-2.291574	0.354914
O	-0.679873	-0.968545	2.031902
C	-0.645553	1.178395	-2.137374
H	-1.597406	1.503501	-1.717219
H	-0.736115	1.08745	-3.221874
H	0.130722	1.910764	-1.898829
N	-1.392317	-1.111616	-1.959861
H	-1.113641	-2.045344	-1.68783
H	-2.178714	-0.833269	-1.347408
F	-2.443994	0.0	0.0
