17

C	0.0	0.0	0.0
C	-0.44362	-0.109857	-1.490936
Cl	1.759799	0.0	0.0
H	-1.533697	-0.173062	-1.361429
C	-0.472699	1.25059	0.592304
N	-0.626344	2.304182	1.092551
N	-0.457564	-1.141651	0.891895
O	-0.576392	-0.891562	2.083182
O	-0.548323	-2.252956	0.38556
C	0.110868	-1.282396	-2.285185
H	-0.297758	-1.204292	-3.30046
H	-0.196915	-2.233645	-1.858574
H	1.20454	-1.262857	-2.356143
N	-0.065138	1.17037	-2.091074
H	-0.867216	1.599302	-2.529841
H	0.673258	1.050765	-2.772131
F	-2.497456	0.0	0.0
