17

C	0.0	0.0	0.0
C	-0.352397	0.070712	-1.58058
Cl	1.768914	0.0	0.0
H	0.579815	-0.234679	-2.063572
C	-0.491579	1.094266	0.823198
N	-0.615018	2.066779	1.473506
N	-0.385074	-1.318007	0.646623
O	-0.684117	-1.308807	1.830524
O	-0.254208	-2.318988	-0.050537
C	-0.639099	1.530493	-1.902198
H	-1.587201	1.785885	-1.427912
H	-0.735296	1.627506	-2.985618
H	0.143605	2.206059	-1.545816
N	-1.397753	-0.751314	-2.121987
H	-2.183367	-0.576562	-1.470926
H	-1.126445	-1.719659	-2.011082
F	-2.449346	0.0	0.0
