17

C	0.0	0.0	0.0
C	-0.407332	0.234065	-1.499849
Br	1.976667	0.0	0.0
H	0.19035	1.10067	-1.824234
C	-0.355734	1.195696	0.763319
N	-0.574221	2.195074	1.343498
C	-0.578768	-1.257551	0.614359
H	-0.231123	-1.38098	1.641901
H	-0.298019	-2.117298	0.0092
H	-1.670589	-1.155247	0.619192
N	-1.781761	0.560223	-1.722469
H	-2.449621	-0.093834	-1.315617
H	-2.024008	1.461402	-1.330603
N	-0.111322	-0.981066	-2.245982
H	0.88108	-1.048127	-2.434103
H	-0.609951	-0.896575	-3.123387
Br	-4.554359	0.0	0.0
