17

C	0.0	0.0	0.0
C	-0.422694	-0.057548	-1.504817
Br	1.974679	0.0	0.0
H	-0.010812	-1.014418	-1.870375
C	-0.387135	1.278602	0.591806
N	-0.672014	2.284695	1.128371
C	-0.545185	-1.166404	0.802538
H	-1.63581	-1.074338	0.841141
H	-0.151825	-1.157514	1.819864
H	-0.269316	-2.10808	0.320767
N	0.102135	1.112505	-2.19163
H	1.093184	1.024644	-2.37056
H	-0.394346	1.16838	-3.072063
N	-1.833591	-0.06223	-1.740803
H	-2.308331	0.72679	-1.311245
H	-2.315574	-0.876263	-1.382932
Br	-4.627416	0.0	0.0
