17

C	0.0	0.0	0.0
C	-0.494477	0.005316	-1.518181
Br	1.961577	0.0	0.0
H	0.39811	0.218153	-2.112586
C	-0.332021	1.284004	0.621007
N	-0.550392	2.328365	1.115412
C	-0.525494	-1.141	0.856369
H	-0.223515	-2.090795	0.417973
H	-0.140993	-1.058558	1.87512
H	-1.619879	-1.073124	0.880324
N	-1.487582	0.997682	-1.860071
H	-1.175457	1.933709	-1.627084
H	-2.358498	0.814731	-1.353274
N	-0.941009	-1.33815	-1.842932
H	-1.142347	-1.33072	-2.837195
H	-1.846301	-1.469182	-1.390598
Br	-4.154115	0.0	0.0
