17
Coordinates from ORCA-job run
  C   1.03123128411850      0.02457645647306     -0.01305150534639
  C   -0.49606696365411      0.05345511624854     -0.20228755844860
  Cl  1.54701506323926      0.72143529218532      1.52029438929398
  H   -0.64873437173159     -0.35989924210335     -1.20615341850058
  C   1.71353496153191      0.70777500143681     -1.10693455004076
  N   2.22423086761158      1.29391424807208     -1.98831738555691
  N   1.45221266414452     -1.46361433852336     -0.07966156008049
  O   1.33940153896835     -1.95121253659294     -1.19723888834804
  O   1.77498770440422     -2.03083329283689      0.94880238719206
  C   -1.02014292120915      1.48589132521767     -0.17457679143124
  H   -0.94134415587217      1.91510358304607      0.82567017710478
  H   -2.07431670794641      1.48571170429508     -0.46007580345672
  H   -0.48487486827685      2.13177556696262     -0.87411024162768
  C   -1.20686186228354     -0.83732180457188      0.81181976544168
  H   -2.28502945237620     -0.76157089637973      0.65544474531353
  H   -0.99061300261241     -0.52554084978064      1.83553402309319
  H   -0.93262977805589     -1.88864533314847      0.70484221539819
