17
Coordinates from ORCA-job run
  C   1.01751657670230      0.07966772370086      0.14545462898278
  C   -0.46524774620902      0.04850361140659     -0.26713129646245
  Cl  1.25841608967185      0.61764129913291      1.80535236651336
  H   -0.44341322724399     -0.25572727246743     -1.32016152212356
  C   1.80019597413465      0.92199913700079     -0.75282011574039
  N   2.39034721772512      1.63432226969415     -1.47800275448286
  N   1.54798397510111     -1.36534243837501     -0.01822733672675
  O   1.76315899168916     -2.03061839035475      0.97913456509166
  O   1.63057702984794     -1.72363850090739     -1.18651789400422
  C   -1.08568707808908      1.43900557442152     -0.16977777817747
  H   -2.09004768472640      1.41248104393716     -0.59797233573111
  H   -1.16984793002295      1.76078983391079      0.86974619161214
  H   -0.50717447510942      2.18462751376705     -0.71980215233880
  C   -1.25089671799806     -0.98746582815957      0.53051237931252
  H   -0.88514756511026     -2.00267447463884      0.36561718896622
  H   -2.29586047996053     -0.95946077003834      0.21474096861385
  H   -1.21487295040243     -0.77611033203050      1.60085489669509
