15

C	0.0	0.0	0.0
C	-0.196737	0.166785	-1.54121
Cl	1.851029	0.0	0.0
H	0.358743	1.07028	-1.812975
H	0.365639	-0.675054	-1.955894
C	-0.328504	1.241997	0.735311
N	-0.521053	2.216744	1.363277
N	-0.623177	-1.16359	0.49026
H	-1.670423	-0.862815	0.322259
H	-0.487115	-1.202433	1.497045
C	-1.563434	0.207161	-2.210167
H	-2.204422	0.979462	-1.802637
H	-2.1038	-0.724533	-2.076554
H	-1.375919	0.376279	-3.280398
F	-2.820968	0.0	0.0
