15

C	0.0	0.0	0.0
C	-0.47318	0.014093	-1.44153
Cl	1.856449	0.0	0.0
H	-1.55415	0.22234	-1.278537
H	0.06065	0.81	-1.968033
C	-0.433897	1.187084	0.740742
N	-0.629124	2.121428	1.429177
N	-0.387409	-1.195394	0.682304
H	0.224025	-1.946026	0.391838
H	-0.326839	-1.075831	1.684281
C	-0.306129	-1.336118	-2.116204
H	-1.033091	-2.017614	-1.672066
H	0.703092	-1.75539	-2.017326
H	-0.525064	-1.245038	-3.184009
F	-2.688431	0.0	0.0
