15

C	0.0	0.0	0.0
C	-0.460197	-0.065272	-1.45832
Cl	1.797312	0.0	0.0
H	-0.016152	-0.977873	-1.869133
H	-1.547448	-0.175544	-1.361659
C	-0.351641	1.313869	0.593081
N	-0.553922	2.371217	1.065299
N	-0.561777	-1.106409	0.709415
H	-1.597287	-0.887488	0.558213
H	-0.357595	-0.99327	1.698389
C	-0.110544	1.155622	-2.296042
H	0.960658	1.375106	-2.291021
H	-0.415309	0.991776	-3.333312
H	-0.645798	2.034365	-1.92957
F	-2.792173	0.0	0.0
