15

C	0.0	0.0	0.0
C	-0.541747	-0.180808	-1.419259
Br	1.973959	0.0	0.0
H	-1.629147	-0.097118	-1.295771
H	-0.194921	0.656148	-2.037904
C	-0.341832	1.340067	0.484083
N	-0.550404	2.430631	0.868995
C	-0.501601	-1.076589	0.945756
H	-0.102457	-0.927595	1.950448
H	-1.594402	-1.00519	0.96022
H	-0.19657	-2.04807	0.558539
N	-0.19289	-1.490498	-1.951039
H	0.58616	-1.424013	-2.59128
H	-0.988106	-1.875446	-2.442053
Cl	-3.813606	0.0	0.0
