14

C	0.0	0.0	0.0
C	-0.24522	0.180266	-1.50729
Br	1.956339	0.0	0.0
H	0.4562	-0.462025	-2.040131
H	-0.058264	1.22614	-1.742369
N	-0.413862	1.184858	0.847033
O	-0.478268	2.270345	0.291222
O	-0.51912	0.973267	2.044431
C	-0.442344	-1.256537	0.575507
N	-0.521514	-2.338171	1.031519
N	-1.558978	-0.175201	-2.122611
O	-2.208498	0.740304	-2.616899
O	-1.77785	-1.371376	-2.275493
F	-2.202779	0.0	0.0
