16

C	0.0	0.0	0.0
C	-0.481188	0.065213	-1.454438
Br	1.957179	0.0	0.0
H	-1.571832	0.182002	-1.311882
C	-0.319072	1.275536	0.681224
N	-0.498932	2.234991	1.337173
N	-0.5946	-1.142851	0.616342
H	-0.391856	-1.134357	1.612028
H	-1.634017	-0.926444	0.502172
N	-0.117982	-1.185592	-2.127892
H	-0.159214	-1.921495	-1.426789
H	-0.849276	-1.392315	-2.801314
N	0.041907	1.239061	-2.120676
H	0.918493	0.980953	-2.561485
H	-0.605566	1.524372	-2.844539
H	-3.006276	0.0	0.0
