16

C	0.0	0.0	0.0
C	-0.375971	0.248596	-1.52446
Br	2.00468	0.0	0.0
H	0.562593	0.178131	-2.086427
C	-0.348056	1.104756	0.910152
N	-0.442006	1.91975	1.750555
N	-0.41388	-1.301096	0.464161
H	-0.084458	-1.41257	1.424049
H	-1.449911	-1.172395	0.504846
N	-0.887081	1.596919	-1.653224
H	-1.095779	1.742619	-2.635235
H	-1.787201	1.611298	-1.16376
N	-1.273449	-0.751132	-2.080002
H	-0.832052	-1.658705	-1.934942
H	-2.096194	-0.726679	-1.470194
H	-2.740917	0.0	0.0
