16

C	0.0	0.0	0.0
C	-0.517693	0.097606	-1.43868
Br	1.957139	0.0	0.0
H	-1.598027	0.25927	-1.254817
C	-0.29841	1.273234	0.697285
N	-0.464185	2.237214	1.348968
N	-0.605911	-1.138024	0.612334
H	-1.646025	-0.913022	0.495052
H	-0.406665	-1.133448	1.608685
N	-0.251551	-1.164324	-2.135219
H	-1.042745	-1.340921	-2.747269
H	-0.275433	-1.899348	-1.432883
N	0.033678	1.251062	-2.117936
H	0.857931	0.945763	-2.624046
H	-0.64241	1.592473	-2.789143
H	-3.011495	0.0	0.0
