14

C	-0.464252	-0.035521	-1.416232
C	0.0	0.0	0.0
Cl	-2.204156	-0.316893	-1.638036
H	1.091855	0.0	0.0
H	-0.304733	-0.928972	0.486521
N	-0.056057	1.263693	-2.11777
O	1.139211	1.354416	-2.349154
O	-0.921826	2.103728	-2.32021
N	0.215174	-1.170753	-2.182997
O	0.300518	-1.033376	-3.396176
O	0.533785	-2.151431	-1.529473
C	-0.557318	1.136031	0.69922
N	-0.982159	2.058491	1.292359
F	2.47288	0.0	0.0
