14

C	-0.408192	-0.013494	-1.434241
C	0.0	0.0	0.0
Cl	0.229843	-1.425735	-2.240969
H	1.093926	0.0	0.0
H	-0.29905	-0.954844	0.437968
N	-1.931177	-0.036834	-1.686573
O	-2.308217	0.285057	-2.806751
O	-2.634383	-0.429294	-0.765924
N	0.043057	1.268375	-2.143386
O	0.934567	1.216013	-2.972323
O	-0.564645	2.264292	-1.765916
C	-0.561764	1.082678	0.778773
N	-0.964697	1.962571	1.446312
F	2.481943	0.0	0.0
