14

C	-0.478589	0.044292	-1.411013
C	0.0	0.0	0.0
Cl	-2.225944	0.287703	-1.61214
H	1.091491	0.0	0.0
H	-0.301851	0.92591	0.494436
N	0.172354	1.196785	-2.175596
O	0.54452	2.152342	-1.511438
O	0.18967	1.094041	-3.396188
N	-0.049163	-1.236531	-2.131463
O	-0.889442	-2.110541	-2.292313
O	1.137688	-1.280116	-2.418176
C	-0.554211	-1.136954	0.700634
N	-0.993288	-2.046528	1.303134
F	2.474495	0.0	0.0
