15

C	0.0	0.0	0.0
C	-0.347254	0.354349	-1.450918
Cl	1.851029	0.0	0.0
H	-0.043963	1.39863	-1.587062
H	0.30017	-0.246682	-2.091542
N	-0.575408	0.884138	0.939245
H	-0.986478	0.408884	1.727591
H	-1.285788	1.456687	0.507807
C	-0.316066	-1.409081	0.283321
N	-0.516105	-2.542503	0.520086
C	-1.8	0.13599	-1.827112
H	-2.510482	0.733065	-1.262403
H	-1.93245	0.370082	-2.887686
H	-2.105491	-0.896252	-1.668296
Br	-4.759481	0.0	0.0
