15

C	0.0	0.0	0.0
C	-0.464443	0.155591	-1.45608
Cl	1.802047	0.0	0.0
H	0.058143	-0.587721	-2.06593
H	-1.533094	-0.080501	-1.445398
N	-0.49867	0.957966	0.947366
H	-1.518168	0.82664	0.960832
H	-0.311575	1.889256	0.592928
C	-0.354816	-1.353082	0.473158
N	-0.573075	-2.43994	0.859595
C	-0.262754	1.558478	-2.012404
H	-0.501632	1.567944	-3.078292
H	0.767309	1.907097	-1.894184
H	-0.941154	2.264514	-1.528858
Br	-3.73415	0.0	0.0
