15

C	0.0	0.0	0.0
C	-0.48019	0.010267	-1.444523
Cl	1.851162	0.0	0.0
H	-1.570873	0.111775	-1.371651
H	-0.063623	0.914531	-1.905136
N	-0.51119	1.091884	0.708513
H	-0.434624	1.966672	0.213328
H	-0.209743	1.153616	1.668303
C	-0.334348	-1.253492	0.69251
N	-0.538587	-2.251544	1.276228
C	-0.095683	-1.225982	-2.242832
H	0.983644	-1.393513	-2.244071
H	-0.425244	-1.113467	-3.27824
H	-0.587696	-2.110457	-1.83358
Br	-3.93745	0.0	0.0
