15

C	0.0	0.0	0.0
C	-0.461562	0.296163	-1.431495
Cl	1.798749	0.0	0.0
H	-0.016914	1.261084	-1.70215
H	-1.545618	0.418229	-1.355142
N	-0.489336	0.920234	0.992582
H	-0.353263	1.860745	0.632952
H	-1.503469	0.762897	1.035638
C	-0.368787	-1.37091	0.394223
N	-0.571062	-2.494761	0.667472
C	-0.124032	-0.76972	-2.46396
H	-0.462937	-0.447073	-3.451402
H	-0.63873	-1.703045	-2.226482
H	0.949212	-0.965406	-2.517831
Br	-3.740266	0.0	0.0
