15

C	0.0	0.0	0.0
C	-0.532107	0.360966	-1.379518
Cl	1.855172	0.0	0.0
H	-0.047379	-0.289327	-2.111763
H	-1.603479	0.122911	-1.325565
N	-0.511842	0.837312	0.999264
H	-0.341248	1.816176	0.831999
H	-0.266795	0.560181	1.937666
C	-0.317698	-1.40155	0.315753
N	-0.494667	-2.536038	0.5606
C	-0.35188	1.829508	-1.739185
H	-1.027269	2.45205	-1.148516
H	-0.618671	1.983484	-2.786999
H	0.679928	2.165449	-1.600509
Br	-4.027504	0.0	0.0
