15

C	0.0	0.0	0.0
C	-0.485407	0.462719	-1.371242
Cl	1.79768	0.0	0.0
H	-0.04051	1.450062	-1.526757
H	-1.56933	0.578323	-1.276588
N	-0.493665	0.896318	1.006352
H	-1.516207	0.890869	0.906122
H	-0.274439	0.530918	1.927673
C	-0.342438	-1.422302	0.235196
N	-0.543002	-2.564282	0.428955
C	-0.167953	-0.488355	-2.514748
H	0.901445	-0.698609	-2.593605
H	-0.70209	-1.432185	-2.386967
H	-0.498926	-0.04809	-3.458875
Br	-3.756699	0.0	0.0
