15

C	0.0	0.0	0.0
C	-0.464948	0.14914	-1.456878
Cl	1.802818	0.0	0.0
H	0.060235	-0.594297	-2.063933
H	-1.533249	-0.089819	-1.450216
N	-0.498401	0.962512	0.943154
H	-0.304955	1.89175	0.585859
H	-1.519277	0.834933	0.951477
C	-0.356614	-1.350584	0.477561
N	-0.577762	-2.436177	0.865998
C	-0.265421	1.549946	-2.018033
H	-0.940988	2.258764	-1.535173
H	-0.507438	1.555748	-3.083464
H	0.765294	1.898167	-1.905521
Br	-3.732066	0.0	0.0
