15

C	0.0	0.0	0.0
C	-0.466079	0.197417	-1.452081
Cl	1.796929	0.0	0.0
H	0.073914	-0.511876	-2.086235
H	-1.529317	-0.06098	-1.455124
N	-0.497743	0.929161	0.975863
H	-1.517822	0.804169	0.98549
H	-0.304811	1.871305	0.652718
C	-0.355208	-1.368452	0.429606
N	-0.535386	-2.484717	0.746406
C	-0.291355	1.624892	-1.950522
H	-0.507765	1.671319	-3.020549
H	-0.998439	2.291055	-1.453263
H	0.726716	1.994836	-1.797119
Br	-3.730503	0.0	0.0
