17

C	-0.307782	0.027168	-1.490141
C	0.0	0.0	0.0
Cl	-2.06692	0.424697	-1.849921
H	1.105234	0.0	0.0
N	0.52682	1.027064	-2.088578
H	1.475176	0.897412	-1.710346
H	0.539027	0.932344	-3.096426
C	-0.124517	-1.319679	-2.067245
N	0.077442	-2.374133	-2.546882
N	-0.544467	-1.211809	0.617675
H	-0.646646	-1.032635	1.610181
H	0.167734	-1.933648	0.539489
C	-0.483583	1.246968	0.708123
H	-1.560681	1.197699	0.896542
H	-0.265936	2.132722	0.111171
H	0.049225	1.336559	1.660236
H	2.860248	0.0	0.0
