17

C	-0.252792	0.084362	-1.500244
C	0.0	0.0	0.0
Cl	-1.999104	0.566503	-1.897005
H	1.099096	0.0	0.0
N	0.637523	1.067297	-2.037177
H	0.709654	0.981492	-3.043534
H	1.561615	0.904769	-1.606042
C	-0.112671	-1.242495	-2.130697
N	0.0534	-2.239897	-2.729949
N	-0.493238	-1.245159	0.558717
H	-1.283807	-1.077772	1.168852
H	0.251695	-1.669041	1.100031
C	-0.448737	1.249456	0.734586
H	0.046475	1.274789	1.709694
H	-0.166504	2.145457	0.179928
H	-1.534381	1.258677	0.882925
H	2.821941	0.0	0.0
