17

C	-0.265777	-0.050703	-1.510892
C	0.0	0.0	0.0
Cl	-0.068997	1.667514	-2.236268
H	1.10505	0.0	0.0
N	0.664067	-0.967182	-2.048393
H	1.598612	-0.755067	-1.666962
H	0.667982	-0.973617	-3.060028
C	-1.648331	-0.408036	-1.864219
N	-2.753313	-0.680788	-2.155636
N	-0.515684	-1.273464	0.540992
H	-0.202288	-1.311688	1.507396
H	-0.005649	-2.01252	0.064301
C	-0.621375	1.152949	0.748706
H	-0.426233	1.021388	1.817745
H	-1.705935	1.181872	0.601757
H	-0.183703	2.103481	0.447985
H	2.935056	0.0	0.0
