17

C	-0.243938	0.02938	-1.511395
C	0.0	0.0	0.0
Cl	-1.951967	0.534963	-1.936358
H	1.105655	0.0	0.0
N	0.679825	0.903564	-2.20922
H	1.607765	0.680473	-1.812958
H	0.473685	1.854328	-1.919769
C	-0.089753	-1.32852	-2.05795
N	0.049343	-2.421512	-2.464973
N	-0.587996	-1.190544	0.615297
H	0.069912	-1.955929	0.488188
H	-0.633779	-1.031614	1.616201
C	-0.478873	1.249395	0.70673
H	0.015826	1.309924	1.68114
H	-0.215812	2.155047	0.157662
H	-1.563205	1.226793	0.848002
H	2.869848	0.0	0.0
