16
Coordinates from ORCA-job run
  C   -0.97432458863258      0.10560942347857     -0.02737492074662
  C   0.50302263407221      0.47867073572134      0.07938661847604
  Br  -1.94329630676336      1.62132860595266     -0.77285988685339
  H   0.58376312877555      1.41528628023723      0.63158832350784
  C   -1.22866995599096     -1.06392832708150     -0.84829258472614
  N   -1.40017316866463     -1.96816388262411     -1.58047459520483
  N   -1.56786018250407     -0.10583196657817      1.37797452345589
  O   -2.47901355562570     -0.91029803648940      1.47142608062572
  O   -1.09167576887656      0.59639970983972      2.25685036941087
  C   1.22151764017219      0.53761685942176     -1.25781688675121
  H   1.19857891518860     -0.43582556293689     -1.75198977173476
  H   2.25880422738480      0.82566896495345     -1.08614908987797
  H   0.75736988318882      1.27813267627533     -1.90871673909889
  N   1.20712183412399     -0.54252351454312      0.93784192091201
  O   0.63973030023819     -1.61447772298041      1.13608074811171
  O   2.31610496391349     -0.21866424264646      1.34152589049371
