16
Coordinates from ORCA-job run
  C   -0.96962524820716      0.08719830293527     -0.11056844008931
  C   0.50174647533293      0.48628769039332     -0.01807979722578
  Br  -1.88071923710227      1.34875465839241     -1.28132578272525
  H   0.55759455144095      1.53499071110631      0.27489904489667
  C   -1.18508021199594     -1.25759242561986     -0.61217959350577
  N   -1.32307680149442     -2.32076372927597     -1.09556360801290
  N   -1.64676979903913      0.24541207354815      1.26349530777127
  O   -1.21884423763561      1.15767118813752      1.95432541988230
  O   -2.56771147826959     -0.51435167991160      1.51021053884871
  C   1.29775595995098      0.20051329427132     -1.28012411050952
  H   1.29637656030913     -0.86828397536282     -1.50384561251970
  H   0.87777055530598      0.74174352321454     -2.12755281671026
  H   2.32537641192563      0.53146671121860     -1.12909814305020
  N   1.14617438931829     -0.27099710657619      1.11633022164666
  O   0.55746432497332     -1.25620158623589      1.55588294310124
  O   2.23356778518689      0.15315234976488      1.48419442820184
