16
Coordinates from ORCA-job run
  C   -0.93309569529922      0.42094357220486      0.28684754062773
  C   0.57528049420888      0.49217462110253     -0.02732646528842
  Br  -1.36547418909549      1.59106396897716      1.75745354577020
  H   0.79433545570783      1.54425074766250     -0.21927696755240
  C   -1.67696709766049      0.84074931788630     -0.89080874148128
  N   -2.24276822854270      1.20854462485494     -1.85422614926434
  N   -1.38329648001660     -1.03513696770082      0.60544544881703
  O   -1.38252901357008     -1.76044044475547     -0.38070789014507
  O   -1.67647659218920     -1.32373989548058      1.74765847892487
  C   1.05917279457382     -0.38400646214367     -1.16994939737376
  H   2.11345039024257     -0.15957444164253     -1.34691629548562
  H   0.50073731956060     -0.16638409802294     -2.08108410464616
  H   0.95248176622130     -1.44000665046499     -0.93197085170955
  N   1.35609847632494      0.14832693249139      1.20659035797339
  O   2.13525091301185      0.99627623736732      1.62902481714627
  O   1.17179968652200     -0.97504106233602      1.66824667368710
