16
Coordinates from ORCA-job run
  C   -0.85623218241797      0.19928463076194      0.40717031420182
  C   0.53301971534934      0.20173997837131     -0.26671866282151
  Br  -0.79401664931347     -0.40381568272511      2.23085421463505
  H   0.40956129461438      0.71868173181979     -1.22159928275749
  C   -1.52946581213368      1.48747004911508      0.34984164669962
  N   -2.11256096807274      2.50826904274430      0.30893167556811
  N   -1.69413705475542     -0.77768473472193     -0.47022705529324
  O   -2.01046369860979     -1.85956034168980     -0.01340077853080
  O   -1.89777393350852     -0.34752386920673     -1.59822815541211
  C   1.13502276256832     -1.17324079084738     -0.44610795203627
  H   0.55297269643956     -1.74271260227179     -1.17252791506317
  H   1.18051992094783     -1.71935235694941      0.49453397812964
  H   2.14944636900394     -1.07237152055299     -0.83263320684851
  N   1.43128113335716      1.10097931549606      0.54515410073956
  O   2.30261010917181      0.57550953901145      1.22948285570500
  O   1.20021629735924      2.30432761164522      0.45447422308430
