16
Coordinates from ORCA-job run
  C   -0.87409950255278      0.19941117937244      0.36846292604746
  C   0.54256219115387      0.20217987616923     -0.24699849194242
  Br  -0.88423561527772     -0.37863952644277      2.20115402161428
  H   0.45576372426825      0.70697842625716     -1.21233808441238
  C   -1.55172807740558      1.48234912639975      0.26543525104609
  N   -2.13887647715159      2.49866550612128      0.18778336888202
  N   -1.66779132224613     -0.79495324539246     -0.52990981521409
  O   -1.99757509815099     -1.87218906956371     -0.07166651402198
  O   -1.82468770470565     -0.38198111803250     -1.67172050642036
  C   1.15887929465720     -1.17137229395356     -0.38377231864023
  H   0.61135025620677     -1.75265739996878     -1.12749405698370
  H   1.16637031863242     -1.70576049915496      0.56465311137622
  H   2.18849585924218     -1.06934254605409     -0.72746773663300
  N   1.40093441188673      1.11647633174126      0.59062405405243
  O   1.16696005399891      2.31726986112487      0.47604353204794
  O   2.24667768744414      0.60456539137686      1.31621125920172
