16
Coordinates from ORCA-job run
  C   -0.86796577108960      0.20799299243988      0.37743623290988
  C   0.54333704249147      0.19578367579660     -0.24900225163125
  Br  -0.87425047801421     -0.39393553066368      2.20230198110167
  H   0.45721211887307      0.71274169763091     -1.20797210444919
  C   -1.52535321964987      1.50312106615649      0.29647304904094
  N   -2.09401905692894      2.53155050014921      0.24456236688842
  N   -1.68524609301254     -0.76085014133277     -0.52775909461945
  O   -2.02706831962565     -1.83953526022390     -0.08182675290516
  O   -1.84663460692899     -0.32927264243735     -1.66201367998901
  C   1.13755605968127     -1.18527245137646     -0.40645928699786
  H   1.14591362176024     -1.73032196042561      0.53584309347357
  H   2.16533130727091     -1.09464936034878     -0.75883554215193
  H   0.57497604199843     -1.75020929125626     -1.15156940219968
  N   1.42280568459517      1.08724336831404      0.59159424490636
  O   2.26292914745706      0.55368433268013      1.30795919344186
  O   1.20947652112219      2.29292900489754      0.48926795318085
