16
Coordinates from ORCA-job run
  C   -0.92491835353338      0.42677841603250      0.29899787772507
  C   0.57949793587742      0.48795760289873     -0.03410762985299
  Br  -1.33075253779926      1.59700339308863      1.77691160256956
  H   0.80406745276251      1.53898121179763     -0.22558266594407
  C   -1.68190720183022      0.85331142052285     -0.86795389796799
  N   -2.27146911881051      1.23446638656001     -1.81173882118401
  N   -1.38130849373827     -1.02686999660396      0.62106715976944
  O   -1.65941539133359     -1.31614340082668      1.76688126274771
  O   -1.40053327389330     -1.74984666727926     -0.36658312184776
  C   1.04188401851355     -0.38850779507916     -1.18545884557026
  H   0.47242177391381     -0.16488515116910     -2.08831330941019
  H   2.09511403091426     -0.17079646670024     -1.37639347560222
  H   0.93111072356988     -1.44429360325854     -0.94844821366187
  N   1.37418949140683      0.13503843597988      1.18852221348303
  O   2.16417191636633      0.97659628277504      1.60346486573689
  O   1.18884702761394     -0.98879006873831      1.64873499900966
