16
Coordinates from ORCA-job run
  C   -0.89425408142003      0.21130541471456      0.30712265490508
  C   0.55548915891340      0.19299529482363     -0.22414100943518
  Br  -1.01033465363486     -0.27876337441388      2.16146773210822
  H   0.52408395049931      0.65008878666590     -1.21628603855670
  C   -1.56870317382508      1.48391279881866      0.10308449710396
  N   -2.15372396198244      2.49156206519065     -0.05852714359571
  N   -1.63227754602033     -0.82893297465995     -0.58728310941106
  O   -1.72448893519237     -0.47142421858431     -1.75456003850535
  O   -1.98532777652978     -1.88480183095863     -0.09781543393751
  C   1.18345178487810     -1.18163150177535     -0.25789132108137
  H   0.68167098371608     -1.80176659720026     -1.00253762292573
  H   2.23081503498456     -1.09039200954989     -0.54656330684026
  H   1.13829921915302     -1.66948272558262      0.71430054971765
  N   1.36057560649417      1.15204954624831      0.61675452918313
  O   2.16390011518268      0.68078993993018      1.41439040501144
  O   1.12982427478356      2.34449138633300      0.43048465625941
