16
Coordinates from ORCA-job run
  C   -0.95271694247351      0.22451712395117     -0.00845154031322
  C   0.55856676158584      0.40491828443932      0.11747267253896
  Br  -1.72851036430516      1.90671654915623     -0.60910957687416
  H   0.75222293898774      1.27160062037424      0.74994274800619
  C   -1.34640021884846     -0.82798481224554     -0.92711179142751
  N   -1.64070849302849     -1.62929800850611     -1.73603298471083
  N   -1.57091456331246     -0.03640448547885      1.37781881455188
  O   -1.01243141398708      0.51941318672819      2.31139351977033
  O   -2.57663678830420     -0.72473554302269      1.40737310108871
  C   1.28079228312832      0.49523294730799     -1.21611729621734
  H   1.13968345873126     -0.42025271459519     -1.79439734259932
  H   0.91135864890973      1.34152134129254     -1.79468650880402
  H   2.34526921417871      0.63810645600925     -1.02946465093188
  N   1.13211206933446     -0.76719286659199      0.87461330425329
  O   0.43714312794338     -1.77487028461399      0.98391474763404
  O   2.27217028145991     -0.61828779420457      1.29384278403489
