16
Coordinates from ORCA-job run
  C   -0.89695172934109      0.06283135318186      0.26625210783193
  C   0.54809991876931      0.09725227072883     -0.26630108891109
  Br  -1.09041560405152     -0.81779632410348      1.97883172821898
  H   0.48027507699926      0.36954846500943     -1.32019326165413
  C   -1.47314481490556      1.39700851717293      0.34927702866500
  N   -1.91321359236457      2.48711141232550      0.39852332794273
  N   -1.79533233007607     -0.72375954391581     -0.73459438135934
  O   -2.99068653016923     -0.69797606546731     -0.49945546940141
  O   -1.23007467774548     -1.28981029040399     -1.66005722197799
  C   1.36959429110830     -1.15771478376143     -0.06162430387770
  H   0.85314627842258     -2.02016432988524     -0.47950603858192
  H   1.56421654164215     -1.31990875721988      0.99651137548214
  H   2.32296039019459     -1.04074576849990     -0.58155504269924
  N   1.24658475760609      1.26426432111059      0.38152324147887
  O   1.46133012735900      2.24040922550364     -0.33357017086957
  O   1.54661189655226      1.14745029822424      1.56593816971276
