16
Coordinates from ORCA-job run
  C   -0.94425208121996      0.40890101519734      0.26404007410996
  C   0.56425689356840      0.50415139324875     -0.04231550440319
  Br  -1.41542547107106      1.62232560569638      1.68711995678480
  H   0.75979382051855      1.55298103128716     -0.27348527647143
  C   -1.68886015707258      0.76763501478424     -0.93313714768087
  N   -2.25552814807995      1.08586573732795     -1.91352303967338
  N   -1.36393500247161     -1.04428526693498      0.63354169588308
  O   -1.33984697912320     -1.80536231505702     -0.32492869836049
  O   -1.65948484027349     -1.29728568102364      1.78355314195830
  C   1.07742435483716     -0.40389909293153     -1.14655706409768
  H   2.12699294310772     -0.16057032692726     -1.32637620197023
  H   0.99505420099258     -1.45202071712617     -0.86769388688777
  H   0.51969215165201     -0.23606259442812     -2.06858400762982
  N   1.34309427605445      0.22777698777058      1.20977803380692
  O   1.17981574692848     -0.87978917465414      1.71527122673491
  O   2.09920829165251      1.10963838377047      1.60329669789689
