16
Coordinates from ORCA-job run
  C   -0.89960731385157      0.47151980001419      0.31283021904523
  C   0.59426689917515      0.46639982648395     -0.07064308278591
  Br  -1.21624529267793      1.70820655354898      1.75874933859355
  H   0.84962992025804      1.50137731255170     -0.30557832932062
  C   -1.67993353591980      0.88219518507898     -0.84401528201829
  N   -2.27385906265041      1.24173121054446     -1.79355245456066
  N   -1.39237518456081     -0.95276292903437      0.70478751000014
  O   -1.62911346198053     -1.19263073350501      1.87133066971549
  O   -1.47880398871580     -1.70838795194449     -0.25449729795650
  C   0.98441064587899     -0.46642726406871     -1.20402204563853
  H   0.84208294619030     -1.50816478013182     -0.92537446038234
  H   2.03802174256959     -0.29734321289745     -1.43694111632408
  H   0.39360336034435     -0.25256125792091     -2.09528917126643
  N   1.41565794620778      0.12686797117500      1.13858117704619
  O   1.22129740674209     -0.98155738184062      1.63135064408789
  O   2.23196697299056      0.96253765194612      1.51228368176484
