16
Coordinates from ORCA-job run
  C   -0.92008662926890      0.44743276987648      0.28821091984668
  C   0.58593516190707      0.47838011137000     -0.04360793266829
  Br  -1.31013935040697      1.65678611173954      1.73898342479548
  H   0.82619133307271      1.52115073157286     -0.25944715767835
  C   -1.66778289698521      0.85972740334724     -0.88954367758754
  N   -2.23528085897468      1.22172300867444     -1.85416935192852
  N   -1.39817670391684     -0.99125792276383      0.64216300439123
  O   -1.67885350144957     -1.25123330297552      1.79442245272464
  O   -1.42946696859236     -1.73545643503833     -0.32926069086333
  C   1.03628788849126     -0.43185000892195     -1.17322408548812
  H   0.47137513710153     -0.22059704092954     -2.08184537004266
  H   2.09292241497990     -0.23465988845012     -1.36768421830345
  H   0.90968663215076     -1.48003820215037     -0.91166953586143
  N   1.37316722962577      0.14257722522398      1.18856534546725
  O   1.17264203112970     -0.96811602106179      1.67339621984122
  O   2.17257908113582      0.98343146048692      1.58671065335518
