16
Coordinates from ORCA-job run
  C   -0.93160279119669      0.43047383649440      0.27560368818482
  C   0.57751023585870      0.48611858538840     -0.03353925527900
  Br  -1.35897461622110      1.63042365239559      1.72391267531383
  H   0.80238032019568      1.53246394840553     -0.24949216391972
  C   -1.66625882551833      0.83788481392074     -0.91211763173810
  N   -2.22206141090581      1.19835360181454     -1.88385430826352
  N   -1.40229650088043     -1.01541835663967      0.61563034878292
  O   -1.73972219584641     -1.27477094694743      1.75220521413223
  O   -1.37471511217775     -1.76268253256594     -0.35351512080773
  C   1.06598250647846     -0.41688185463402     -1.15400362221572
  H   0.96668647300157     -1.46694351869019     -0.88656734808944
  H   0.50475400916393     -0.22829762641136     -2.07003414967821
  H   2.11855339955905     -0.18873042457682     -1.33717197272901
  N   1.35477378356930      0.16746268168164      1.20872680495567
  O   1.11566680243332     -0.91645267694233      1.73509762473432
  O   2.18932392248651      0.98999681730692      1.57011921661666
