16
Coordinates from ORCA-job run
  C   -0.89273696859915      0.17976477958011      0.33061892883455
  C   0.55137031654489      0.21384767850743     -0.21474456680305
  Br  -0.98506994415845     -0.44899821324322      2.14420722740702
  H   0.50656409302095      0.74342868855271     -1.16964830308527
  C   -1.57991525176284      1.45783850324578      0.22968364373072
  N   -2.17360343095030      2.47023579373700      0.15024147720368
  N   -1.63133252904339     -0.79709237005261     -0.63206425395319
  O   -1.96961139674881     -1.89029090831416     -0.22005950835210
  O   -1.73936589283121     -0.35359482574418     -1.76807140759558
  C   1.19007465607106     -1.14884838831462     -0.35749005252209
  H   2.23376767492020     -1.02650340643292     -0.64805055352517
  H   1.15852019584505     -1.70873484593521      0.57561097820144
  H   0.68640834451108     -1.71573575809158     -1.14221564831739
  N   1.35762132188766      1.11463532104231      0.68738375128151
  O   2.17232591775849      0.59254984450726      1.44063939255858
  O   1.11498289353477      2.31549810695589      0.59295889493633
