16
Coordinates from ORCA-job run
  C   -0.93129872212390      0.42095599929453      0.29292373076953
  C   0.57145164403690      0.49630879629222     -0.04605404839145
  Br  -1.35048742303932      1.62075911448978      1.74339741619218
  H   0.78114970840112      1.54652989054171     -0.25766241821330
  C   -1.69736191368622      0.80674128814882     -0.88182217673607
  N   -2.28178224386864      1.14867044379765     -1.84371587287863
  N   -1.36332654428598     -1.03128622235279      0.65276113988945
  O   -1.63296247383736     -1.29601879988204      1.80647739496546
  O   -1.37347631833267     -1.77937122839044     -0.31614812400321
  C   1.04218601548388     -0.39586912893094     -1.18178246192872
  H   2.09236994062879     -0.16948860831296     -1.37914137448148
  H   0.94483013046651     -1.44825686815220     -0.92484624516121
  H   0.46822839981127     -0.19578021590482     -2.08722662561225
  N   1.37374919045445      0.17740099859621      1.18131796905414
  O   1.21371210170115     -0.94451923281914      1.65593693582262
  O   2.14401850819003      1.04222377358441      1.58558476071297
