16
Coordinates from ORCA-job run
  C   -0.88104210975271      0.17621209790665      0.36292636691251
  C   0.54082131294003      0.21515337933985     -0.23847781366490
  Br  -0.89875534224165     -0.42950656770788      2.18646625163037
  H   0.45298307338269      0.73065416054348     -1.19799292403861
  C   -1.58139043624019      1.44790940893436      0.27195488463811
  N   -2.18418053472014      2.45560072836509      0.20183573201075
  N   -1.64830361316047     -0.81836843408748     -0.55783069615493
  O   -1.79585367691320     -0.39358931110274     -1.69672204254584
  O   -1.97060060626770     -1.90492477804980     -0.11672547386246
  C   1.18567305609787     -1.14393348564080     -0.38797137330921
  H   0.65563713380308     -1.72655666807972     -1.14327877237501
  H   1.19781687210953     -1.69022491973902      0.55354620193624
  H   2.21525826821865     -1.01661292541609     -0.72342481397379
  N   1.37326751792845      1.13457566739079      0.61905316869995
  O   1.12248521707033      2.33283335585079      0.51232524458672
  O   2.21618386774544      0.62877829149253      1.35231605951011
