16
Coordinates from ORCA-job run
  C   -0.92403946913464      0.44138049322422      0.28029109615303
  C   0.58556610171889      0.48091186441972     -0.03229596102521
  Br  -1.33690357297423      1.63523698461434      1.73716764733885
  H   0.82470409847473      1.52649983631571     -0.23538687558457
  C   -1.65914639812287      0.86141076792303     -0.90293355116123
  N   -2.23060568569303      1.23592101431346     -1.86041729128613
  N   -1.40211647589044     -1.00261345785627      0.61425363218875
  O   -1.70044192847247     -1.27359547460353      1.75944715587590
  O   -1.41538566948411     -1.73815046384727     -0.36412477895926
  C   1.05382691420171     -0.41661860682078     -1.16486240753835
  H   0.50081037014925     -0.19747272124943     -2.07898811833091
  H   2.11242530070971     -0.21430142083651     -1.34281006276058
  H   0.92674266280003     -1.46784695602713     -0.91615096464286
  N   1.35847248373135      0.13569712824028      1.20630826260309
  O   2.15165598640980      0.97406414796564      1.62170004008566
  O   1.15343528157631     -0.97952313577550      1.67880217704382
