16
Coordinates from ORCA-job run
  C   -0.90301095589407      0.01795672750579      0.27951169858005
  C   0.53672347132040      0.12169115812937     -0.26326759118559
  Br  -1.09728053378066     -1.11141860705620      1.84047516012219
  H   0.45529734774295      0.49735036041593     -1.28437405516736
  C   -1.45769812890216      1.33263047605251      0.56631086449828
  N   -1.86115719073748      2.41777047327172      0.77578180272216
  N   -1.81413916709658     -0.60999867333005     -0.81086431851877
  O   -1.25348788150743     -1.18257923098323     -1.73536510034476
  O   -3.01381211753076     -0.49046679582504     -0.63094874143700
  C   1.38045589488253     -1.13497222447221     -0.19713518244899
  H   2.32637484646210     -0.94690892999107     -0.70999717465680
  H   1.58710170177906     -1.40224522915987      0.83778430644675
  H   0.87145833688001     -1.95668080950782     -0.69759128472344
  N   1.23839737818242      1.21684770377388      0.49249038728378
  O   1.41009801241865      1.03587731421525      1.69459503015590
  O   1.59567898578102      2.19514628696106     -0.15840580132640
