16
Coordinates from ORCA-job run
  C   -0.94383128466141      0.42450241341279      0.24240472616289
  C   0.56742915400030      0.49926062971665     -0.05584073920535
  Br  -1.41785029188017      1.69113350471381      1.61686507676272
  H   0.77187676805932      1.53830293443018     -0.32102876600449
  C   -1.67720047068640      0.74322932423828     -0.97284602688810
  N   -2.23472343223598      1.02980700113900     -1.96812884794603
  N   -1.37427025297453     -1.01256582552468      0.66193787412045
  O   -1.67845509562198     -1.22161268584725      1.81846232131261
  O   -1.34745415746958     -1.80830629289175     -0.26774278666404
  C   1.08234664070917     -0.44954907101501     -1.12452308832270
  H   2.13504441375264     -0.22013388523425     -1.30442011450677
  H   0.99034615906265     -1.48677719187881     -0.81014898805477
  H   0.53280005150468     -0.30992683900202     -2.05610931335319
  N   1.33598012305911      0.26054548954586      1.21036076514787
  O   1.16437795239805     -0.82937278551141      1.75048002866161
  O   2.09358372298415      1.15146327970862      1.58027787877729
