16
Coordinates from ORCA-job run
  C   -0.87217717331886      0.22993651974571      0.35333590029135
  C   0.54470053173034      0.18079350857099     -0.25914063323498
  Br  -0.88888277139494     -0.22861652382116      2.21946055191004
  H   0.46382792224036      0.62338119950332     -1.25498737966060
  C   -1.53866250217542      1.50948433247916      0.16682386980456
  N   -2.11661457794167      2.52383992806437      0.02294450304310
  N   -1.67515461436869     -0.81252422847200     -0.47951870893992
  O   -2.01491522215028     -1.85501550064495      0.04686132948113
  O   -1.82859836807323     -0.47238776319608     -1.64557344249321
  C   1.14959592190226     -1.20365598637770     -0.30583458673947
  H   1.15804922388897     -1.67285236029076      0.67637217309394
  H   0.59431013238319     -1.82999535154468     -1.00581151840207
  H   2.17798079866279     -1.13335918602906     -0.66077418008536
  N   1.41009845869361      1.13992400247766      0.52002382865875
  O   2.25021335609659      0.66841848429438      1.27852118622250
  O   1.18522888382496      2.33262892524077      0.32929710705023
