16
Coordinates from ORCA-job run
  C   -0.91101451154733      0.45403310873926      0.30556328542146
  C   0.58721656423641      0.47546199631045     -0.05946332802688
  Br  -1.26304948314200      1.67343006077334      1.75751857270479
  H   0.82806032196534      1.51587257686424     -0.28581524509520
  C   -1.68256477960057      0.86323323657589     -0.85787574046186
  N   -2.27025192491183      1.22157389920018     -1.81168583695103
  N   -1.38936235590722     -0.98035079471901      0.67804962706581
  O   -1.65115693236135     -1.23109113624601      1.83669519004271
  O   -1.44149216322248     -1.73079913157979     -0.28763306369315
  C   1.00886603371825     -0.44286570194442     -1.19362018617747
  H   2.06202596545727     -0.25185954767990     -1.41159292784000
  H   0.88253474695853     -1.48893415883813     -0.92360934990082
  H   0.42555527604278     -0.23397372410501     -2.09110827255964
  N   1.39944003815589      0.14196916808372      1.15710228322648
  O   1.20113566142178     -0.96379395436331      1.65407711284404
  O   2.21405754273653      0.97909410292852      1.53139787940078
