16
Coordinates from ORCA-job run
  C   -0.91788352111988      0.44791158874895      0.28848190985118
  C   0.58983984668261      0.47613815506124     -0.03463761891972
  Br  -1.31025295936259      1.63997971200946      1.75254660046805
  H   0.83661081093093      1.52075012733651     -0.23366076381023
  C   -1.65846401880817      0.87838031612676     -0.88753988044347
  N   -2.23664441669812      1.26259641850247     -1.83709717140979
  N   -1.40490193126073     -0.99308343015778      0.62054381031161
  O   -1.43148763831946     -1.72526344478526     -0.36011855170743
  O   -1.69729861596811     -1.26592121604220      1.76691060119192
  C   1.04196410358240     -0.42005882707654     -1.17471600204001
  H   0.90856770843248     -1.47115098043328     -0.92869733213111
  H   2.10051361044468     -0.22528234191400     -1.36092134374244
  H   0.48266124218452     -0.19354747294591     -2.08319006783162
  N   1.36841930756640      0.11852912594920      1.19685004705867
  O   1.15800139908336     -0.99732708118429      1.66554670445060
  O   2.17135507262970      0.94834935080465      1.61069905870378
