16
Coordinates from ORCA-job run
  C   -0.91321945562858      0.44658898187220      0.30882739550208
  C   0.58368605583711      0.47953318025753     -0.06085635737876
  Br  -1.26946916522024      1.66364586741091      1.76216119443400
  H   0.81563032369820      1.52179585658254     -0.28774661077620
  C   -1.69131218321968      0.85083376442342     -0.85199809925029
  N   -2.28519811484451      1.20483371047472     -1.80352909368423
  N   -1.37998273060555     -0.99085575184400      0.68285460036013
  O   -1.63582664033691     -1.24332884016057      1.84243380598586
  O   -1.43112378752587     -1.74139958261963     -0.28273524539909
  C   1.00822278753033     -0.43500378410022     -1.19700145797723
  H   0.88823911481915     -1.48218406048393     -0.92834628827102
  H   0.42201568717068     -0.22789314181685     -2.09305932418231
  H   2.05988399018504     -0.23793492894492     -1.41695231543793
  N   1.40237858117913      0.15160909729582      1.15263043830734
  O   1.21338101823895     -0.95548049046182      1.65032896878442
  O   2.21269451872275      0.99424012211479      1.52398838898323
