16
Coordinates from ORCA-job run
  C   -0.92351311337419      0.43215505720208      0.29533835709118
  C   0.58155041438432      0.48572430660413     -0.03633070914637
  Br  -1.32612510770445      1.61312922841127      1.76563256144781
  H   0.80996468229196      1.53483809767807     -0.23354463994704
  C   -1.67749455090359      0.85450309973805     -0.87506673295305
  N   -2.26780329762037      1.23273945347950     -1.81954648485861
  N   -1.38588348170706     -1.01763884000445      0.62576070052208
  O   -1.66608034746283     -1.29882799937744      1.77304418341526
  O   -1.40636959412478     -1.74656567113938     -0.35744368822308
  C   1.04165183092129     -0.39903588187341     -1.18225423381719
  H   0.92545317725051     -1.45301661327093     -0.93984889802348
  H   0.47491310596581     -0.17748986635893     -2.08733078473999
  H   2.09630097774824     -0.18763348652536     -1.37250272154173
  N   1.37357024936295      0.13654545154970      1.18889499382077
  O   1.18310357069892     -0.98366179454770      1.65568444773974
  O   2.16676148427327      0.97723545843481      1.59951364921371
