17

C	0.0	0.0	0.0
C	-0.446993	-0.003157	-1.480394
F	1.33867	0.0	0.0
H	0.500728	0.229981	-1.985748
N	-0.317814	1.242151	0.830407
O	-0.669989	2.24743	0.23351
O	0.000307	1.165168	2.011016
N	-0.341875	-1.269004	0.809533
O	0.249302	-2.257171	0.379741
O	-1.062616	-1.22002	1.786281
C	-1.354053	1.050644	-1.951521
N	-1.838336	1.861212	-2.654058
C	-0.91706	-1.358731	-2.027258
H	-1.821322	-1.663927	-1.505472
H	-0.135284	-2.108785	-1.927878
H	-1.15149	-1.221724	-3.085347
Cl	-3.154181	0.0	0.0
