17

C	0.0	0.0	0.0
C	-0.568454	-0.210644	-1.387872
F	1.333257	0.0	0.0
H	-0.04184	-1.10741	-1.73757
N	-0.415186	1.289589	0.69263
O	-1.293951	1.96201	0.172059
O	0.21596	1.539023	1.711991
N	-0.442435	-1.156647	0.891554
O	0.039519	-2.234776	0.561177
O	-1.218453	-0.926546	1.806617
C	-0.140683	0.894661	-2.247311
N	0.219682	1.744204	-2.972651
C	-2.079211	-0.467057	-1.425689
H	-2.375028	-0.647264	-2.459863
H	-2.677261	0.345864	-1.024608
H	-2.335709	-1.353287	-0.845166
Cl	-5.059656	0.0	0.0
