17

C	0.0	0.0	0.0
C	-0.734398	0.048695	-1.315637
F	1.327217	0.0	0.0
H	-1.816932	-0.004535	-1.027352
N	-0.380634	1.090466	0.997918
O	-0.171803	0.817011	2.173047
O	-0.73462	2.17097	0.548099
N	-0.350503	-1.341331	0.710082
O	0.554722	-2.167528	0.731425
O	-1.474356	-1.445222	1.164583
C	-0.372784	-1.162814	-2.056684
N	-0.045743	-2.103766	-2.679533
C	-0.468807	1.276045	-2.197219
H	-0.940144	2.153911	-1.766991
H	-0.90434	1.089661	-3.179492
H	0.602426	1.450681	-2.321265
Cl	-3.861197	0.0	0.0
