17

C	0.0	0.0	0.0
C	-0.710581	-0.004149	-1.331309
F	1.327342	0.0	0.0
H	-1.74435	-0.338964	-1.098109
N	-0.397262	1.218675	0.84264
O	0.296476	2.209717	0.634385
O	-1.335207	1.108611	1.612
N	-0.346659	-1.238765	0.840346
O	0.120991	-1.230623	1.973075
O	-0.965942	-2.141486	0.296766
C	-0.037243	-0.952367	-2.21391
N	0.516902	-1.664593	-2.965832
C	-0.827043	1.382038	-1.972419
H	-1.530185	1.973487	-1.386945
H	-1.249519	1.261208	-2.970491
H	0.131847	1.895069	-2.044016
Cl	-3.765651	0.0	0.0
