17

C	0.0	0.0	0.0
C	-0.710698	-0.004584	-1.328142
F	1.326753	0.0	0.0
H	-1.76213	-0.279541	-1.085984
N	-0.397464	1.215701	0.842304
O	0.278611	2.215943	0.620131
O	-1.314947	1.093677	1.63566
N	-0.352791	-1.237934	0.83868
O	0.162918	-1.258789	1.950172
O	-1.024912	-2.113442	0.313771
C	-0.092871	-1.018167	-2.179712
N	0.410818	-1.784075	-2.914312
C	-0.732767	1.362728	-2.018658
H	-1.154222	1.234589	-3.016557
H	0.262535	1.802244	-2.100298
H	-1.391213	2.02965	-1.462924
Cl	-3.753654	0.0	0.0
