18

C	-0.248997	-0.039416	-1.507321
C	0.0	0.0	0.0
F	-0.115215	1.280218	-2.029223
H	1.099288	0.0	0.0
N	0.678627	-0.928842	-2.089242
H	1.604945	-0.74811	-1.67711
H	0.701955	-0.828438	-3.096688
C	-1.642932	-0.410512	-1.869821
N	-2.756357	-0.693295	-2.115058
C	-0.471196	-1.286156	0.664388
H	-0.099476	-1.312747	1.693362
H	-1.565518	-1.359252	0.690128
H	-0.072548	-2.158307	0.143674
C	-0.569262	1.237284	0.666453
H	-1.661882	1.283737	0.576374
H	-0.317548	1.217969	1.730646
H	-0.143737	2.143594	0.236604
H	2.95418	0.0	0.0
