18

C	-0.488209	-0.001934	-1.433643
C	0.0	0.0	0.0
F	-0.030842	-1.131594	-2.102883
H	1.096659	0.0	0.0
N	-1.9302	-0.038887	-1.524273
H	-2.232511	0.207423	-2.459258
H	-2.326706	0.623543	-0.870824
C	0.056179	1.161184	-2.189988
N	0.357049	2.118947	-2.800774
C	-0.452619	-1.258409	0.729588
H	-1.534332	-1.286369	0.901092
H	0.062212	-1.299019	1.694187
H	-0.165799	-2.147889	0.166398
C	-0.417241	1.266872	0.741311
H	-0.157559	2.169691	0.181019
H	0.141408	1.309068	1.679964
H	-1.487523	1.297515	0.988323
H	2.919961	0.0	0.0
