18

C	-0.475541	-0.001381	-1.438868
C	0.0	0.0	0.0
F	-0.030081	-1.140365	-2.09645
H	1.096636	0.0	0.0
N	-1.917683	-0.017018	-1.540744
H	-2.208992	0.226583	-2.480463
H	-2.309683	0.65525	-0.89552
C	0.093369	1.146159	-2.203875
N	0.407741	2.080451	-2.843292
C	-0.459182	-1.255534	0.7283
H	-0.17371	-2.146441	0.166841
H	0.05242	-1.298056	1.693974
H	-1.541073	-1.279004	0.896195
C	-0.416918	1.270071	0.735244
H	-1.48704	1.302555	0.981404
H	0.141755	1.316933	1.673308
H	-0.156584	2.169587	0.170083
H	2.917338	0.0	0.0
