18

C	-0.515495	-0.009747	-1.425899
C	0.0	0.0	0.0
F	-1.961151	-0.029629	-1.382759
H	1.095731	0.0	0.0
N	-0.065767	1.079449	-2.200916
H	-0.065017	1.938702	-1.673602
H	-0.601022	1.170957	-3.053675
C	-0.194812	-1.263521	-2.148445
N	0.001035	-2.24981	-2.754394
C	-0.471106	-1.235569	0.757451
H	-0.168849	-2.153055	0.246046
H	0.012705	-1.245375	1.737642
H	-1.55713	-1.250922	0.89493
C	-0.432015	1.276778	0.721511
H	-1.506392	1.46638	0.63377
H	-0.181051	1.176594	1.780408
H	0.12646	2.148955	0.367769
H	2.932295	0.0	0.0
