18

C	-0.250371	-0.053068	-1.50647
C	0.0	0.0	0.0
F	-0.120737	1.261918	-2.039729
H	1.09932	0.0	0.0
N	0.678162	-0.94591	-2.08187
H	0.698859	-0.854829	-3.09006
H	1.604861	-0.760159	-1.67327
C	-1.644429	-0.430923	-1.864414
N	-2.755836	-0.722192	-2.109207
C	-0.470525	-1.279794	0.67716
H	-0.090267	-1.300488	1.702605
H	-1.56458	-1.348873	0.711776
H	-0.079353	-2.15685	0.159223
C	-0.568131	1.243304	0.656021
H	-1.661446	1.286884	0.570591
H	-0.145921	2.145758	0.215088
H	-0.311395	1.235164	1.719361
H	2.953968	0.0	0.0
