18

C	-0.278065	0.053926	-1.505473
C	0.0	0.0	0.0
F	-0.234413	1.392391	-1.916499
H	1.096079	0.0	0.0
N	0.69424	-0.661588	-2.280315
H	1.595277	-0.584951	-1.789666
H	0.445263	-1.63813	-2.365524
C	-1.647544	-0.416975	-1.846532
N	-2.732943	-0.80899	-2.066034
C	-0.424512	-1.343459	0.580826
H	-0.025889	-2.174992	-0.006947
H	-1.514062	-1.449435	0.640852
H	-0.007818	-1.441161	1.58688
C	-0.57789	1.165362	0.779197
H	-1.673402	1.197003	0.717573
H	-0.18023	2.111703	0.412863
H	-0.299809	1.069363	1.83332
H	2.9441	0.0	0.0
