18

C	-0.260287	0.118217	-1.497259
C	0.0	0.0	0.0
F	-1.560731	0.604006	-1.770491
H	1.097162	0.0	0.0
N	0.691875	1.0276	-2.04119
H	0.77667	0.931949	-3.044528
H	1.606036	0.866629	-1.590068
C	-0.247271	-1.20945	-2.17482
N	-0.218974	-2.250809	-2.718446
C	-0.557977	-1.258017	0.639519
H	-0.082579	-2.155909	0.239861
H	-0.359441	-1.234555	1.714893
H	-1.641616	-1.341226	0.495916
C	-0.474489	1.264214	0.704201
H	-0.046493	1.289465	1.709796
H	-1.56553	1.298729	0.784271
H	-0.137293	2.152673	0.171176
H	2.910609	0.0	0.0
