18

C	-0.472875	-0.022309	-1.438859
C	0.0	0.0	0.0
F	-0.032249	-1.174218	-2.077982
H	1.096677	0.0	0.0
N	-1.914127	-0.033981	-1.542433
H	-2.205049	0.187293	-2.487593
H	-2.304003	0.654347	-0.912821
C	0.108828	1.111111	-2.217297
N	0.435511	2.042719	-2.853779
C	-0.457156	-1.245395	0.747274
H	-1.53869	-1.266849	0.9182
H	0.057074	-1.273489	1.712316
H	-0.172615	-2.143897	0.197901
C	-0.418491	1.279378	0.71787
H	-1.488327	1.311401	0.966285
H	-0.161949	2.171874	0.139659
H	0.142105	1.340837	1.654336
H	2.917205	0.0	0.0
