18

C	-0.366528	0.012454	-1.479805
C	0.0	0.0	0.0
F	-0.124696	1.297624	-1.984359
H	1.099507	0.0	0.0
N	0.383103	-0.920059	-2.2533
H	-0.123284	-1.769238	-2.457232
H	1.277468	-1.10075	-1.798107
C	-1.821141	-0.204093	-1.685291
N	-2.970812	-0.395327	-1.82741
C	-0.461357	-1.289994	0.6658
H	-1.553813	-1.36453	0.718909
H	-0.063621	-1.322183	1.682858
H	-0.075922	-2.169448	0.144743
C	-0.502455	1.226709	0.743238
H	-1.598593	1.276801	0.771127
H	-0.120124	2.136443	0.280687
H	-0.134775	1.197701	1.772922
H	2.976641	0.0	0.0
