18

C	-0.486525	0.130353	-1.430993
C	0.0	0.0	0.0
F	-0.006939	-0.918327	-2.203663
H	1.095502	0.0	0.0
N	-1.927903	0.069384	-1.527136
H	-2.235409	0.380639	-2.441737
H	-2.340261	0.672528	-0.827787
C	0.041994	1.368906	-2.073238
N	0.369476	2.378345	-2.577213
C	-0.447351	-1.325612	0.603033
H	-1.524823	-1.364299	0.79674
H	0.089914	-1.472457	1.544183
H	-0.183819	-2.151775	-0.058472
C	-0.421524	1.186538	0.859117
H	0.124827	1.131212	1.806449
H	-1.496225	1.196548	1.095492
H	-0.15144	2.140509	0.395987
H	2.921083	0.0	0.0
