15
Coordinates from ORCA-job run
  C   0.70949241662527      0.02578729028642      0.30829936222230
  C   -0.78963434281984      0.25864004408664      0.38352158902021
  H   1.13062631924873     -0.23555922320253      1.27634561012951
  H   -0.97341005197705      0.96783912562278      1.19831365030289
  N   1.35427107217329      1.31603411958308     -0.13624479497130
  O   1.29671050251462      2.20604052272874      0.70396877254648
  O   1.82565284773228      1.36976124274598     -1.26187066492760
  N   1.08178562548199     -1.06105838099207     -0.64907210456562
  O   0.20415156895958     -1.48354299355631     -1.39420811715611
  O   2.25036051244402     -1.42044825941146     -0.58513879642184
  N   -1.47432712518514     -1.03087667453046      0.81802348103848
  O   -0.81512427045879     -1.74311798174893      1.56506251522499
  O   -2.62181187933312     -1.20245202073165      0.44422689338487
  C   -1.36699864676674      0.77096597653846     -0.84999692855104
  N   -1.81074454863910      1.26198721258131     -1.82023046727625
