15
Coordinates from ORCA-job run
  C   0.53223444234863      0.39156455303066     -0.44000889121227
  C   -0.85362942143738      0.40980318836701      0.18034412527754
  H   0.61028823142708      1.16054472961821     -1.21026170267196
  H   -0.97242751363911      1.37301431045257      0.68837222540985
  N   0.86252946885720     -0.91110330323822     -1.09626098238335
  O   0.23031513362739     -1.89808624705118     -0.73334555181747
  O   1.75002415842785     -0.85727950254437     -1.93883925912523
  N   1.60231401115912      0.73259264121384      0.58140418840308
  O   2.53615383486589     -0.03612877836550      0.71889859680672
  O   1.40831351267176      1.80053679085330      1.14414463382909
  N   -1.01897175276451     -0.63225112722062      1.28094212899017
  O   -2.11007002472133     -1.16699356894931      1.37675019525051
  O   -0.04628597427838     -0.77346812917939      2.00697020670345
  C   -1.87231472065526      0.24508775225750     -0.84605714765636
  N   -2.65947338588896      0.16316669075550     -1.71405276580379
