15
Coordinates from ORCA-job run
  C   0.69637741221625     -0.07217177740544      0.25518647587330
  C   -0.78453113685954      0.25893409605144      0.36394369403807
  H   1.01297529124566     -0.73411191411769      1.06049536903497
  H   -0.91777810248526      1.00379825774006      1.15436301205886
  N   1.54641665215295      1.15577172531459      0.30787552330299
  O   2.71063328398162      0.97001573995479      0.64164195958037
  O   1.01489769006199      2.21967833795270      0.00273843985234
  N   0.95930956555156     -0.79092447671804     -1.04684858830509
  O   0.25376858286307     -1.78075854895348     -1.19562860531274
  O   1.80711624165855     -0.34508804235760     -1.80274493282106
  N   -1.53361468206032     -0.97623635605914      0.87183039523835
  O   -2.57358428603508     -1.27709780912451      0.31134859055039
  O   -1.02800805221469     -1.51162100071371      1.84863305661659
  C   -1.36030682878546      0.74075680252800     -0.88134704999357
  N   -1.80567163129131      1.13705496590803     -1.89348733971378
