17

C	0.0	0.0	0.0
C	-0.423219	0.269396	-1.504183
Br	1.959783	0.0	0.0
H	0.365811	-0.211962	-2.091959
C	-0.399015	1.079834	0.897227
N	-0.694874	1.94899	1.631404
C	-0.520345	-1.332964	0.511879
H	-0.206583	-2.136339	-0.159931
H	-0.133909	-1.540217	1.511044
H	-1.612904	-1.280586	0.545475
N	-0.332864	1.701795	-1.733064
H	-1.087323	2.147477	-1.215156
H	-0.555726	1.84287	-2.713024
N	-1.671383	-0.286251	-1.947307
H	-2.473538	-0.01255	-1.366884
H	-1.64151	-1.299556	-1.946116
Cl	-4.174758	0.0	0.0
