17

C	0.0	0.0	0.0
C	-0.406159	0.067654	-1.517081
Br	1.977491	0.0	0.0
H	0.21059	0.876405	-1.93989
C	-0.347046	1.276077	0.624636
N	-0.594257	2.326237	1.092232
C	-0.588703	-1.174488	0.750583
H	-0.251183	-1.181322	1.788749
H	-0.309953	-2.100205	0.250291
H	-1.679219	-1.063592	0.732553
N	-1.772158	0.398491	-1.778015
H	-1.976218	1.357256	-1.526691
H	-2.461993	-0.160571	-1.272558
N	-0.134327	-1.232789	-2.115359
H	-0.635742	-1.242654	-2.995419
H	0.855839	-1.338284	-2.29748
Cl	-4.381408	0.0	0.0
