15

C	0.0	0.0	0.0
C	-0.278907	-0.257468	-1.513197
F	1.400985	0.0	0.0
H	0.396064	-1.090816	-1.737217
N	-0.458742	1.296973	0.379371
H	-0.187196	1.448267	1.348025
H	-1.488927	1.146093	0.346841
N	-0.453141	-1.153011	0.723413
H	-1.482365	-1.006578	0.677337
H	-0.157208	-1.041216	1.690149
C	0.178716	0.884917	-2.313689
N	0.572849	1.744201	-3.008919
C	-1.600649	-0.693389	-1.996611
N	-2.409088	-1.164929	-2.709196
F	-2.700398	0.0	0.0
