15

C	0.0	0.0	0.0
C	-0.53277	-0.036417	-1.448491
F	1.370787	0.0	0.0
H	-1.642096	-0.03264	-1.255823
N	-0.448756	1.249674	0.556735
H	-1.472624	1.126646	0.562725
H	-0.121614	1.299669	1.517232
N	-0.452481	-1.216016	0.621785
H	-1.47783	-1.093132	0.613068
H	-0.130643	-1.212781	1.585683
C	-0.12036	-1.247372	-2.152501
N	0.192759	-2.201712	-2.761238
C	-0.125824	1.141913	-2.210159
N	0.185724	2.065973	-2.864479
F	-2.799479	0.0	0.0
