15

C	0.0	0.0	0.0
C	-0.265729	-0.141355	-1.52965
F	1.411138	0.0	0.0
H	0.347177	-1.007285	-1.802391
N	-0.454508	1.269611	0.467967
H	-0.170165	1.359432	1.438818
H	-1.483883	1.125479	0.435049
N	-0.460193	-1.195169	0.642195
H	-0.198096	-1.127465	1.621769
H	-1.489555	-1.049119	0.57849
C	0.302197	1.017106	-2.234257
N	0.80644	1.881426	-2.847753
C	-1.608093	-0.413891	-2.07206
N	-2.440305	-0.702403	-2.851824
F	-2.704117	0.0	0.0
