15

C	0.0	0.0	0.0
C	-0.288733	-0.3797	-1.487575
F	1.400857	0.0	0.0
H	0.451031	-1.166286	-1.674867
N	-0.463927	1.321051	0.276011
H	-1.491702	1.16829	0.219474
H	-0.230468	1.535059	1.241436
N	-0.45693	-1.087535	0.814706
H	-1.486075	-0.945809	0.752612
H	-0.164133	-0.892692	1.768434
C	0.049633	0.736659	-2.381688
N	0.332532	1.580027	-3.147943
C	-1.576751	-0.96477	-1.892141
N	-2.38005	-1.569296	-2.502615
F	-2.707327	0.0	0.0
