14
Coordinates from ORCA-job run
  C   -0.77953460833471      0.30468416430556     -0.16919162321168
  C   0.41229471742330     -0.65810520579849     -0.04867110187339
  H   -0.76313275236500      0.75481169092193     -1.16909858939589
  H   0.38577793890994     -1.11232361938985      0.94824336778711
  H   0.24804925489236     -1.46461552447167     -0.77240178923299
  C   -0.62474519801107      1.40607441310247      0.79438563267489
  N   -0.46289489260205      2.25518583909972      1.58819309526813
  N   -2.10143414610371     -0.29096781872944      0.01171944429833
  H   -2.25366112195192     -0.98405472262751     -0.71192760112808
  H   -2.14148452706429     -0.76610113966827      0.90674049308453
  C   1.76010024695376      0.01099898538776     -0.29575275428836
  H   2.57129258393671     -0.71816384358285     -0.24535102208103
  H   1.79099995248140      0.47608559576479     -1.28488345136108
  H   1.95837255183527      0.78549118568584      0.44799589945952
