14
Coordinates from ORCA-job run
  C   -0.73777864214387      0.26750238419306     -0.05140827806742
  C   0.44099306698960     -0.70676108756211     -0.11503221180550
  H   -0.74526911465923      0.86100245774500     -0.98044484972636
  H   0.24071649027534     -1.40648008055706     -0.93504261842988
  H   0.43912329228671     -1.28785528940907      0.81102734288212
  C   -0.54433310338165      1.22173875047182      1.05022572284105
  N   -0.37926754817355      1.99184679182837      1.92044980975396
  N   -1.97925529666762     -0.47122704175188      0.18045597016306
  H   -2.76591879521351      0.16686118438800      0.21409610124016
  H   -2.13070528470813     -1.10489355636000     -0.59607444955112
  C   1.78088110178906     -0.01415485731914     -0.33218130335554
  H   2.58532225021024     -0.74811894810775     -0.41287390351010
  H   2.01944335007421      0.65265170834667      0.49928735451408
  H   1.77704823332240      0.57788758409409     -1.25148468694852
