14
Coordinates from ORCA-job run
  C   -0.72391566280450      0.30800838490057     -0.25695113479677
  C   0.79894886838507      0.41559893789099     -0.12701755281774
  H   -0.95512043015789     -0.19863244736315     -1.20884784477678
  H   1.01573196251354      1.00497227676182      0.76787156596780
  H   1.18013264258668      0.96827268942215     -0.99128984282729
  C   -1.30794450670244      1.65290061551713     -0.34580238723958
  N   -1.76954301056689      2.72882978911694     -0.42714329007642
  N   -1.28835398052899     -0.37205823447993      0.91154028445325
  H   -1.06025588066647     -1.35766353897979      0.86013472175167
  H   -2.29901898771971     -0.29757926749902      0.90124639216935
  C   1.46779845611542     -0.95190805681888     -0.03812481452544
  H   1.20754074220553     -1.46111917958084      0.89172646857178
  H   2.55465140731339     -0.84999891035216     -0.05707030260279
  H   1.18134838002727     -1.59062305853584     -0.87927226325102
