18

C	-0.571125	0.009162	-1.429694
C	0.0	0.0	0.0
Br	0.275923	-1.40123	-2.4804
H	1.096307	0.0	0.0
C	-2.070176	-0.193039	-1.507549
H	-2.279117	-1.176056	-1.091421
H	-2.422317	-0.133474	-2.538948
H	-2.592263	0.561594	-0.916844
N	-0.196925	1.337857	-2.06684
O	-1.06387	2.219295	-2.012404
O	0.927769	1.496362	-2.516151
N	-0.481842	-1.232333	0.649955
H	-0.851643	-0.932817	1.545399
H	0.354768	-1.775768	0.843951
N	-0.417188	1.184466	0.750115
H	0.401336	1.777422	0.826485
H	-1.151072	1.715946	0.298738
F	2.62954	0.0	0.0
