18

C	-0.359294	-0.024937	-1.479216
C	0.0	0.0	0.0
Br	-0.112528	1.725765	-2.314593
H	1.09574	0.0	0.0
C	0.513514	-1.036508	-2.193459
H	0.229646	-2.030315	-1.844297
H	1.535943	-0.821319	-1.861195
H	0.4079	-0.976708	-3.275498
N	-1.835151	-0.338613	-1.688612
O	-2.178201	-0.87444	-2.740118
O	-2.613175	-0.024342	-0.785572
N	-0.403459	-1.313876	0.529491
H	0.32176	-1.607087	1.174671
H	-1.278045	-1.228992	1.035482
N	-0.452859	1.172929	0.712451
H	0.172387	1.321704	1.492392
H	-1.403828	1.065714	1.040886
F	2.673866	0.0	0.0
