18

C	-0.364161	0.092485	-1.476231
C	0.0	0.0	0.0
Br	-2.255179	0.636427	-1.745277
H	1.094052	0.0	0.0
C	0.566456	1.065336	-2.166785
H	0.472777	1.014898	-3.254984
H	1.575549	0.807132	-1.823781
H	0.322734	2.066348	-1.815003
N	-0.202156	-1.296008	-2.08234
O	-1.175612	-2.02411	-2.235594
O	0.957988	-1.602264	-2.336067
N	-0.495026	-1.224161	0.592278
H	0.099013	-1.45575	1.377984
H	-1.452978	-1.123841	0.913179
N	-0.340783	1.270862	0.635663
H	0.35779	1.441855	1.350045
H	-1.258357	1.229622	1.066353
F	2.648462	0.0	0.0
