18

C	-0.223421	-0.088058	-1.535679
C	0.0	0.0	0.0
Br	0.284087	1.60622	-2.371303
H	1.101874	0.0	0.0
C	0.683234	-1.164912	-2.099306
H	0.340963	-2.138455	-1.754452
H	1.673648	-0.944684	-1.677738
H	0.698091	-1.155747	-3.192856
N	-1.683928	-0.33794	-1.836234
O	-2.044053	-1.517563	-1.714498
O	-2.447472	0.594934	-2.060549
N	-0.387791	-1.208413	0.706071
H	-1.206475	-1.659918	0.310938
H	0.396798	-1.84622	0.678823
N	-0.729814	1.123146	0.576064
H	-0.215805	1.975488	0.378972
H	-0.687396	0.971461	1.577503
F	2.698912	0.0	0.0
