18

C	-0.585296	-0.002729	-1.409669
C	0.0	0.0	0.0
Br	0.225123	-1.435734	-2.489843
H	1.095059	0.0	0.0
C	-2.086193	-0.124406	-1.477424
H	-2.38087	-1.043136	-0.975522
H	-2.436645	-0.125349	-2.507259
H	-2.520345	0.72922	-0.95459
N	-0.149781	1.286848	-2.095208
O	-1.013786	1.912387	-2.712219
O	1.02221	1.609886	-1.997325
N	-0.509086	-1.183589	0.73095
H	-0.215702	-2.000365	0.199386
H	0.075436	-1.214636	1.563806
N	-0.466715	1.223989	0.640151
H	0.322597	1.620029	1.135626
H	-1.205859	1.000593	1.296085
F	2.649267	0.0	0.0
