17

C	0.0	0.0	0.0
C	-0.541749	0.143221	-1.433336
Br	1.929033	0.0	0.0
H	-1.625493	-0.053578	-1.245376
N	-0.565988	0.972219	0.816298
H	-0.316976	0.789761	1.781932
H	-1.609686	0.787727	0.65702
N	-0.341146	-1.444843	0.55307
O	-0.604662	-2.356328	-0.220217
O	-0.303609	-1.549006	1.773808
C	0.068144	-0.713737	-2.544332
H	-0.512604	-0.556854	-3.457561
H	0.030631	-1.768179	-2.285643
H	1.101645	-0.42453	-2.746481
C	-0.412277	1.545319	-1.824206
N	-0.309197	2.634961	-2.252444
F	-2.792119	0.0	0.0
