13

C	-0.306648	-0.084923	-1.491954
C	0.0	0.0	0.0
Cl	-0.593716	1.632538	-2.147705
H	1.092071	0.0	0.0
H	-1.253927	-0.589986	-1.693935
H	-0.456631	0.85996	0.492856
N	0.770652	-0.703457	-2.197782
H	0.565371	-1.681663	-2.332968
H	1.622882	-0.589594	-1.631378
N	-0.40245	-1.296633	0.598824
H	-1.026351	-1.143485	1.379346
H	0.445902	-1.702939	0.972593
F	2.733193	0.0	0.0
