13

C	-0.115773	-0.30283	-1.511603
C	0.0	0.0	0.0
Cl	-1.115736	1.380557	-2.482776
H	1.095232	0.0	0.0
H	-0.883	-0.981531	-1.888866
H	-0.35675	-0.907743	0.499212
N	1.1217	-0.4865	-2.009649
H	1.145195	-1.090222	-2.823138
H	1.996757	-0.29319	-1.384187
N	-0.608646	1.150968	0.59989
H	-1.550671	1.275164	0.223708
H	-0.082354	1.963763	0.293923
F	2.803973	0.0	0.0
