13

C	-0.063403	0.072482	-1.52418
C	0.0	0.0	0.0
Cl	-1.723288	0.59702	-2.183705
H	1.097998	0.0	0.0
H	0.026382	-0.936833	-1.943727
H	-0.458409	-0.918113	0.373481
N	0.947124	0.9945	-1.955223
H	1.786369	0.774797	-1.376148
H	1.167844	0.852136	-2.931754
N	-0.477928	1.167171	0.72647
H	-1.378174	1.452127	0.351478
H	0.173331	1.919443	0.535462
F	2.751828	0.0	0.0
