13

C	-0.125345	-0.411949	-1.47789
C	0.0	0.0	0.0
Cl	-0.502809	1.240277	-2.523872
H	1.095027	0.0	0.0
H	-1.024301	-0.961303	-1.770857
H	-0.459766	0.963788	0.206947
N	1.049453	-1.034068	-1.837924
H	1.156511	-1.285695	-2.807068
H	1.895218	-0.65296	-1.345341
N	-0.470492	-1.029151	0.92584
H	-1.380064	-1.381872	0.644796
H	0.187319	-1.79729	0.881881
F	2.790101	0.0	0.0
