13

C	-0.383585	-0.03349	-1.445638
C	0.0	0.0	0.0
Cl	-2.361334	-0.390439	-1.548948
H	1.09403	0.0	0.0
H	-0.030371	-0.926931	-1.954547
H	-0.367134	-0.910712	0.47944
N	-0.089788	1.118332	-2.157591
H	-0.431165	1.115499	-3.106324
H	-0.372349	1.949961	-1.659504
N	-0.455965	1.17574	0.730073
H	-1.382944	1.474613	0.450673
H	0.215755	1.92197	0.613056
F	2.668589	0.0	0.0
