17

C	0.0	0.0	0.0
C	-0.407348	0.009469	-1.485631
F	1.378943	0.0	0.0
H	-0.005236	-0.911554	-1.929845
C	-0.483198	1.17359	0.837446
H	-0.241475	2.095186	0.310372
H	-0.020464	1.132622	1.821732
H	-1.565311	1.134241	0.986745
N	-0.51732	-1.29014	0.593528
O	-0.325765	-2.324357	-0.125271
O	-0.488475	-1.354623	1.868447
N	0.063611	1.252997	-2.097666
H	1.07011	1.190282	-2.184916
H	-0.337012	1.342962	-3.022128
C	-1.884496	-0.051813	-1.52972
N	-3.063309	-0.11958	-1.718371
H	-1.577929	0.0	0.0
