17

C	0.0	0.0	0.0
C	-0.266724	0.261138	-1.519028
F	1.366571	0.0	0.0
H	0.461143	1.06264	-1.726592
C	-0.681996	0.917968	0.937621
H	-0.487479	1.947587	0.603581
H	-1.769043	0.689645	0.804686
H	-0.339024	0.751624	1.961407
N	-0.263206	-1.479603	0.319846
O	-1.101441	-2.096413	-0.340141
O	0.419012	-1.943725	1.248182
N	-1.579459	0.736827	-1.867901
H	-2.340212	0.305415	-1.295157
H	-1.732368	0.618292	-2.869629
C	0.239413	-0.88525	-2.317168
N	0.659435	-1.707809	-3.049988
H	-3.287728	0.0	0.0
