17

C	0.0	0.0	0.0
C	-0.30753	0.242253	-1.519871
F	1.361237	0.0	0.0
H	0.486762	0.939725	-1.814149
C	-0.504094	1.114221	0.877054
H	-0.18439	2.088725	0.498323
H	-1.601346	1.059166	0.898186
H	-0.110379	0.949075	1.881744
N	-0.62867	-1.232793	0.461133
O	-1.78774	-1.383832	-0.138926
O	-0.34911	-1.623141	1.624177
N	-1.567757	0.813134	-1.942307
H	-1.573249	1.788725	-1.664886
H	-2.308673	0.361383	-1.389527
C	-0.026437	-0.994584	-2.269629
N	0.260645	-1.930265	-2.917645
H	-3.043964	0.0	0.0
