17

C	0.0	0.0	0.0
C	-0.384762	0.203281	-1.476446
F	1.362044	0.0	0.0
H	0.306255	1.016861	-1.760173
C	-0.573409	1.047325	0.908233
H	-0.12529	0.943214	1.897512
H	-1.660195	0.906736	0.95336
H	-0.357988	2.033967	0.494934
N	-0.380724	-1.37234	0.542465
O	-0.015657	-1.590445	1.696456
O	-0.963868	-2.164084	-0.189086
N	-1.745221	0.627716	-1.671111
H	-2.073595	0.357825	-2.589496
H	-2.464451	0.261756	-0.952996
C	0.080037	-0.932923	-2.311176
N	0.473103	-1.702783	-3.10841
H	-3.52646	0.0	0.0
