13

C	0.0	0.0	0.0
C	-0.510225	0.406686	-1.390041
F	1.376497	0.0	0.0
H	-1.615941	0.364964	-1.311125
H	-0.313264	-1.037517	0.176381
N	-0.466132	0.952781	0.95441
H	-1.487745	0.938284	0.905818
H	-0.201455	0.638084	1.881501
C	-0.056199	-0.543771	-2.405855
N	0.293542	-1.323915	-3.210171
C	-0.078937	1.761025	-1.739855
N	0.276934	2.842322	-2.02495
Cl	-3.4595	0.0	0.0
