13

C	0.0	0.0	0.0
C	-0.410203	-0.511563	-1.414905
F	1.399519	0.0	0.0
H	0.551316	-0.611386	-1.936537
H	-0.305162	-0.726037	0.759247
N	-0.431033	1.340395	0.195378
H	-0.176414	1.623136	1.135957
H	-1.454969	1.305903	0.152788
C	-1.187536	0.42322	-2.236144
N	-1.629959	1.167649	-3.029528
C	-0.981134	-1.861058	-1.388226
N	-1.246005	-3.003538	-1.417589
Cl	-3.265542	0.0	0.0
