13

C	0.0	0.0	0.0
C	-0.501172	-0.401226	-1.392703
F	1.39605	0.0	0.0
H	-1.606627	-0.395648	-1.308677
H	-0.302155	-0.783911	0.705757
N	-0.463566	1.314329	0.294655
H	-0.20136	1.544739	1.246402
H	-1.485817	1.274516	0.259515
C	-0.040095	-1.745795	-1.741291
N	0.339036	-2.828231	-1.991567
C	-0.068951	0.555932	-2.413041
N	0.274619	1.28631	-3.264899
Cl	-3.453814	0.0	0.0
