13

C	0.0	0.0	0.0
C	-0.221769	-0.070806	-1.544902
F	1.399402	0.0	0.0
H	0.454937	0.721766	-1.887168
H	-0.324305	-0.913441	0.507512
N	-0.480645	1.234097	0.50911
H	-0.283166	1.268235	1.504506
H	-1.502213	1.179056	0.414621
C	-1.488865	0.192481	-2.242994
N	-2.23121	0.453498	-3.115848
C	0.334373	-1.338471	-2.039559
N	0.803654	-2.335294	-2.444763
Cl	-3.353403	0.0	0.0
