13

C	0.0	0.0	0.0
C	-0.515636	0.315784	-1.410994
F	1.371266	0.0	0.0
H	-1.620203	0.281525	-1.316306
H	-0.318584	-1.021658	0.242025
N	-0.474006	1.011334	0.887201
H	-1.49697	0.962545	0.866278
H	-0.175052	0.784342	1.829457
C	-0.073208	-0.701058	-2.3661
N	0.264153	-1.52443	-3.132111
C	-0.078618	1.641089	-1.851686
N	0.292301	2.681732	-2.247408
Cl	-3.467316	0.0	0.0
