13
Coordinates from ORCA-job run
  C   1.01921484673340      0.36738363963917      0.29112674198911
  C   -0.30310332077684      0.19457317355584      0.16604278463078
  H   1.45948585010884      1.11372815500322      0.93751710383688
  N   1.99660926607270     -0.49271768840877     -0.35578131831363
  O   3.04919403430334     -0.63737865170024      0.26567055247378
  O   1.72946711319999     -0.98950878363838     -1.44904490403687
  N   -1.11942755782259      1.19770170176199      0.90023634869705
  O   -2.28040952778003      1.32252833468119      0.51446303304121
  O   -0.59554713013840      1.83229613502651      1.81111412254043
  C   -1.08398699169581     -0.79775598876847     -0.61838151368270
  H   -1.49311436939253     -0.32553308512351     -1.51399788974113
  H   -1.92402332821392     -1.15736633362303     -0.02338934742284
  H   -0.45435888459816     -1.62895060840553     -0.92357571401207
