13
Coordinates from ORCA-job run
  C   0.98824405276014      0.52850610502084      0.04657286878794
  C   -0.30527459018036      0.19887765066601      0.15633820391051
  H   1.39740022025555      1.45252106613640      0.43061260440989
  N   1.99047030388712     -0.36544953345823     -0.51012539596231
  O   3.11625832545512     -0.24441992492139     -0.02747209695759
  O   1.66891268736211     -1.14477469721309     -1.40605212558020
  N   -1.15770435394033      1.26770073745412      0.74265216824651
  O   -2.36055128332280      1.17908489826675      0.50304857912484
  O   -0.62180184110213      2.15620249213300      1.39854099513871
  C   -1.03305101050583     -1.03116587656867     -0.25204721142882
  H   -1.74554726553596     -1.31139916126753      0.52440852844368
  H   -1.60058836874819     -0.84215303494114     -1.16571194991629
  H   -0.33876687638445     -1.84553072130705     -0.43976516821687
