13
Coordinates from ORCA-job run
  C   0.99253151279852     -0.37579222171388     -0.28870924083587
  C   -0.29324398292271     -0.09654888113588     -0.06087404354697
  H   1.31202901889366     -1.25106579049207     -0.83871714454326
  N   2.10311128629731      0.41826664859227      0.21423054710008
  O   1.87530217908212      1.55181981728215      0.62784054345888
  O   3.20247008496831     -0.13345336187881      0.17121350413628
  N   -0.70674007607216      1.07320218621776      0.72829385692396
  O   -0.67291660778470      0.95222946413180      1.94713514334269
  O   -1.12574662852923      2.02782134931799      0.08408301230366
  C   -1.44760672062367     -0.89619574423003     -0.55627550239360
  H   -1.11023944274896     -1.76862615709350     -1.11568994726301
  H   -2.05654185289662     -1.22756835213419      0.28922265362661
  H   -2.07240877046188     -0.27408895686360     -1.20175338230944
