13
Coordinates from ORCA-job run
  C   0.98829591954535     -0.44894040603551     -0.15886603359710
  C   -0.29394832276495     -0.12340502988667      0.04439725094117
  H   1.26686996498521     -1.40085397862759     -0.59291903928610
  N   2.13224949799665      0.43268840043335      0.04565756163182
  O   2.13371729525783      1.20376349048524      0.99950428053254
  O   3.00237942696061      0.33783896277285     -0.81786193021405
  N   -0.70114996776912      1.17731316434511      0.60363854711145
  O   -1.19811578374590      1.95994555646684     -0.20368893222355
  O   -0.59986761822426      1.33478053002398      1.81421917151745
  C   -1.45734261390244     -0.96499305179279     -0.35775330379350
  H   -1.13433505969721     -1.96330074195198     -0.65360865816103
  H   -2.16288400183934     -1.05288787515927      0.47216885105067
  H   -1.97586873680244     -0.49194902107356     -1.19388776550976
