13
Coordinates from ORCA-job run
  C   1.01590546053574      0.39939023258733      0.25874069475240
  C   -0.30461168421166      0.20103613232521      0.15456344262395
  H   1.44956669040522      1.18967078151937      0.85546972464773
  N   2.00118952676909     -0.48714295751767     -0.33866721961348
  O   1.73521003096084     -1.05471431005812     -1.39720317408558
  O   3.05858375575443     -0.57939638621398      0.28458450019540
  N   -1.13041398473056      1.23660554706193      0.83183283101873
  O   -2.29611365543621      1.32017547846299      0.44942449103675
  O   -0.60854382083339      1.93478524301113      1.69610739553792
  C   -1.07673329334193     -0.84899820058590     -0.56004477636604
  H   -0.43699440766397     -1.68742259957208     -0.82118301648153
  H   -1.90537548547669     -1.18458808201802      0.06433382240543
  H   -1.50266913273092     -0.43840087900218     -1.47795871567167
