13
Coordinates from ORCA-job run
  C   0.97786137022489      0.52169942142593      0.22862569113578
  C   -0.31591950309960      0.20370927162232      0.17854396604321
  H   1.37629031238719      1.37429112016458      0.76150646168713
  N   1.97595429863183     -0.30375733735511     -0.43534756006372
  O   2.97272405663406     -0.55878600038546      0.23707267007341
  O   1.80385741338119     -0.58436641572585     -1.61961796482485
  N   -1.22622897526473      1.14402706815947      0.86113614810626
  O   -0.77931285969378      1.83279666448674      1.77385511690094
  O   -2.41500039264379      1.03385034449133      0.56312624423297
  C   -0.96608286343604     -0.94905460251342     -0.50413543155907
  H   -0.24066617773639     -1.73709186627813     -0.70054904477788
  H   -1.39198918195741     -0.63659525776611     -1.45941604519646
  H   -1.77248749742742     -1.34072241032628      0.11519974824229
