13
Coordinates from ORCA-job run
  C   1.00584941605480     -0.40625069200111     -0.16846162978953
  C   -0.29007208011113     -0.10399723742982     -0.05508944392979
  H   1.35309244845547     -1.33594805905560     -0.59940904831355
  N   2.09485520809854      0.45918080923886      0.25852484973989
  O   3.22514786008392      0.00748322360613      0.07395228017618
  O   1.82182300960512      1.54721986233339      0.75788796543009
  N   -0.75242626889977      1.16241926678046      0.53095322104826
  O   -0.94926951730437      2.07994451707599     -0.25668686520917
  O   -0.98063566803157      1.14769856952810      1.73454758854619
  C   -1.41365018815402     -0.97973001456679     -0.48961294951134
  H   -2.02119607598551     -0.45534010819086     -1.23181607859652
  H   -2.05015547004202     -1.21291652263819      0.36800257831331
  H   -1.04336267376946     -1.90876361468055     -0.92279246790403
