13
Coordinates from ORCA-job run
  C   0.98328557284448      0.32242471182931      0.43398899485075
  C   -0.32010646020791      0.15169604657424      0.17730837122912
  H   1.35201365361806      0.97814150602342      1.21037181956851
  N   2.03559895959501     -0.27914507350471     -0.36885713279576
  O   3.06957245914485      0.38414902650031     -0.44614309899115
  O   1.84237344454806     -1.37803762965332     -0.88697719583568
  N   -1.22423190893312      0.84816530401371      1.13138416351902
  O   -2.37638184354534      0.42108929233917      1.17934006194072
  O   -0.77402703583324      1.77118538457031      1.80382010536292
  C   -1.00868875812151     -0.64976469344470     -0.86814542519507
  H   -1.83979915059003     -0.07757177996766     -1.28169217577672
  H   -0.31579519802981     -0.93225881208922     -1.65588181957087
  H   -1.42281373448949     -1.55907328319085     -0.42751666830579
