13
Coordinates from ORCA-job run
  C   0.98963835340666      0.39143857236286      0.35554462563635
  C   -0.31570295286874      0.20706357412046      0.11896577908313
  H   1.37461806726484      1.22135532233524      0.93149296134871
  N   2.02654190330128     -0.45076261328419     -0.21780263455447
  O   1.79064601318248     -1.64111968854811     -0.42000170119747
  O   3.09237225035495      0.12259667518521     -0.44256733010509
  N   -1.20288107045431      1.17586467665037      0.81723022945640
  O   -2.37440083049265      0.82521072354562      0.94664464880842
  O   -0.72151167729954      2.22935692109956      1.22378852524989
  C   -1.02275497959368     -0.82446505682652     -0.68444651752513
  H   -1.82275789797782     -0.35721913070995     -1.25955257681670
  H   -1.48128633586450     -1.56211741258446     -0.02246729101081
  H   -0.33152084295899     -1.33820256334610     -1.34682871837324
