13
Coordinates from ORCA-job run
  C   0.97382396512476      0.55526102640055     -0.05005290190377
  C   -0.31955956474413      0.22649531206398      0.06258948595617
  H   1.33135804588474      1.57445605347112     -0.00453705298754
  N   2.01616113046994     -0.41576219561829     -0.34096436903298
  O   2.96182857714363      0.02169665986318     -0.99617740326082
  O   1.90180092555360     -1.56478599628058      0.08337441105630
  N   -1.21387069563060      1.37317626729436      0.37650022833184
  O   -0.81123610440500      2.51205892003781      0.15848882388443
  O   -2.30700441495343      1.07821474833327      0.85627961700805
  C   -0.99818292835375     -1.09291020449086     -0.02781954203197
  H   -1.92208056656585     -0.99275537280835     -0.59817342056713
  H   -1.26476213644577     -1.44404025736745      0.97129598166655
  H   -0.34727623307815     -1.83010496089875     -0.48980385811913
