13
Coordinates from ORCA-job run
  C   0.97408980606792     -0.34728401075727     -0.37442347341174
  C   -0.29607157067406     -0.09711486933013     -0.04669086685337
  H   1.26474315744424     -1.18437645451200     -0.99524552676646
  N   2.10769306696341      0.43365814146127      0.09812445318691
  O   3.20453270971694     -0.11177070371900     -0.02019189286835
  O   1.89864961265015      1.55193184092320      0.56037691139860
  N   -0.66423070033874      1.01940074069713      0.83635189676727
  O   -1.16045216009140      1.99332159026450      0.28191921251287
  O   -0.51988337738305      0.83900034642275      2.03974628020844
  C   -1.47390030037974     -0.88067285437808     -0.51144282064937
  H   -2.02441550496008     -1.26629649674815      0.35101287903528
  H   -2.14452290328058     -0.23116222909185     -1.07906476573474
  H   -1.16623183573501     -1.71663504123239     -1.13947228682534
