13
Coordinates from ORCA-job run
  C   1.00844011439029      0.17082006418619      0.46122887619733
  C   -0.30841139696039      0.10532627572165      0.22553389222573
  H   1.42522969234589      0.52805672514192      1.39253460559856
  N   2.00694494650641     -0.32367096355358     -0.47252822132842
  O   1.78436218951003     -0.25831917001708     -1.68067708836989
  O   3.03038551734593     -0.76412372051674      0.05058363881066
  N   -1.14943387138710      0.68068297798969      1.30916761223200
  O   -0.65911693326468      0.81926568018774      2.42592795127628
  O   -2.29394865036246      0.99212041189370      0.98464933246305
  C   -1.06154164605264     -0.40090207903367     -0.95173407023707
  H   -0.42323650761966     -1.01224761784089     -1.58365371127867
  H   -1.43433268871295      0.43760511827556     -1.54378563115660
  H   -1.92534076573867     -0.97561370243449     -0.61624718643298
