13
Coordinates from ORCA-job run
  C   1.02934094617819      0.42790089613505      0.12724300056961
  C   -0.29626480855986      0.23698599249824      0.11413755128152
  H   1.49126576624959      1.34808090511816      0.45674682124412
  N   1.97615277544517     -0.54548602702646     -0.39217093074136
  O   2.99954373032321     -0.06309984148519     -0.87701911877996
  O   1.71490659793135     -1.74437090101259     -0.30363818155556
  N   -1.07762944743725      1.35567304958867      0.70687149308631
  O   -0.54459630792752      2.45635623102119      0.81241707325572
  O   -2.21967706428278      1.07438194452519      1.06571149711333
  C   -1.10789505062129     -0.91895210707807     -0.34905114482322
  H   -1.46989780255619     -1.48764710330785      0.51008423518638
  H   -1.98011058207866     -0.55980102527022     -0.89612119429208
  H   -0.51513875266396     -1.58002201370611     -0.97521110154482
