13
Coordinates from ORCA-job run
  C   0.99299265874042     -0.33130046280015     -0.33649853171011
  C   -0.29253816397147     -0.09959998467602     -0.05919492984389
  H   1.31818208162291     -1.15687098422237     -0.95565645837671
  N   2.09819629723856      0.45250884250678      0.19421198578711
  O   1.85466972284717      1.54461196995712      0.70018604602066
  O   3.20945421896689     -0.06350078303391      0.07696176902581
  N   -0.71260237641619      1.00141340869259      0.82005009017669
  O   -1.16421023894823      1.99048516591716      0.25457996483930
  O   -0.65031873179111      0.79436677565798      2.02614402569118
  C   -1.44034780384445     -0.88921305215765     -0.58511832913038
  H   -2.02099563696436     -1.29541794793803      0.24755936723517
  H   -2.09458116644084     -0.23775536572119     -1.16957535282153
  H   -1.09690086103929     -1.71072758218232     -1.21364964689331
