16

C	0.0	0.0	0.0
C	-0.375705	-0.041964	-1.485621
F	1.397662	0.0	0.0
H	0.136249	-0.924256	-1.893023
H	-1.456772	-0.17292	-1.528741
C	-0.48745	1.213205	0.665223
N	-0.620971	2.238257	1.228932
C	-0.36654	-1.259352	0.780708
H	-1.449965	-1.319107	0.849745
H	0.055578	-2.116254	0.24479
H	0.114486	-1.206754	1.761243
C	0.081957	1.204347	-2.239426
H	1.16685	1.339471	-2.177869
H	-0.399994	2.098552	-1.834102
H	-0.19163	1.130073	-3.297932
F	-2.623803	0.0	0.0
