17

C	-0.569351	0.0525	-1.402627
C	0.0	0.0	0.0
Cl	0.590119	-0.911685	-2.504273
H	1.087327	0.0	0.0
N	-1.900371	-0.325124	-1.548484
H	-2.195558	-0.23031	-2.512163
H	-1.995335	-1.275748	-1.210617
N	-0.388231	1.459375	-1.977968
O	0.580816	2.09676	-1.594151
O	-1.186699	1.797111	-2.844801
N	-0.335577	-1.192435	0.710246
O	-0.040338	-1.239107	1.916984
O	-0.720637	-2.190842	0.049047
N	-0.366046	1.188595	0.799453
O	-1.326436	1.871653	0.417345
O	0.328691	1.425496	1.786626
H	2.268105	0.0	0.0
