17

C	-0.280463	0.055756	-1.492492
C	0.0	0.0	0.0
Cl	-1.958232	0.545401	-1.972675
H	1.092011	0.0	0.0
N	0.689961	0.858286	-2.052623
H	0.75288	0.756934	-3.05587
H	1.597061	0.689672	-1.580187
N	-0.224034	-1.439059	-2.066687
O	-1.044753	-2.249363	-1.661082
O	0.629345	-1.638677	-2.923897
N	-0.543434	-1.177688	0.70739
O	-1.694159	-1.107288	1.13542
O	0.206946	-2.146809	0.803546
N	-0.369581	1.205812	0.758978
O	-0.239012	1.09859	1.980205
O	-0.64185	2.241969	0.157929
H	2.503122	0.0	0.0
