17

C	-0.298282	-0.037967	-1.492002
C	0.0	0.0	0.0
Cl	-0.449457	1.684158	-2.180162
H	1.089914	0.0	0.0
N	0.686977	-0.801002	-2.066838
H	0.676634	-0.818207	-3.073057
H	1.606955	-0.602413	-1.638113
N	-1.702359	-0.576611	-1.838289
O	-1.794292	-1.24862	-2.855834
O	-2.612686	-0.239049	-1.097855
N	-0.363356	-1.248807	0.691172
O	-0.83446	-2.185472	0.042099
O	-0.045567	-1.288773	1.88039
N	-0.499574	1.149476	0.777327
O	-1.514397	1.009177	1.460849
O	0.173791	2.174399	0.693487
H	2.497388	0.0	0.0
