17

C	-0.436863	0.010493	-1.449154
C	0.0	0.0	0.0
Cl	0.146349	1.522913	-2.202466
H	1.089463	0.0	0.0
N	0.049453	-1.081139	-2.175364
H	0.052961	-1.928864	-1.622144
H	-0.372723	-1.16382	-3.088005
N	-2.014166	0.032886	-1.54992
O	-2.549565	0.644502	-2.462462
O	-2.573821	-0.721691	-0.764624
N	-0.345973	-1.173168	0.767901
O	-0.002131	-2.264026	0.272061
O	-0.820676	-1.047695	1.901819
N	-0.455985	1.19528	0.725046
O	-1.450076	1.803861	0.313242
O	0.227	1.521834	1.695817
H	2.347879	0.0	0.0
