17

C	-0.565725	0.055789	-1.402609
C	0.0	0.0	0.0
Cl	0.57281	-0.920908	-2.502283
H	1.087553	0.0	0.0
N	-1.902587	-0.302909	-1.531434
H	-2.028515	-1.211444	-1.100243
H	-2.18735	-0.299402	-2.501183
N	-0.390205	1.463192	-1.981559
O	0.543859	2.131846	-1.558761
O	-1.164533	1.783442	-2.875082
N	-0.393406	-1.126992	0.740311
O	-0.139267	-1.083887	1.971439
O	-0.725179	-2.181122	0.12418
N	-0.347578	1.231161	0.802577
O	0.558448	1.836914	1.355928
O	-1.54084	1.528651	0.846793
H	2.282542	0.0	0.0
