17

C	-0.558357	-0.013	-1.407645
C	0.0	0.0	0.0
Cl	0.578658	-1.063295	-2.438187
H	1.08823	0.0	0.0
N	-1.90003	-0.361949	-1.540664
H	-2.179572	-0.34512	-2.512512
H	-2.024677	-1.276156	-1.12197
N	-0.34094	1.360526	-2.054122
O	-1.132792	1.676269	-2.933671
O	0.636457	1.999588	-1.69329
N	-0.357949	-1.1366	0.775626
O	-0.784064	-2.161655	0.179482
O	-0.046597	-1.122174	1.982935
N	-0.341289	1.244049	0.729722
O	-1.317489	1.894608	0.335686
O	0.390264	1.552586	1.669117
H	2.261973	0.0	0.0
