17

C	-0.576021	0.005537	-1.411861
C	0.0	0.0	0.0
Cl	-0.014693	-1.538028	-2.241838
H	1.087006	0.0	0.0
N	-1.953277	0.226418	-1.434704
H	-2.41601	-0.506315	-0.912992
H	-2.306663	0.322041	-2.376743
N	0.093037	1.081506	-2.303341
O	-0.665948	1.751549	-2.997384
O	1.308342	1.130563	-2.299349
N	-0.441271	-1.148527	0.786809
O	-1.411938	-1.831076	0.413049
O	0.232494	-1.380246	1.794691
N	-0.387529	1.225275	0.681501
O	-0.883752	1.184761	1.813656
O	-0.115339	2.259775	0.056641
H	2.364561	0.0	0.0
