15

C	-0.342337	0.025109	-1.474842
C	0.0	0.0	0.0
Cl	-2.110986	-0.02267	-1.815965
H	1.091648	0.0	0.0
H	0.036776	-0.911063	-1.890682
N	0.220218	1.234331	-2.014228
H	0.233209	1.178225	-3.023721
H	1.179188	1.31876	-1.681653
N	-0.4351	-1.239344	0.698699
O	-0.565327	-2.248927	0.010732
O	-0.536925	-1.183318	1.918195
N	-0.538073	1.187512	0.710758
O	-1.718644	1.149282	1.052881
O	0.228928	2.134574	0.856867
Cl	3.173152	0.0	0.0
