15

C	-0.524314	0.027398	-1.424413
C	0.0	0.0	0.0
Cl	0.023564	-1.51621	-2.234476
H	1.087919	0.0	0.0
H	0.042093	0.806909	-1.930775
N	-1.913992	0.292562	-1.514012
H	-2.188879	0.444155	-2.47465
H	-2.443153	-0.470357	-1.114182
N	-0.511478	-1.130655	0.82312
O	-1.586706	-1.644397	0.50417
O	0.166369	-1.44791	1.792207
N	-0.450008	1.265866	0.669357
O	-1.132895	1.188915	1.685715
O	-0.084648	2.295645	0.118143
Cl	3.198873	0.0	0.0
