15

C	-0.466245	-0.003758	-1.44156
C	0.0	0.0	0.0
Cl	-2.265605	-0.499746	-1.534132
H	1.08954	0.0	0.0
H	0.045807	-0.840541	-1.912155
N	-0.163556	1.194447	-2.100067
H	-0.713462	1.966848	-1.755423
H	-0.231085	1.105969	-3.102148
N	-0.438402	-1.26283	0.674607
O	-0.044032	-2.285403	0.127258
O	-1.146749	-1.201277	1.672748
N	-0.462091	1.156582	0.811345
O	0.048334	1.267544	1.919385
O	-1.298293	1.92518	0.327893
Cl	3.174642	0.0	0.0
