15

C	-0.476044	-0.055528	-1.437448
C	0.0	0.0	0.0
Cl	0.08435	1.474182	-2.273802
H	1.087592	0.0	0.0
H	-1.563054	-0.025891	-1.499006
N	0.05751	-1.244562	-1.98898
H	1.070397	-1.259706	-1.880979
H	-0.185149	-1.340971	-2.967353
N	-0.512863	-1.232136	0.692118
O	-1.72511	-1.257972	0.911301
O	0.287682	-2.115796	0.954323
N	-0.556129	1.138882	0.779474
O	-1.521388	1.747067	0.323341
O	-0.02262	1.341954	1.867586
Cl	3.225835	0.0	0.0
