15

C	-0.335682	0.007303	-1.488649
C	0.0	0.0	0.0
Cl	-2.10556	-0.063477	-1.775107
H	1.090877	0.0	0.0
H	0.063235	-0.93776	-1.858358
N	0.268218	1.078965	-2.223632
H	1.27677	0.986781	-2.115677
H	-0.017668	1.962076	-1.819296
N	-0.532389	-1.229989	0.64607
O	-1.408449	-1.131278	1.500287
O	-0.072549	-2.278491	0.202
N	-0.425997	1.192472	0.777417
O	-0.080451	1.211842	1.95372
O	-1.036253	2.091375	0.195172
Cl	3.159563	0.0	0.0
