15

C	-0.530333	-0.009893	-1.421597
C	0.0	0.0	0.0
Cl	0.097278	-1.513568	-2.242738
H	1.103386	0.0	0.0
H	-0.014583	0.801002	-1.932926
N	-1.933319	0.177463	-1.498144
H	-2.216617	0.341325	-2.45414
H	-2.412859	-0.629753	-1.119282
N	-0.482334	-1.116741	0.85683
O	0.133498	-1.299702	1.898624
O	-1.459328	-1.769142	0.482236
N	-0.462988	1.280163	0.632885
O	-0.106677	2.297162	0.052776
O	-1.156455	1.22877	1.641999
Cl	3.191972	0.0	0.0
