15

C	-0.474292	-0.019375	-1.439117
C	0.0	0.0	0.0
Cl	0.106055	1.521037	-2.239124
H	1.096327	0.0	0.0
H	-1.560995	0.025374	-1.502304
N	0.045319	-1.202642	-2.019133
H	-0.187238	-1.266282	-3.00082
H	1.056451	-1.238287	-1.903324
N	-0.515376	-1.245779	0.661931
O	-1.718713	-1.25647	0.923986
O	0.273111	-2.156629	0.859013
N	-0.552053	1.118042	0.811715
O	-0.052383	1.254949	1.925958
O	-1.485878	1.771828	0.354094
Cl	3.226377	0.0	0.0
