15

C	-0.430983	-0.166843	-1.449139
C	0.0	0.0	0.0
Cl	-0.44008	1.515424	-2.243185
H	1.104779	0.0	0.0
H	-1.466369	-0.488689	-1.532864
N	0.464367	-1.077702	-2.024324
H	1.43659	-0.821424	-1.86168
H	0.281676	-1.262212	-2.999369
N	-0.472263	-1.152143	0.837495
O	-1.184634	-2.012863	0.330144
O	-0.103839	-1.122041	2.00764
N	-0.598638	1.199028	0.644796
O	0.139448	2.11951	0.965999
O	-1.822571	1.16019	0.785906
Cl	3.235986	0.0	0.0
