15

C	-0.518929	-0.247827	-1.405148
C	0.0	0.0	0.0
Cl	-0.486151	1.357252	-2.330086
H	1.088987	0.0	0.0
H	-1.573507	-0.512621	-1.389297
N	0.273504	-1.261861	-1.964609
H	1.261982	-1.026691	-1.943399
H	-0.02522	-1.521747	-2.892936
N	-0.46002	-1.08979	0.929116
O	0.002198	-1.023737	2.063179
O	-1.259122	-1.928538	0.525116
N	-0.565736	1.247301	0.588171
O	0.180922	2.201401	0.748724
O	-1.771471	1.213697	0.841134
Cl	3.231625	0.0	0.0
