15

C	-0.561193	0.007693	-1.414019
C	0.0	0.0	0.0
Cl	0.204352	-1.276614	-2.381606
H	1.087909	0.0	0.0
H	-0.220195	0.944803	-1.865213
N	-1.991371	-0.204111	-1.420611
H	-2.422643	0.578632	-0.94196
H	-2.318386	-0.21168	-2.379031
N	-0.549063	-1.147957	0.780695
O	-1.535252	-0.94072	1.484872
O	0.005808	-2.22566	0.610112
N	-0.399262	1.243491	0.739507
O	-1.097852	2.080685	0.160161
O	0.033734	1.346253	1.879318
Cl	3.194373	0.0	0.0
