16

C	-0.47021	-0.091466	-1.442412
C	0.0	0.0	0.0
F	0.135794	0.859669	-2.196988
H	1.101509	0.0	0.0
C	-0.27667	-1.413792	-2.041869
N	-0.136364	-2.435789	-2.605326
N	-1.979434	0.209146	-1.508937
O	-2.331368	1.189129	-2.146305
O	-2.70212	-0.573755	-0.903543
N	-0.432393	-1.148722	0.741385
H	0.225517	-1.345471	1.482625
H	-1.368813	-1.023422	1.10217
N	-0.539083	1.267799	0.522923
H	-0.216597	1.334851	1.484262
H	-0.078456	2.02927	0.03001
Br	3.535925	0.0	0.0
