16

C	-0.608668	0.045909	-1.393306
C	0.0	0.0	0.0
F	-1.969836	0.171574	-1.272917
H	1.092297	0.0	0.0
C	-0.115506	1.137709	-2.236177
N	0.200654	2.015374	-2.949165
N	-0.350333	-1.265941	-2.124998
O	-1.298675	-2.02122	-2.277142
O	0.807247	-1.437235	-2.476391
N	-0.412012	-1.253276	0.60674
H	0.266963	-1.514218	1.310269
H	-1.331002	-1.185086	1.02652
N	-0.388396	1.254699	0.629525
H	0.310873	1.506134	1.317715
H	-1.296265	1.182259	1.072965
Br	3.466942	0.0	0.0
