16

C	-0.559666	-0.018504	-1.422316
C	0.0	0.0	0.0
F	-0.010081	-1.010544	-2.159431
H	1.09349	0.0	0.0
C	-2.023882	-0.18561	-1.39336
N	-3.179678	-0.363806	-1.285731
N	-0.255505	1.292703	-2.141111
O	-1.150167	2.130871	-2.175503
O	0.868628	1.389302	-2.610369
N	-0.401384	-1.264922	0.601083
H	-1.218884	-1.151736	1.186688
H	0.364147	-1.621726	1.157754
N	-0.41844	1.235704	0.627924
H	0.268753	1.505552	1.318748
H	-1.328718	1.156238	1.064216
Br	3.471054	0.0	0.0
