14

C	-0.490961	-0.069742	-1.468343
C	0.0	0.0	0.0
Cl	0.052662	1.373055	-2.372994
H	1.094608	0.0	0.0
C	0.033634	-1.276469	-2.112369
N	0.405302	-2.258267	-2.638817
C	-1.957861	-0.119776	-1.496118
N	-3.132741	-0.149005	-1.478836
N	-0.443176	-1.209768	0.667853
H	0.325708	-1.587968	1.207242
H	-1.243543	-1.054478	1.265299
C	-0.495818	1.227877	0.626566
N	-0.912056	2.169783	1.193677
Cl	3.192713	0.0	0.0
