14

C	-0.487055	-0.080924	-1.475256
C	0.0	0.0	0.0
Cl	0.291645	-1.473871	-2.270206
H	1.094441	0.0	0.0
C	-1.940666	-0.282842	-1.496515
N	-3.104745	-0.44383	-1.477575
C	-0.160945	1.137906	-2.221108
N	0.06636	2.109335	-2.842673
N	-0.438871	-1.18318	0.712194
H	-1.23534	-1.001664	1.307001
H	0.33305	-1.531289	1.266023
C	-0.496791	1.247866	0.587998
N	-0.931848	2.208701	1.108108
Cl	3.19983	0.0	0.0
