14

C	-0.491245	-0.115316	-1.466208
C	0.0	0.0	0.0
Cl	0.052158	1.298806	-2.416442
H	1.094541	0.0	0.0
C	0.034112	-1.341334	-2.071509
N	0.417021	-2.337966	-2.561603
C	-1.957953	-0.166835	-1.491582
N	-3.132569	-0.201299	-1.469945
N	-0.442537	-1.190112	0.704662
H	0.329513	-1.553059	1.249542
H	-1.236878	-1.014989	1.304236
C	-0.498426	1.244723	0.588001
N	-0.931278	2.200666	1.11781
Cl	3.194971	0.0	0.0
