15

C	-0.499006	-0.092487	-1.428354
C	0.0	0.0	0.0
Cl	-0.110442	1.414426	-2.364008
H	1.093903	0.0	0.0
H	0.081538	-0.869073	-1.932001
H	-0.306799	-0.948086	0.471726
C	-1.988143	-0.352171	-1.59249
H	-2.57231	0.467138	-1.168252
H	-2.252793	-1.27548	-1.066623
H	-2.264339	-0.457335	-2.645067
C	-0.538276	1.169292	0.812045
H	-0.228818	2.115668	0.363413
H	-0.098817	1.132376	1.812488
H	-1.630577	1.181645	0.922455
F	2.731622	0.0	0.0
