13

C	0.0	0.0	0.0
C	-0.580884	-0.050076	-1.398813
F	1.391199	0.0	0.0
H	-0.374879	0.881878	-1.93579
H	-0.313271	-0.904181	0.530125
H	-1.685656	-0.12498	-1.215336
C	-0.5002	1.219986	0.733265
H	-1.596325	1.156246	0.745318
H	-0.107029	1.235408	1.753425
H	-0.176536	2.128863	0.215591
C	-0.090675	-1.176367	-2.181409
N	0.295613	-2.089332	-2.811885
H	-3.224978	0.0	0.0
