13

C	0.0	0.0	0.0
C	-0.579933	0.066963	-1.399151
F	1.391742	0.0	0.0
H	-0.288003	-0.81101	-1.984714
H	-0.323529	-0.952338	0.43109
H	-1.687956	0.040201	-1.215989
C	-0.484958	1.13958	0.86254
H	-0.084511	1.038039	1.875386
H	-0.156237	2.095992	0.446317
H	-1.580773	1.08458	0.877739
C	-0.19609	1.271572	-2.122562
N	0.101922	2.242075	-2.714342
H	-3.216081	0.0	0.0
