17

C	-0.535506	0.008912	-1.432475
C	0.0	0.0	0.0
F	-0.071484	1.167767	-2.01964
H	1.094145	0.0	0.0
N	0.098613	-1.099887	-2.279642
O	-0.649573	-1.793264	-2.96493
O	1.321984	-1.149013	-2.271457
C	-2.033478	-0.039553	-1.557187
H	-2.452037	0.789189	-0.984447
H	-2.315655	0.058838	-2.605421
H	-2.403855	-0.988965	-1.177433
N	-0.376711	-1.164836	0.723391
O	-0.539697	-2.215367	0.055606
O	-0.310305	-1.124471	1.968964
C	-0.408566	1.206018	0.684226
N	-0.756974	2.204903	1.198594
H	2.302068	0.0	0.0
