17

C	-0.526887	0.000715	-1.430675
C	0.0	0.0	0.0
F	0.030577	1.099	-2.056569
H	1.093297	0.0	0.0
N	0.031684	-1.186475	-2.222955
O	-0.683125	-1.640229	-3.115447
O	1.179786	-1.527388	-1.978996
C	-2.020854	0.064846	-1.582507
H	-2.276265	0.159563	-2.637423
H	-2.468824	-0.842723	-1.182743
H	-2.382391	0.937253	-1.036349
N	-0.401235	-1.149152	0.74403
O	-0.755877	-2.169914	0.105
O	-0.190793	-1.123635	1.97296
C	-0.389747	1.217946	0.673503
N	-0.7287	2.224143	1.180311
H	2.306012	0.0	0.0
