17

C	-0.552909	0.017729	-1.424587
C	0.0	0.0	0.0
F	-0.105191	1.184849	-2.005282
H	1.09417	0.0	0.0
N	0.074404	-1.080666	-2.290518
O	-0.679798	-1.873675	-2.847348
O	1.29255	-1.030494	-2.413174
C	-2.052553	-0.033457	-1.529362
H	-2.351373	0.053295	-2.575058
H	-2.421656	-0.975246	-1.130179
H	-2.460166	0.80501	-0.962726
N	-0.363412	-1.165209	0.734244
O	-0.509164	-2.221279	0.075318
O	-0.294843	-1.112794	1.978201
C	-0.4008	1.20587	0.689815
N	-0.738804	2.205634	1.209195
H	2.310133	0.0	0.0
