17

C	-0.34085	0.058913	-1.483346
C	0.0	0.0	0.0
F	0.119101	-1.036801	-2.138914
H	1.092871	0.0	0.0
N	-1.868307	0.014779	-1.651642
O	-2.457656	1.093488	-1.652851
O	-2.393822	-1.091472	-1.724474
C	0.23838	1.296358	-2.114244
H	-0.200507	2.201096	-1.702326
H	1.311814	1.271284	-1.899754
H	0.065711	1.261727	-3.193044
N	-0.431115	-1.227061	0.682981
O	-1.071311	-1.11456	1.739297
O	-0.033389	-2.291633	0.202883
C	-0.475873	1.173396	0.694855
N	-0.760401	2.16853	1.253228
H	2.438688	0.0	0.0
