17

C	-0.542567	0.017552	-1.429438
C	0.0	0.0	0.0
F	-0.102035	1.19153	-2.001534
H	1.094181	0.0	0.0
N	0.103514	-1.0706	-2.295559
O	1.321869	-1.014304	-2.399956
O	-0.637899	-1.863367	-2.869648
C	-2.04052	-0.050525	-1.546321
H	-2.331051	0.042386	-2.593593
H	-2.400692	-1.001088	-1.160055
H	-2.463628	0.777155	-0.975014
N	-0.3642	-1.169297	0.726501
O	-0.312766	-1.12048	1.971435
O	-0.492066	-2.224622	0.062257
C	-0.408881	1.202736	0.689805
N	-0.752487	2.20426	1.202432
H	2.308456	0.0	0.0
