17

C	-0.432188	-0.123713	-1.456254
C	0.0	0.0	0.0
F	-1.773275	-0.394619	-1.55182
H	1.090055	0.0	0.0
N	-0.244515	1.275301	-2.055683
O	0.912874	1.591288	-2.312383
O	-1.244334	1.96402	-2.226882
C	0.367306	-1.082801	-2.299177
H	0.046426	-2.094749	-2.07089
H	1.424013	-0.968643	-2.049123
H	0.198427	-0.864582	-3.356159
N	-0.317948	-1.171989	0.797168
O	-0.543001	-1.005607	2.003265
O	-0.170536	-2.278697	0.259035
C	-0.499411	1.19573	0.640698
N	-0.820824	2.208663	1.145754
H	2.385411	0.0	0.0
