15

C	-0.227428	0.021581	-1.491322
C	0.0	0.0	0.0
Br	-2.14619	0.0511	-1.982297
H	1.096157	0.0	0.0
H	0.139143	-0.926581	-1.880346
C	0.514664	1.191452	-2.106389
H	1.540747	1.111617	-1.730848
H	0.081052	2.143294	-1.790703
H	0.492453	1.139158	-3.196767
N	-0.442079	-1.258972	0.637363
O	-0.340078	-2.289061	-0.026983
O	-0.815022	-1.217179	1.809129
C	-0.5237	1.152592	0.697598
N	-0.891167	2.132604	1.233043
F	2.488962	0.0	0.0
