15

C	-0.227428	0.014581	-1.490855
C	0.0	0.0	0.0
Br	-2.146546	0.036174	-1.981508
H	1.096082	0.0	0.0
H	0.142424	-0.933414	-1.876455
C	0.511063	1.18502	-2.108858
H	0.490688	1.127975	-3.198442
H	0.074575	2.135815	-1.796597
H	1.536765	1.110627	-1.731944
N	-0.441806	-1.255728	0.642601
O	-0.81403	-1.208032	1.814694
O	-0.34083	-2.28878	-0.018081
C	-0.52491	1.156045	0.690273
N	-0.900203	2.142926	1.207368
F	2.48829	0.0	0.0
