13

C	-0.411689	-0.075984	-1.451125
C	0.0	0.0	0.0
F	0.157001	-1.166308	-2.024541
H	1.093085	0.0	0.0
H	-0.319786	-0.940785	0.461706
C	-1.866235	-0.141125	-1.700235
N	-3.019252	-0.270864	-1.883137
N	0.102644	1.161256	-2.19954
O	1.103587	1.036705	-2.8924
O	-0.554348	2.18139	-1.998522
C	-0.592933	1.109657	0.71074
N	-1.039499	1.99104	1.350032
F	2.486466	0.0	0.0
