13

C	-0.455999	0.036893	-1.42582
C	0.0	0.0	0.0
F	-1.813055	0.206946	-1.575539
H	1.091955	0.0	0.0
H	-0.293542	0.951039	0.455681
C	0.218781	1.098794	-2.184534
N	0.736474	1.984691	-2.755584
N	-0.126598	-1.2981	-2.106716
O	0.995101	-1.408856	-2.580005
O	-1.008135	-2.146358	-2.075461
C	-0.586876	-1.093329	0.743824
N	-1.03227	-1.972973	1.383342
F	2.475471	0.0	0.0
