13

C	-0.340003	-0.010334	-1.452219
C	0.0	0.0	0.0
F	-1.668574	-0.280543	-1.731739
H	1.093709	0.0	0.0
H	-0.3318	-0.947455	0.430718
C	0.018431	1.231118	-2.147503
N	0.237744	2.247691	-2.692305
N	0.426139	-1.17379	-2.096293
O	1.186494	-0.930219	-3.022992
O	0.162383	-2.275424	-1.633158
C	-0.594319	1.121297	0.688185
N	-1.062716	2.030267	1.268773
F	2.474368	0.0	0.0
