13

C	-0.393684	-0.056991	-1.45448
C	0.0	0.0	0.0
F	0.100863	-1.191513	-2.00941
H	1.093955	0.0	0.0
H	-0.329497	-0.943611	0.446151
C	-1.843227	-0.017926	-1.724142
N	-3.004956	-0.065946	-1.895647
N	0.224847	1.126663	-2.212504
O	-0.332786	2.199986	-2.010681
O	1.19016	0.912229	-2.921631
C	-0.586689	1.111724	0.709209
N	-1.024409	1.999783	1.34343
F	2.487616	0.0	0.0
