14

C	-0.645494	0.005929	-1.382411
C	0.0	0.0	0.0
F	-0.392606	1.180441	-2.060485
H	1.090038	0.0	0.0
H	-1.730378	-0.074469	-1.253284
C	-0.175012	-1.138738	-2.171525
N	0.160376	-2.037533	-2.84699
N	-0.469654	-1.156396	0.69249
H	0.214806	-1.438534	1.380846
H	-1.361954	-0.973528	1.133439
N	-0.476632	1.297129	0.642861
O	-1.598877	1.266358	1.162298
O	0.239508	2.285426	0.567235
Cl	3.289993	0.0	0.0
