14

C	-0.437951	-0.019473	-1.460419
C	0.0	0.0	0.0
F	-1.797905	-0.330817	-1.554442
H	1.090663	0.0	0.0
H	0.116626	-0.829481	-1.94281
C	-0.211818	1.227037	-2.202193
N	-0.07124	2.20363	-2.838744
N	-0.436304	-1.140088	0.732079
H	0.299993	-1.829755	0.763699
H	-1.307245	-1.525088	0.401152
N	-0.550484	1.257709	0.628149
O	-1.61145	1.171498	1.24239
O	0.073116	2.296315	0.423498
Cl	3.267158	0.0	0.0
