14

C	-0.505928	0.004945	-1.441845
C	0.0	0.0	0.0
F	-0.118201	-1.160011	-2.061192
H	1.091794	0.0	0.0
H	-0.079452	0.845387	-1.987908
C	-1.979596	0.082018	-1.472344
N	-3.151605	0.148169	-1.47176
N	-0.487969	-1.104819	0.737545
H	-1.376283	-0.909522	1.17816
H	0.187623	-1.364492	1.441858
N	-0.39748	1.34984	0.590954
O	-0.865938	1.368369	1.728161
O	-0.20782	2.341775	-0.111057
Cl	3.246189	0.0	0.0
