15

C	0.0	0.0	0.0
C	-0.57985	-0.186419	-1.442732
Br	1.935702	0.0	0.0
H	-1.52854	0.361766	-1.408036
N	-0.383412	1.371697	0.567992
O	-0.505426	2.266118	-0.255901
O	-0.447689	1.466569	1.783175
C	-0.42497	-1.054867	0.908506
N	-0.597093	-1.975357	1.620268
N	-0.914212	-1.546635	-1.784479
H	-0.17986	-2.195386	-1.526881
H	-1.771373	-1.767508	-1.282949
C	0.286084	0.405543	-2.465259
N	0.944495	0.857989	-3.326374
Cl	-3.253184	0.0	0.0
