11

C	-0.558332	0.02731	-1.405383
C	0.0	0.0	0.0
Br	-0.159039	-1.580785	-2.431048
H	1.092406	0.0	0.0
H	-1.647796	0.115149	-1.417772
H	-0.11763	0.856551	-1.962194
H	-0.292412	0.970318	0.44327
N	-0.480369	-1.140856	0.774734
H	0.24705	-1.394206	1.434043
H	-1.316619	-0.905773	1.296144
H	3.119029	0.0	0.0
