16

C	-0.461696	0.148975	-1.451407
C	0.0	0.0	0.0
Cl	-0.090297	1.845503	-1.954747
H	1.091572	0.0	0.0
H	-0.374184	0.82461	0.618244
N	0.262677	-0.73633	-2.346915
H	0.133821	-1.665974	-1.950948
H	1.254281	-0.52794	-2.232306
C	-1.95381	-0.064972	-1.622789
H	-2.201232	-1.084968	-1.318258
H	-2.51861	0.640441	-1.006963
H	-2.22165	0.075328	-2.671143
N	-0.4147	-1.329389	0.483005
H	-1.190877	-1.25483	1.126251
H	0.363223	-1.739232	0.983818
Cl	3.508147	0.0	0.0
