16

C	-0.455162	0.01362	-1.46029
C	0.0	0.0	0.0
Cl	-0.104347	-1.590495	-2.220679
H	1.093075	0.0	0.0
H	-0.316957	0.969793	0.414313
N	-1.906957	0.158139	-1.508647
H	-2.212326	0.168453	-2.476602
H	-2.135634	1.060636	-1.102213
C	0.327882	1.055855	-2.242362
H	0.033607	1.055698	-3.295903
H	0.12008	2.044984	-1.819073
H	1.399709	0.8644	-2.153307
N	-0.53523	-1.070369	0.822819
H	-1.463206	-1.299107	0.483634
H	0.048648	-1.886572	0.693923
Cl	3.581115	0.0	0.0
