16

C	-0.476578	0.032067	-1.46057
C	0.0	0.0	0.0
Cl	-0.047986	-1.542156	-2.242216
H	1.093659	0.0	0.0
H	-0.322056	0.959162	0.430458
N	-1.920763	0.176321	-1.647119
H	-2.392671	-0.588105	-1.17436
H	-2.198551	1.040308	-1.185384
C	0.249112	1.134704	-2.206312
H	-0.042292	1.126356	-3.257839
H	1.329106	1.006436	-2.100399
H	-0.025471	2.102327	-1.769677
N	-0.487712	-1.072702	0.84963
H	-0.016743	-1.932204	0.59089
H	-1.487383	-1.208862	0.728013
Cl	3.609479	0.0	0.0
