16

C	-0.453534	0.047067	-1.462851
C	0.0	0.0	0.0
Cl	0.08073	-1.548654	-2.265721
H	1.092624	0.0	0.0
H	-0.330642	0.950873	0.433932
N	-1.873925	0.192613	-1.574696
H	-2.329144	-0.605286	-1.145146
H	-2.14233	0.200333	-2.551671
C	0.272912	1.153388	-2.197848
H	0.022556	1.146314	-3.262761
H	1.350594	1.028933	-2.073346
H	-0.030965	2.112573	-1.768224
N	-0.496944	-1.08185	0.830352
H	-0.106999	-1.958238	0.509766
H	-1.507276	-1.141093	0.804259
Cl	3.625633	0.0	0.0
