16

C	-0.374914	0.14119	-1.48809
C	0.0	0.0	0.0
Cl	-0.066434	1.87147	-1.926369
H	1.091613	0.0	0.0
H	-0.391873	0.839824	0.578587
N	0.464192	-0.660736	-2.362877
H	1.435851	-0.459215	-2.123373
H	0.310559	-1.631674	-2.108885
C	-1.836334	-0.132311	-1.79845
H	-2.026091	0.074217	-2.851345
H	-2.076779	-1.183044	-1.607279
H	-2.484811	0.498695	-1.184436
N	-0.406219	-1.257642	0.619142
H	-1.356925	-1.518547	0.395789
H	0.225144	-2.001592	0.357776
Cl	3.522231	0.0	0.0
