16

C	-0.500148	0.023773	-1.453104
C	0.0	0.0	0.0
Cl	0.016581	-1.543287	-2.188121
H	1.093397	0.0	0.0
H	-0.351139	-0.926503	0.468486
N	-1.948701	0.076389	-1.611106
H	-2.27539	0.991028	-1.317981
H	-2.372917	-0.621313	-1.007145
C	0.139507	1.147212	-2.244489
H	1.225822	1.079648	-2.163382
H	-0.182549	2.110999	-1.835703
H	-0.169655	1.090876	-3.289327
N	-0.433958	1.136595	0.806516
H	-1.406832	1.366757	0.645775
H	0.138643	1.944692	0.603899
Cl	3.576108	0.0	0.0
