15

C	0.0	0.0	0.0
C	-0.52259	-0.054407	-1.518183
Cl	1.763994	0.0	0.0
H	0.399043	-0.139739	-2.104088
H	-0.364845	0.875141	0.530832
N	-0.390699	-1.160877	0.87597
O	-0.848833	-0.885368	1.980385
O	-0.173813	-2.293302	0.450654
N	-1.173837	1.189521	-1.870098
H	-0.618647	1.976942	-1.556023
H	-2.076826	1.217338	-1.396188
N	-1.378201	-1.145648	-1.882595
H	-2.282161	-1.033262	-1.42314
H	-0.9695	-2.020683	-1.585437
Br	-3.930164	0.0	0.0
