13

C	0.0	0.0	0.0
C	-0.47247	-0.173336	-1.476147
Br	1.970823	0.0	0.0
H	0.377211	-0.161105	-2.162454
H	-0.25237	-0.888554	0.574352
H	-0.941878	-1.167914	-1.53123
N	-0.51282	1.135875	0.693208
H	-1.502772	0.89555	0.852475
H	-0.537692	1.896029	0.021448
N	-1.387954	0.909837	-1.825286
H	-1.640329	0.798376	-2.803199
H	-2.241826	0.711568	-1.263545
H	-3.197294	0.0	0.0
