13

C	0.0	0.0	0.0
C	-0.639462	0.002888	-1.362662
Br	2.023046	0.0	0.0
H	-1.712377	0.124946	-1.102082
H	-0.215574	-0.946597	0.490738
H	-0.302144	0.876029	-1.936639
N	-0.456618	1.073871	0.779406
H	-0.095631	1.07647	1.720093
H	-0.322858	1.970595	0.336704
N	-0.419063	-1.260175	-2.065022
H	0.029759	-1.105054	-2.956035
H	-1.325048	-1.678812	-2.235183
H	-3.631702	0.0	0.0
