13

C	0.0	0.0	0.0
C	-0.432081	-0.023264	-1.450334
Br	1.966549	0.0	0.0
H	-1.529172	0.001026	-1.395743
H	-0.254605	-0.958778	0.461522
H	-0.064635	0.903004	-1.917393
N	-0.519267	1.169893	0.639917
H	-1.549611	1.023688	0.560321
H	-0.286374	1.136166	1.628054
N	-0.001388	-1.251781	-2.119278
H	0.964001	-1.162164	-2.412246
H	-0.567178	-1.385918	-2.947295
H	-3.102136	0.0	0.0
