13

C	0.0	0.0	0.0
C	-0.402838	0.15092	-1.45271
Br	2.069924	0.0	0.0
H	0.012078	-0.670336	-2.055729
H	-0.23684	-1.002814	0.356069
H	-1.49918	0.051749	-1.3878
N	-0.537893	0.968486	0.870318
H	-1.54737	0.694842	0.895823
H	-0.50958	1.851163	0.36562
N	-0.070342	1.484426	-1.95046
H	-0.675511	1.715306	-2.727279
H	0.889994	1.502517	-2.270163
H	-3.098375	0.0	0.0
