13

C	0.0	0.0	0.0
C	-0.548302	0.055541	-1.410486
Br	2.039812	0.0	0.0
H	-0.195513	0.971258	-1.900122
H	-0.222294	-0.95928	0.464697
H	-1.640151	0.123926	-1.237069
N	-0.471479	1.043269	0.783328
H	-0.366194	1.959021	0.37768
H	-0.222575	1.012609	1.757431
N	-0.259311	-1.096862	-2.250552
H	0.709896	-1.372119	-2.137117
H	-0.845315	-1.862558	-1.939319
H	-3.532323	0.0	0.0
