13

C	0.0	0.0	0.0
C	-0.370233	0.012777	-1.466785
Br	2.118446	0.0	0.0
H	-1.466572	-0.09423	-1.41174
H	-0.218428	-0.969528	0.4466
H	0.067627	-0.85191	-1.985471
N	-0.544758	1.038752	0.763599
H	-0.527028	1.865484	0.1715
H	-1.554539	0.753779	0.817502
N	-0.046948	1.302317	-2.072189
H	0.928534	1.316977	-2.344177
H	-0.615508	1.442157	-2.897052
H	-3.064171	0.0	0.0
