13

C	0.0	0.0	0.0
C	-0.506628	0.019259	-1.43501
Br	1.969716	0.0	0.0
H	-0.040584	-0.77467	-2.03149
H	-0.259105	-0.960619	0.448912
H	-1.578963	-0.195669	-1.291152
N	-0.536544	1.045527	0.808483
H	-0.470214	1.88921	0.245186
H	-1.546808	0.805138	0.835233
N	-0.355414	1.349586	-2.031308
H	-1.250645	1.651224	-2.394381
H	0.314281	1.336924	-2.786069
H	-3.173238	0.0	0.0
