13

C	0.0	0.0	0.0
C	-0.44154	0.049568	-1.463484
Br	1.976751	0.0	0.0
H	-0.070888	0.981565	-1.907699
H	-0.272741	-0.967658	0.42588
H	-1.536935	0.098322	-1.385118
N	-0.55661	1.025801	0.818692
H	-0.474093	1.906806	0.317201
H	-1.575962	0.780917	0.796143
N	-0.072407	-1.076575	-2.31356
H	-0.590778	-1.887828	-1.995586
H	0.91396	-1.278043	-2.190492
H	-3.079941	0.0	0.0
