13

C	0.0	0.0	0.0
C	-0.443285	-0.067698	-1.465113
Br	1.972226	0.0	0.0
H	-1.520837	-0.267162	-1.387386
H	-0.263579	-0.944298	0.480329
H	0.055801	-0.902759	-1.967418
N	-0.560579	1.057075	0.774936
H	-1.580006	0.816095	0.753265
H	-0.462241	1.922552	0.251568
N	-0.25925	1.145851	-2.251978
H	-0.942774	1.831071	-1.953402
H	0.667797	1.526381	-2.093479
H	-3.092742	0.0	0.0
