14

C	0.0	0.0	0.0
C	-0.27214	-0.06544	-1.539265
Br	1.969856	0.0	0.0
H	0.413242	-0.813977	-1.947635
H	-1.293378	-0.398538	-1.689657
C	-0.424522	1.203789	0.679852
N	-0.477354	2.150315	1.386416
C	-0.408299	-1.192	0.736467
N	-0.445288	-2.226248	1.30643
C	-0.061853	1.282534	-2.211614
H	0.966697	1.637285	-2.100531
H	-0.739323	2.027558	-1.787847
H	-0.279031	1.197775	-3.282112
H	-2.046832	0.0	0.0
