14

C	0.0	0.0	0.0
C	-0.281528	0.077421	-1.544727
Br	1.970078	0.0	0.0
H	0.455273	0.76931	-1.963437
H	-1.275019	0.492667	-1.690485
C	-0.496617	1.192565	0.684258
N	-0.54772	2.24009	1.233909
C	-0.514872	-1.211173	0.624777
N	-0.55025	-2.274807	1.145782
C	-0.191949	-1.287535	-2.2102
H	0.744566	-1.795391	-1.971661
H	-0.256325	-1.179862	-3.297425
H	-1.019012	-1.917133	-1.874397
H	-2.055545	0.0	0.0
