14

C	0.0	0.0	0.0
C	-0.272903	-0.035042	-1.547517
Br	1.970067	0.0	0.0
H	-1.271057	-0.42842	-1.714601
H	0.455435	-0.727782	-1.978902
C	-0.497427	1.20385	0.658194
N	-0.552467	2.240698	1.22544
C	-0.530029	-1.169727	0.701329
N	-0.561247	-2.155615	1.357301
C	-0.160459	1.343641	-2.185036
H	-0.22918	1.267132	-3.275089
H	0.784416	1.830561	-1.937781
H	-0.975217	1.980868	-1.83615
H	-2.037467	0.0	0.0
