15

C	-0.080033	-0.024262	-1.531749
C	0.0	0.0	0.0
F	-1.379705	-0.307898	-1.98065
H	1.093517	0.0	0.0
H	-0.371421	-0.946153	0.404343
C	0.37478	1.299642	-2.101739
H	0.405909	1.225253	-3.189678
H	-0.295303	2.10723	-1.800413
H	1.3774	1.48148	-1.707639
N	0.798726	-1.067033	-2.029385
H	0.459644	-1.948271	-1.651377
H	1.692961	-0.882991	-1.548228
C	-0.630805	1.124657	0.652695
N	-1.13891	2.0429	1.183415
F	2.651796	0.0	0.0
