15

C	-0.330722	-0.075044	-1.487698
C	0.0	0.0	0.0
F	-0.053217	1.210761	-2.029389
H	1.092368	0.0	0.0
H	-0.332865	-0.927343	0.476885
C	0.638679	-1.026044	-2.159578
H	0.386796	-2.056614	-1.900355
H	1.634517	-0.789569	-1.772466
H	0.592087	-0.905443	-3.245551
N	-1.703734	-0.394499	-1.746296
H	-2.285219	0.300277	-1.287699
H	-1.867138	-0.323345	-2.746969
C	-0.634826	1.131162	0.645218
N	-1.176191	2.047408	1.147202
F	2.635275	0.0	0.0
