12

C	0.0	0.0	0.0
C	-0.486	0.199119	-1.432158
Cl	1.7841	0.0	0.0
H	0.313648	0.546834	-2.090249
H	-0.352094	-0.950685	0.377912
H	-1.359673	0.83438	-1.436608
C	-0.461154	1.082947	0.866773
N	-0.582076	1.998951	1.593281
N	-0.945231	-1.081075	-2.039685
O	-1.59894	-0.971812	-3.071851
O	-0.592032	-2.147511	-1.546576
F	-2.389345	0.0	0.0
