12

C	0.0	0.0	0.0
C	-0.54761	0.041319	-1.409231
Cl	1.782185	0.0	0.0
H	-0.286613	-0.862351	-1.956383
H	-0.353769	-0.929978	0.437944
H	-1.675254	0.113461	-1.150395
C	-0.458286	1.098793	0.856921
N	-0.658317	1.973529	1.61449
N	-0.048419	1.17045	-2.202701
O	0.087019	0.99026	-3.417172
O	0.160486	2.243647	-1.63693
F	-2.615961	0.0	0.0
