12
Coordinates from ORCA-job run
  C   0.38772906943788     -0.13604951386366      0.62331705357187
  C   -0.34207804077258      0.15370450989419     -0.67243962159063
  Cl  -0.55406754173853      0.53723007863569      1.99894413418356
  H   -0.44632448749529      1.24346395972299     -0.75723617198738
  H   0.38811458856933     -1.21776963456426      0.79551056807967
  H   0.30328800175792     -0.18675127409816     -1.49031114129241
  N   1.68366084648338      0.50340108753693      0.61937127838217
  H   2.24456961342036      0.10476505112706     -0.12548690962161
  H   2.16063375547779      0.33290208196298      1.49629779036014
  N   -1.58581343982664     -0.60284209851240     -0.73801934207147
  H   -1.98682993430168     -0.52332973103835     -1.66345632014183
  H   -2.25288243101195     -0.20972451680301     -0.08549131787211
