12
Coordinates from ORCA-job run
  C   0.43657022009011     -0.22024674430513      0.56434257563066
  C   -0.39530316408503      0.25181783745523     -0.61059666887357
  Cl  -0.47027664937986      0.07231107136205      2.08933272052275
  H   0.22322139539252      0.14482718310375     -1.50910929568788
  H   0.53855756127091     -1.30954197709107      0.51173987146271
  H   -0.59596189858867      1.32160826864712     -0.46569819075562
  N   1.67116994046748      0.52691554809454      0.63380195725273
  H   2.21748665714237      0.22796865262055      1.43228420834083
  H   2.21368916624303      0.34615813890833     -0.20353405526960
  N   -1.57267181407455     -0.59084990718641     -0.77384513604159
  H   -2.03665691218589     -0.36676712948955     -1.64445866068139
  H   -2.22782450229242     -0.40220094211940     -0.02525932590002
