12
Coordinates from ORCA-job run
  C   0.41338134346994     -0.31878751135676      0.64252526403430
  C   -0.31706070028384      0.19798441866957     -0.58780338149131
  Cl  -0.56716692081569      0.11695786313767      2.09305422205202
  H   -0.39352774470612      1.29403128892952     -0.50150457157333
  H   0.43142292789510     -1.40896164373796      0.61264035658273
  H   0.32462617746171     -0.02393748085325     -1.44725548463828
  N   1.75018334240527      0.17453072209983      0.82981353848294
  H   2.37851814306872     -0.26684832313236      0.17033164431604
  H   1.78435275179086      1.17889477270649      0.70420097466337
  N   -1.58445349513422     -0.49278636264134     -0.77644377891477
  H   -2.24089459605241     -0.19856908240033     -0.06433313667771
  H   -1.98038122909931     -0.25350866142109     -1.67622564683599
