12
Coordinates from ORCA-job run
  C   0.48590050588844     -0.51168140737408      0.58457675648429
  C   -0.86382196067021     -0.14483829765671     -0.01337061556676
  Cl  0.20549962348093     -1.28738062666203      2.18494375376092
  H   -1.49964299173192     -1.03724306036813     -0.04380053952869
  H   0.95848339851613     -1.30219329740020     -0.01334466427909
  H   -1.32491527718077      0.57833249235569      0.66271089753374
  N   1.26747781316828      0.67720312152526      0.74534289335209
  H   2.24034814750570      0.45839094013066      0.91428556410947
  H   1.17971344570413      1.20673547949080     -0.11558870551160
  N   -0.64812562318920      0.48940759271667     -1.31448312087082
  H   -1.42961577913776      1.08591360005471     -1.54993543027750
  H   -0.57030130235374     -0.21164653681265     -2.04033678920603
