15
Coordinates from ORCA-job run
  C   -0.42327167798571     -0.47869797522506      0.34672078291587
  C   0.70771152323526      0.56111629452563      0.14078744507472
  Cl  0.25831736764807     -2.12856629408240      0.30857086711444
  H   0.27081041019405      1.55982089546752      0.22661824123955
  C   -1.52523909790317     -0.35877677031518     -0.70153171848678
  H   -1.14477565702892     -0.62880673221412     -1.68600342896723
  H   -2.33625184637524     -1.03883418177142     -0.44039871654419
  H   -1.90789619354233      0.66345016117285     -0.73406057317950
  C   -0.96681459706946     -0.22839058695998      1.68320170433190
  N   -1.42759563052888      0.01183626835720      2.73763025699874
  N   1.23410278680420      0.47869288658790     -1.27523612607565
  O   0.63032998275866      1.16674136550796     -2.09333029657135
  O   2.17781065726172     -0.27058694710193     -1.48938619207325
  C   1.79602229437030      0.39777520665203      1.09312235854351
  N   2.65773967816146      0.29422640939902      1.88429539567922
