15
Coordinates from ORCA-job run
  C   -0.42454944505769     -0.57418162633645      0.10053091439323
  C   0.69053335736717      0.29972058565986     -0.50763146554566
  Cl  -0.17757289285209     -2.24282541023253     -0.49735913127242
  H   0.61818503643485      0.24855017070142     -1.59625866023562
  C   -1.78578355652142     -0.06803222333954     -0.37147976615600
  H   -2.56722532331922     -0.72367827878003      0.01301585305858
  H   -1.82514695843831     -0.07473180194864     -1.46244826742445
  H   -1.96076477683336      0.94420755699775     -0.00108237998974
  C   -0.37593257383398     -0.58090278009239      1.56193326300865
  N   -0.43360630406061     -0.57432414850312      2.73581722450684
  N   2.06384308984258     -0.24003983596839     -0.16674005889881
  O   2.38461168240129     -0.20125959817726      1.01412478015500
  O   2.71838428509091     -0.67271524854992     -1.10732024331917
  C   0.59329301819820      1.67537405451350     -0.03780924777171
  N   0.48273136158167      2.78783858405575      0.32370718549126
