13
Coordinates from ORCA-job run
  C   -0.57634103861626      0.40655397214445     -0.19749412906246
  C   0.92055178610543      0.23885963452938      0.00466158942753
  F   -0.87256266517251      0.38166823647228     -1.52041641653219
  H   1.11662296640933      0.28518720717593      1.07620241277226
  H   1.40381721135554      1.10183236170459     -0.47343531286368
  N   -1.27441436318056     -0.78506569551705      0.46375790194116
  O   -1.08992200353155     -0.86361068934004      1.67055590493462
  O   -1.91839215046107     -1.52924489155711     -0.25145011322844
  C   -1.10629498647111      1.62932296599423      0.41218660699743
  N   -1.48512211592952      2.63198993508912      0.89232480423630
  N   1.29535195066538     -1.05905328522425     -0.51551283818454
  H   2.11717438228747     -1.41449848499001     -0.05070936307807
  H   1.46953102653943     -1.02394126648152     -1.50967104735992
