13
Coordinates from ORCA-job run
  C   -0.56523393600737      0.28346210771176     -0.16509261162067
  C   0.70671647207051     -0.54258999742851     -0.04756511128234
  F   -0.71219962697586      0.71635486768970     -1.44081061915992
  H   0.57705118909705     -1.40848155161453     -0.71329112495374
  H   0.77821537770865     -0.90508333122442      0.97896471656963
  N   -1.75030826226895     -0.62989285195217      0.16019213829637
  O   -1.81120167280345     -0.98482879058893      1.33058351507018
  O   -2.47774634928801     -0.95732589758160     -0.76317477967763
  C   -0.60358007939388      1.41817265137003      0.75871040280957
  N   -0.63300784442410      2.32433685625901      1.50444011156990
  N   1.82627055969019      0.31866907551300     -0.36043717046076
  H   2.66566366839101      0.01680861508604      0.11237096889334
  H   2.00036050420422      0.35039824676062     -1.35489043605394
