13
Coordinates from ORCA-job run
  C   -0.67999190383950      0.40032940265089     -0.21520165568110
  C   0.66953282999819      0.01567576607031     -0.78522325323509
  F   -1.55463239791035      0.73573640886282     -1.21009499198593
  H   0.49486847857413     -0.72763656789075     -1.56734844752665
  H   1.08354541857939      0.91271944071671     -1.25236490051864
  N   -1.30835566278698     -0.81204378207060      0.47754868696919
  O   -1.01995641085484     -1.90818766100576      0.01024288160715
  O   -2.10196721016290     -0.58265462691145      1.38087271791956
  C   -0.58422180506931      1.49230105661311      0.75573410317683
  N   -0.46489235682966      2.41790490310076      1.46796252952363
  N   1.49160215604270     -0.44398756844408      0.31719249385220
  H   2.41887927112393     -0.04889270588759      0.28996060633911
  H   1.55658959313520     -1.45126406580438      0.33071922955974
