13
Coordinates from ORCA-job run
  C   -0.58325792509285      0.39348488959156     -0.19831336438789
  C   0.91694477069772      0.25472334062002     -0.00234541998079
  F   -0.88545363912556      0.34451348883238     -1.51970046153582
  H   1.38242756396137      1.11870201176000     -0.49636046000755
  H   1.11851401996176      0.31997665589709      1.06724381086619
  N   -1.25683459853731     -0.80104211882983      0.48313316012837
  O   -1.07335499944503     -0.85330334317029      1.69139521909656
  O   -1.88202115365469     -1.57231411768104     -0.21975287632072
  C   -1.13186426288140      1.61529717279835      0.39623938113730
  N   -1.52800209684119      2.61735250185511      0.86339285864283
  N   1.31092511926294     -1.04534460763953     -0.50327001437179
  H   1.45287856374395     -1.02722407117002     -1.50331055775954
  H   2.15909863795028     -1.36382180286381     -0.05835127550715
