13
Coordinates from ORCA-job run
  C   -0.69051829636483      0.39989696006320     -0.22546407023768
  C   0.66483793144234      0.00204819602673     -0.77853103625153
  F   -1.54787116722480      0.73772069546715     -1.23292496106541
  H   1.08964678041247      0.88359638936064     -1.26683066785330
  H   0.48450448586289     -0.75738016040458     -1.54145786108572
  N   -1.31324107666189     -0.81671553660359      0.46166114607797
  O   -1.23068295874963     -1.86422183204917     -0.16792282392979
  O   -1.87691064935726     -0.64186297821507      1.53361760729930
  C   -0.59357946638115      1.49554168899330      0.74120396152894
  N   -0.45632797692861      2.42656266915511      1.44323345178189
  N   1.46144455373128     -0.48046515528648      0.33249505453831
  H   1.71250203717237     -1.45117619129370      0.22345402730065
  H   2.29519580304683      0.06745525478645      0.47746617189638
