13
Coordinates from ORCA-job run
  C   -0.57431803508983      0.27232763428853     -0.14193759939928
  C   0.71570621572083     -0.52993944537209     -0.07072788346560
  F   -0.77657821125591      0.70146771213610     -1.41165885466272
  H   0.83382415205289     -0.88368607274974      0.95425120320106
  H   0.57682339467565     -1.40254800369091     -0.72560060829232
  N   -1.73043495757040     -0.66111101542397      0.22754358491211
  O   -2.50108084904496     -0.98331021187210     -0.66181129259157
  O   -1.72782532770952     -1.03349069976535      1.39433608146127
  C   -0.59930387267286      1.40764310387235      0.78172244794324
  N   -0.62163305344267      2.31531402838546      1.52598610534080
  N   1.80597628547150      0.35071303258261     -0.43083884881707
  H   1.92590609468477      0.39501787544714     -1.43274002588490
  H   2.67293816418050      0.05160206216196     -0.00952430974501
