13
Coordinates from ORCA-job run
  C   -0.49587887035436      0.46116287340121     -0.19941518964766
  C   1.00253037602561      0.26944666181143      0.06431588304327
  F   -0.72532857335059      0.51607186542425     -1.53531589628307
  H   1.16313128068175      0.28563802717829      1.14349622384870
  H   1.49897160546481      1.14339102266654     -0.36769459600589
  N   -1.21429342278243     -0.77269077909485      0.34385641447759
  O   -1.68826437012412     -1.55224256646328     -0.46635205491203
  O   -1.17653139194941     -0.88393055128032      1.56289235742272
  C   -1.05694886621754      1.63970087457855      0.46041583603366
  N   -1.45068092261564      2.61578846574931      0.98225058692528
  N   1.55518930234856     -0.93422636584825     -0.49875913300761
  H   1.25093364351476     -1.76437717129909     -0.00921991635160
  H   1.33617020935862     -1.02373235682378     -1.48147051554336
