13
Coordinates from ORCA-job run
  C   -0.67657434089325      0.41586351261821     -0.24271101938852
  C   0.67455867100820     -0.03726620210406     -0.76398001394647
  F   -1.48578128175659      0.80463267835466     -1.26942072979597
  H   1.12981209418210      0.81459118078808     -1.28030118221340
  H   0.47612662251904     -0.81721715919056     -1.50055571596146
  N   -1.36741073320739     -0.78051178418279      0.41411829234669
  O   -1.41444855995662     -1.78754989396109     -0.28041019982631
  O   -1.83873629061652     -0.62993180936187      1.53323694437954
  C   -0.55251341974171      1.49533011925468      0.73933863943783
  N   -0.37617415294615      2.40758663456949      1.45733777124890
  N   1.43265586652777     -0.53893319118932      0.36467240283410
  H   2.16106104806493      0.09699247058391      0.65222134572736
  H   1.83542447681620     -1.44358655617934      0.17845346515773
