13
Coordinates from ORCA-job run
  C   -0.57832929122295      0.27029875276769     -0.12950724394167
  C   0.73793515615538     -0.49103172229689     -0.11016405075668
  F   -0.74688676015908      0.86287022467375     -1.33660410756043
  H   0.65982836193727     -1.26865367489159     -0.88399605194646
  H   0.82768514161050     -0.97896533110697      0.86116400751745
  N   -1.71115713416829     -0.74346936035179      0.05744298196607
  O   -2.43245937648686     -0.96580199757411     -0.90113261107039
  O   -1.74044779493633     -1.27243032233213      1.16168715222351
  C   -0.68510073641727      1.26584114896406      0.93826130108418
  N   -0.77212840135302      2.06152360001515      1.79710198484125
  N   1.80696001315824      0.46632676447875     -0.29662318507222
  H   2.66708172041148      0.14041129750613      0.11893736722257
  H   1.96601910147093      0.65208062014793     -1.27656754450719
