13
Coordinates from ORCA-job run
  C   -0.52104345373887      0.50736242218401     -0.07078466512728
  C   0.94482377800411      0.11111001974605     -0.02113230454345
  F   -0.88535489025004      0.77907551070098     -1.34888074091229
  H   1.20166494883654     -0.07754758976608      1.02162625687382
  H   1.51987167660506      0.98062277866256     -0.36827932907336
  N   -1.34636441654869     -0.68964654687885      0.40938533911632
  O   -1.12119879162588     -1.01737922523779      1.56620556873865
  O   -2.11655397653717     -1.19799680909001     -0.38318380120446
  C   -0.83992022874674      1.64667401079305      0.79378403361871
  N   -1.04837350068092      2.57845959047895      1.47765774978610
  N   1.10286241557032     -1.10005349875885     -0.79871020892812
  H   1.90948029054967     -1.62444005217171     -0.49338006825547
  H   1.19910614856262     -0.89524061066231     -1.78330783008916
