13
Coordinates from ORCA-job run
  C   -0.57976464153364      0.40517535230935     -0.18415922793397
  C   0.92119023433953      0.23744347307845     -0.01872230511310
  F   -0.90862195899828      0.37028223368403     -1.49936920466699
  H   1.39262213928388      1.09638247595376     -0.51582808970395
  H   1.14544010804270      0.29105437502724      1.04685085048539
  N   -1.26235362854063     -0.78097332398505      0.50333095168518
  O   -1.91486403210815     -1.53642028516297     -0.19180475828252
  O   -1.05669825221531     -0.84412834061758      1.70743908436738
  C   -1.09325062022685      1.63303242756863      0.42913445148888
  N   -1.46066997511924      2.63945972576560      0.91020817534985
  N   1.28097565247238     -1.06582402499419     -0.53681273324914
  H   1.40188960024819     -1.04357422809073     -1.53943799001164
  H   2.13210537435543     -1.40290986053656     -0.11182920441537
