13
Coordinates from ORCA-job run
  C   -0.57415191504103      0.40724832670999     -0.20412494699316
  C   0.91994494073253      0.23956152315655      0.01520267066867
  F   -0.85483474629619      0.38341331555892     -1.53090353500050
  H   1.40825219897847      1.09982071785057     -0.46305420866857
  H   1.10505078528484      0.29159940538424      1.08849193310848
  N   -1.27912823363885     -0.78580038080278      0.44749785409917
  O   -1.90081306781080     -1.53836774575167     -0.27830014860511
  O   -1.11789129298749     -0.85863045932808      1.65786885631221
  C   -1.11003960164925      1.62920703849066      0.40135220170661
  N   -1.49151166397649      2.63014821457429      0.88311461262190
  N   1.29986915480987     -1.06246683102311     -0.49153311090716
  H   1.45822183045757     -1.03763528128789     -1.48905827077782
  H   2.13603161113681     -1.39809784353169     -0.03655390756473
