13
Coordinates from ORCA-job run
  C   -0.69630039224714      0.39056490948695     -0.23423971412908
  C   0.65064007911590     -0.05017444945864     -0.77931139609002
  F   -1.52641593888419      0.74903074930428     -1.25326683396021
  H   1.06765860696155      0.79319541775137     -1.34306511309772
  H   0.44144533307532     -0.86087762045541     -1.47919621954181
  N   -1.34308357239963     -0.80887099367805      0.45808711890856
  O   -1.52577386556064     -1.77370240825475     -0.27172899467578
  O   -1.62175914636222     -0.71006377410880      1.64452456271185
  C   -0.57135153633175      1.49079402153288      0.72482444086739
  N   -0.39073587275056      2.41605097201945      1.42495983832552
  N   1.44984839034911     -0.52152201424027      0.33311158654322
  H   2.05261309282891      0.20183003078716      0.69901303471615
  H   2.01421482220536     -1.31725484068616      0.07628768942195
