13
Coordinates from ORCA-job run
  C   -0.60396221315165      0.37174526670841     -0.18467430554810
  C   0.90868095408016      0.26938832926508     -0.07983441382802
  F   -0.99041272680094      0.23740935148363     -1.47763037416185
  H   1.32361135323717      1.10699560498475     -0.65700936100569
  H   1.17780981995568      0.40683987784370      0.96774159294021
  N   -1.20703571371962     -0.78969410504549      0.61013494710938
  O   -1.86525519386965     -1.60968621103957     -0.00144894873897
  O   -0.93878911489604     -0.76889421222943      1.80341072621714
  C   -1.13668661911680      1.61881022233457      0.37069833138140
  N   -1.52026397921199      2.64154391164507      0.80248379814587
  N   1.29563191468802     -1.05311733233367     -0.52376089363072
  H   1.38915529358208     -1.09351244515493     -1.52861154846556
  H   2.16651622522358     -1.33882825846213     -0.10149955041508
