13
Coordinates from ORCA-job run
  C   -0.49543552123847      0.32556449433507     -0.08461293920376
  C   0.68170514462263     -0.63729532442094     -0.28765848651273
  F   -0.51170195651033      1.24797472402423     -1.07884245657012
  H   0.51187434052562     -1.12081456499200     -1.25513734104215
  H   0.63754784083224     -1.40076202743783      0.49093724856179
  N   -1.78834373534740     -0.48157637889615     -0.16029261671115
  O   -2.47374431455792     -0.35143624924099     -1.16137804334881
  O   -1.96682456898748     -1.23972692794369      0.78527477084218
  C   -0.45022663122869      0.99753557953640      1.21550250028338
  N   -0.34762206824926      1.54179924928202      2.25128391256894
  N   1.97289171919518     -0.00141856070679     -0.29132852653941
  H   2.19055893565902      0.42710959689151      0.59891141197021
  H   2.04032081528486      0.69304638956915     -1.02265943429838
