13
Coordinates from ORCA-job run
  C   -0.56690864490814      0.25583376141293     -0.19153023626658
  C   0.71290727160247     -0.53926371462517      0.01433528385310
  F   -0.72958779884875      0.52766679018152     -1.50947948668745
  H   0.58464243824101     -1.48375273841060     -0.53426553938951
  H   0.79810845115837     -0.76711178777401      1.07746017523699
  N   -1.74272041467802     -0.61778848730640      0.25569714104343
  O   -1.76769945074084     -0.85660239834814      1.45669756999932
  O   -2.50281357409351     -1.02553422727056     -0.60704535022834
  C   -0.60763192563002      1.49537926575425      0.58589145908425
  N   -0.64333710288447      2.48526064816191      1.21612965153819
  N   1.82138884983032      0.28514635831149     -0.41659582225621
  H   1.97083071070236      0.20729614554101     -1.41254037618626
  H   2.67282119024920      0.03347038437178      0.06324553025905
