13
Coordinates from ORCA-job run
  C   -0.56333435197405      0.25916493050924     -0.19789139230011
  C   0.71493955387046     -0.53549071304430      0.01881914564572
  F   -0.69339313619807      0.56801339284970     -1.51115065351003
  H   0.77435991153497     -0.79110115087786      1.07751382626685
  H   0.60613380550951     -1.46584012525309     -0.55764590350748
  N   -1.74489878586316     -0.63350548645585      0.19317397493821
  O   -1.80286988233532     -0.90262531083723      1.38657477056685
  O   -2.47514534706202     -1.02666371606595     -0.70153997636027
  C   -0.63078602235401      1.47576915486554      0.61302461593013
  N   -0.68764414377723      2.45005739671172      1.26564179905713
  N   1.82989598765561      0.30552000942129     -0.36136241617928
  H   2.67035127277207      0.04163173525134      0.13112915092716
  H   2.00439113822125      0.25506988292544     -1.35528694147489
