13
Coordinates from ORCA-job run
  C   -0.53762386997103      0.44346554465028     -0.22099720014694
  C   0.92878111621896      0.18889071117745      0.08480613693161
  F   -0.73163770920932      0.48576248399052     -1.56281783483617
  H   1.04460503795841      0.18437308260400      1.16903038174007
  H   1.48983993941968      1.04221832865547     -0.32052412531049
  N   -1.34270955036640     -0.73455007394338      0.33423920166795
  O   -1.26447324532491     -0.86272385351868      1.54824837554325
  O   -1.95611681320780     -1.42261133795468     -0.45954740409269
  C   -1.05131427812907      1.66813790865695      0.39833427038121
  N   -1.41637970902439      2.67039457470424      0.88980367389345
  N   1.27582086910591     -1.10811869821431     -0.45718244509934
  H   2.06172124198730     -1.50796938234683      0.03397510020455
  H   1.50048697054267     -1.04826928846101     -1.44036813087646
