13
Coordinates from ORCA-job run
  C   -0.53294943244936      0.42291909780783     -0.18828054217106
  C   0.98908719512690      0.31851953888871     -0.03289479853882
  F   -0.86674854255344      0.37586141116749     -1.50207940924148
  H   1.40582239911920      1.18215345699083     -0.55941763781471
  H   1.23119055054882      0.41607956957265      1.02654705099059
  N   -1.14363214613882     -0.80230422282049      0.48932643417508
  O   -1.00446846014479     -0.82920804921045      1.70575945242111
  O   -1.64038687214561     -1.65523312539057     -0.22800141605272
  C   -1.10047815525845      1.61704892021311      0.43713535637214
  N   -1.49973213690706      2.60714242505515      0.92741341816889
  N   1.55848389911581     -0.89400656513918     -0.55967953672019
  H   1.32970200891723     -1.70326571543572      0.00129643929927
  H   1.27410969276956     -1.05670674169936     -1.51612481088810
