13
Coordinates from ORCA-job run
  C   -0.57119285732204      0.41577784251977     -0.19516152682564
  C   0.92409087633838      0.22579284594696     -0.00167037475869
  F   -0.87576918335857      0.39417468410649     -1.51658302655306
  H   1.12777738780435      0.27651339459183      1.06823825196660
  H   1.41709915374350      1.07794491288018     -0.48954241815785
  N   -1.28156054719528     -0.76593313067991      0.47116337190112
  O   -1.93036288616644     -1.50837011351942     -0.24120102029840
  O   -1.10100510602868     -0.83814750836115      1.67878287725216
  C   -1.07808996051785      1.64578144920732      0.41845455920529
  N   -1.43603222574913      2.65245278370667      0.90633746580712
  N   1.27535710660649     -1.08263500117688     -0.51238052814428
  H   1.41478493611291     -1.06218195170608     -1.51269566614822
  H   2.11490330573236     -1.43017020751575     -0.07274196524615
