13
Coordinates from ORCA-job run
  C   -0.50396174467919      0.32125530961502      0.07915220440977
  C   0.64589076255330     -0.45886633595789     -0.57028988260393
  F   -0.61465170091481      1.54246444688805     -0.50171771735013
  H   0.66546419835308     -1.46025079290115     -0.13634168093056
  H   0.38880906315046     -0.54726403277411     -1.63097136725516
  N   -1.79922237555295     -0.44478150833495     -0.17141310369515
  O   -2.55606565163965     -0.00183751222406     -1.02009371641728
  O   -1.90899274837674     -1.48105445139864      0.47285467230728
  C   -0.32961093050089      0.47408355579438      1.52467387191254
  N   -0.10914642865262      0.60099853816780      2.67131718687736
  N   1.93528287029143      0.16608039262901     -0.43675489748836
  H   1.93111230727386      1.10778261011698     -0.80339953937094
  H   2.25409237869472      0.18038978037957      0.52298396960456
