13
Coordinates from ORCA-job run
  C   -0.54120795252127      0.42470348948253     -0.15741323996322
  C   0.98694645410047      0.30963444408577     -0.10307043152998
  F   -0.96267233701307      0.36357355579594     -1.44527493354121
  H   1.30042797298708      0.41744901232568      0.93652139548210
  H   1.37402361591384      1.16369996156443     -0.66659919662346
  N   -1.11421879086524     -0.78636793511406      0.57595150405037
  O   -0.89491262653587     -0.79832742262076      1.78073559435129
  O   -1.66317301868285     -1.64482102061966     -0.09526955938026
  C   -1.05640437095085      1.63171141845083      0.48821437490589
  N   -1.41551369935482      2.63155032019349      0.98960736942735
  N   1.51062192574267     -0.91374085662093     -0.65210832650603
  H   1.31507625550375     -1.71422170440286     -0.06663574184023
  H   1.16000657167617     -1.08584326252042     -1.58465880883261
