13
Coordinates from ORCA-job run
  C   -0.52383698441185      0.35207779941791     -0.07713337523903
  C   1.00578774262600      0.20001494685530     -0.03925588469153
  F   -0.98027461829462      0.18972567230443     -1.35552139326440
  H   1.30015796975246      0.09092871732750      1.00838754244878
  H   1.41012934191142      1.15414902732536     -0.38897948598267
  N   -1.22701180106649     -0.73825677867089      0.73590598579338
  O   -0.71157841323602     -1.85119484198820      0.70410137572970
  O   -2.26864650551794     -0.43191863537110      1.30364602502644
  C   -0.95217329853396      1.65228472316830      0.44259305779750
  N   -1.19434502007433      2.73131991800092      0.83850387758619
  N   1.57109128801497     -0.86153760405887     -0.83013172816153
  H   1.21244253102546     -1.75771623321957     -0.53376872029283
  H   1.35625776780490     -0.73187671109109     -1.80934727675002
