13
Coordinates from ORCA-job run
  C   -0.55444000137186      0.20245290971722     -0.12254860996638
  C   0.73397345309803     -0.62948249817346     -0.13496915980778
  F   -0.85834935376316      0.59575582930898     -1.38504172660462
  H   0.53054337561982     -1.49101356680867     -0.77936084219934
  H   0.91413080056355     -0.99290949559290      0.87837023672794
  N   -1.68732215044154     -0.68372826763048      0.38618091303243
  O   -1.63439078570913     -0.93832143757501      1.58334224169569
  O   -2.48286978244764     -1.10333458882262     -0.43857267689039
  C   -0.45542333948550      1.37344176072324      0.75051205481738
  N   -0.29734172026217      2.31780643623042      1.43072998551692
  N   1.88970296108754      0.07602227086095     -0.62256331207080
  H   1.73198320319338      0.45249072196536     -1.54721522336123
  H   2.17080333991869      0.82181992579698      0.00013611911016
