17

C	0.0	0.0	0.0
C	-0.377138	0.118012	-1.491132
F	1.401705	0.0	0.0
H	0.322496	0.875689	-1.872782
H	-0.319214	-0.965022	0.410358
C	-0.507239	1.131011	0.856959
H	-0.211415	2.093751	0.428865
H	-1.597013	1.080996	0.919362
H	-0.090547	1.057725	1.864783
N	-1.715784	0.558699	-1.827401
H	-1.892575	1.483999	-1.455703
H	-2.439522	-0.022476	-1.406401
C	-0.092036	-1.200742	-2.200036
H	-0.20283	-1.072284	-3.278384
H	0.914808	-1.561609	-1.976507
H	-0.816072	-1.955312	-1.875627
Br	-4.54539	0.0	0.0
