17

C	0.0	0.0	0.0
C	-0.474881	-0.349607	-1.427919
F	1.395732	0.0	0.0
H	0.441093	-0.341942	-2.031678
H	-0.295072	-0.799365	0.688161
C	-0.482079	1.323515	0.542264
H	-0.197318	2.134867	-0.127343
H	-1.570193	1.304544	0.632105
H	-0.043351	1.485603	1.531337
N	-1.357319	0.681624	-1.977338
H	-2.254936	0.62896	-1.490459
H	-1.553342	0.439612	-2.943357
C	-1.079294	-1.756487	-1.45799
H	-0.384946	-2.498598	-1.045905
H	-1.320146	-2.048484	-2.485637
H	-2.007017	-1.760479	-0.880333
Br	-4.25125	0.0	0.0
