17

C	0.0	0.0	0.0
C	-0.375877	0.154898	-1.47859
F	1.40559	0.0	0.0
H	0.198775	-0.62844	-1.991515
H	-0.299897	-0.995729	0.34582
C	-0.534177	1.054567	0.932162
H	-0.251085	2.053891	0.595185
H	-1.624695	0.984656	0.973518
H	-0.136469	0.905534	1.938657
N	0.061819	1.429468	-2.05553
H	-0.567536	2.164245	-1.752062
H	0.98959	1.649916	-1.710343
C	-1.850211	-0.058123	-1.753911
H	-2.195326	-1.036675	-1.418248
H	-2.493806	0.659552	-1.244367
H	-2.032152	0.024617	-2.827242
Br	-4.989624	0.0	0.0
