13
Coordinates from ORCA-job run
  C   1.09382968187750     -0.08308869201493      0.21081100992880
  C   -0.43360573688582     -0.02767575113470      0.24580926373502
  Cl  1.69850649432946      0.50412985969177     -1.36325783761321
  H   -0.76190651700129     -0.33695659867181      1.24216657334901
  H   1.49162787526793      0.59086790151730      0.97013167650949
  C   1.55096624952022     -1.44386969171899      0.46058524652489
  N   1.92511263506358     -2.53117428756259      0.69720209995401
  N   -1.03462284228682     -0.81499270273046     -0.74909028201406
  H   -2.03619610686671     -0.87316856227097     -0.63324399476760
  H   -0.82476888640849     -0.47717250919787     -1.67887458870916
  N   -0.80080732774401      1.47533125813747      0.20147280101168
  O   -1.55637650101897      1.84682897155699     -0.68778651180309
  O   -0.31175901784659      2.17194080439880      1.08507454389422
