13
Coordinates from ORCA-job run
  C   0.87318942482096     -0.58249266073899     -0.12171866219186
  C   -0.46309427831352      0.02848177853963      0.34981957292642
  Cl  1.07711694792051     -2.18211300874172      0.63712490862757
  H   -0.43024647364217      0.20844314933479      1.42423290737073
  H   0.82907471903090     -0.73451736754180     -1.20235971679073
  C   2.00263198196267      0.27895723374741      0.20580439126765
  N   2.89220020618079      0.99672050364188      0.47674812825889
  N   -1.64731032873306     -0.68054626129804     -0.00055123105255
  H   -1.81036270912273     -1.45908643869127      0.62140644541862
  H   -1.62933116339168     -0.99628109365466     -0.96165665558779
  N   -0.54355748293235      1.38365137026319     -0.30640540533585
  O   -0.59602528427702      1.36269623913510     -1.53498138307797
  O   -0.55328555950329      2.37508655600449      0.41253670016687
