13
Coordinates from ORCA-job run
  C   1.09694955738372      0.03168108047966      0.20675558117183
  C   -0.42432268332229     -0.11480715230520      0.23712439724569
  Cl  1.60685975183114      0.88885232828899     -1.27449574869678
  H   -0.70157581905070     -0.58855626488864      1.18311074686530
  H   1.41236817719253      0.64812866161342      1.04914611277418
  C   1.72775655942685     -1.27962549262139      0.28342838353678
  N   2.24026940034113     -2.33115288912777      0.38312550002741
  N   -0.92842884404864     -0.83903722577176     -0.85463204472194
  H   -0.77071871215954     -0.36242103353212     -1.73232256011591
  H   -1.91325745693773     -1.03920076578870     -0.75520487919304
  N   -0.98171314113625      1.32225453998752      0.38245944944290
  O   -1.78498272857039      1.70470351413982     -0.45898751070656
  O   -0.57820406094984      1.95718069952616      1.35149257237015
