13
Coordinates from ORCA-job run
  C   1.04977488472298      0.03785891520183      0.20467439668304
  C   -0.49424357883725     -0.01792341557924      0.26011646464723
  Cl  1.59152173784301      0.89630426872392     -1.25905494253582
  H   -0.76616640929387     -0.48652073503913      1.20933632330785
  H   1.42581841239019      0.59384802348899      1.06549499239833
  C   1.56390651618840     -1.32561540044586      0.21596610249721
  N   1.92082888144242     -2.44450540683428      0.23726042795450
  N   -1.18529439621597     -0.63927813405694     -0.80370992025205
  H   -0.88608079564696     -0.31464249948154     -1.71257899832934
  H   -1.14157620732136     -1.64644912528784     -0.74402454956519
  N   -0.93709477418195      1.42919524373036      0.40254957658609
  O   -1.56245934986938      1.93590607745473     -0.51711175040689
  O   -0.57993492122026      1.97982218812500      1.44108187701504
