13
Coordinates from ORCA-job run
  C   0.92829927334259     -0.65199275032529     -0.04862687486288
  C   -0.43104601243059     -0.07608873506677      0.37057934740418
  Cl  1.25766537351202     -2.14599209942665      0.85443589630196
  H   -0.44367938380649      0.13138672183011      1.44060138283570
  H   0.88904201511154     -0.90762386666607     -1.11045818168174
  C   2.00388245293924      0.31023338300073      0.17058226970071
  N   2.86066788596680      1.09392911335856      0.34659889857414
  N   -1.48555477006981     -0.94112722717978     -0.00228429988178
  H   -2.36339073651310     -0.67465049540657      0.42166365288508
  H   -1.58626586262802     -0.98687520842486     -1.00868992146479
  N   -0.51831229118625      1.29240188584519     -0.30690154480279
  O   -0.52352308693224      2.28955812796266      0.40673544614567
  O   -0.58778485730565      1.26684115049873     -1.53523607115343
