13
Coordinates from ORCA-job run
  C   0.94629574578550     -0.62173947143387      0.05227204750765
  C   -0.44636559492820     -0.05519770995238      0.35968324007854
  Cl  1.27933821580694     -2.01599983578932      1.10123046192718
  H   -0.51214673004970      0.25275645498751      1.40319937621979
  H   0.96093293102552     -0.97347014078750     -0.98249726984446
  C   1.98432891460110      0.39026410238542      0.22373401016497
  N   2.82152716373085      1.20420511507656      0.34952944731165
  N   -1.45773329920830     -0.98572821451489      0.02732959909707
  H   -1.51389220095996     -1.12531731996778     -0.97398069889319
  H   -2.36027252869201     -0.70919032772078      0.38845739104858
  N   -0.54173863333310      1.24106492043775     -0.44804190519288
  O   -0.58312557892734      2.30076943753651      0.16774982178334
  O   -0.57614840485127      1.09858298974281     -1.66966552120824
