13
Coordinates from ORCA-job run
  C   0.86874437811050     -0.58232913339370      0.57838637952039
  C   -0.53778653352110     -0.07222707307251      0.26439921337179
  Cl  1.39356721286778     -0.14776090132388      2.22287783317562
  H   -1.16297542686923     -0.18579466092802      1.16165606258081
  H   0.80400127192590     -1.67392809274612      0.56833161451357
  C   1.84353942456723     -0.18383972029032     -0.43088157777597
  N   2.63981187489322      0.09037581117201     -1.24851004874760
  N   -1.01370461621917     -0.72112667405483     -0.92862037720221
  H   -1.80447217639106     -0.20597970839284     -1.29722933063676
  H   -1.31625725574081     -1.66374928641838     -0.71672421877283
  N   -0.55083009056947      1.41838866454620     -0.00382101190793
  O   0.41359643942750      2.08232153033370      0.35251260918692
  O   -1.57723450248125      1.84764924456870     -0.52237714730577
