13
Coordinates from ORCA-job run
  C   0.85559424718743     -0.60279449421437     -0.13070242105502
  C   -0.46236817576066      0.03699713171976      0.35418670601420
  Cl  1.02108996183756     -2.21571587236163      0.60926683565011
  H   -0.42039142357773      0.20220258486756      1.43065645488268
  H   0.80279781383429     -0.74148002781535     -1.21278736917668
  C   2.01000699813104      0.22428229238996      0.19867128774718
  N   2.93299445488205      0.90590076329884      0.45067986700863
  N   -1.66603474546214     -0.63613703496259      0.00029598512112
  H   -1.84840335080680     -1.41701875981095      0.61360012295463
  H   -1.66139821264962     -0.93943094009192     -0.96487637481927
  N   -0.50895641833434      1.40201667651667     -0.28440610808896
  O   -0.48356639879320      2.38396176820148      0.44695640674567
  O   -0.57136475048790      1.39821591226258     -1.51254139298428
