13
Coordinates from ORCA-job run
  C   0.86211535441764     -0.61793516314434      0.55038790421026
  C   -0.53507044314365     -0.06631662775627      0.26909157371335
  Cl  1.42126175022154     -0.22764044432342      2.19467173133201
  H   -1.15298074360724     -0.19539590418483      1.16925074235146
  H   0.76855930188418     -1.70731714015360      0.52265883280326
  C   1.83247407591844     -0.22540999434621     -0.46527926637394
  N   2.61938528711018      0.06633984178226     -1.28581498857827
  N   -1.03874594490547     -0.66427323195162     -0.93955597189260
  H   -1.33332263908618     -1.61638184045861     -0.76122488086650
  H   -1.84069700684474     -0.13679240217692     -1.26413631463948
  N   -0.52047824049669      1.43119668836332      0.04719031102538
  O   -1.55727765629739      1.89781728667219     -0.41550480510073
  O   0.47477690482939      2.06210893167810      0.37726513201583
