13
Coordinates from ORCA-job run
  C   0.85498318499063     -0.61992583805432     -0.01930934921177
  C   -0.48299964778757      0.07223679235351      0.31607699231142
  Cl  0.94869911109493     -2.15956297912279      0.87350378258411
  H   -0.51007719270274      0.33467814975102      1.37355825642379
  H   0.87098775909485     -0.85635304693058     -1.08547173574194
  C   1.99554794479099      0.22521415907933      0.31185510800505
  N   2.89856668587757      0.92756102751555      0.57887856829283
  N   -1.67004690587184     -0.62082801367447     -0.05535456444479
  H   -1.90362844363164     -1.34097077914298      0.61246127425404
  H   -1.60570106773470     -1.01071926961723     -0.98670613179160
  N   -0.46830604539455      1.37338451515081     -0.44536755024199
  O   -0.44532760684375      1.25724978284334     -1.66950077890047
  O   -0.48269777588217      2.41803549984880      0.19337612846128
