13
Coordinates from ORCA-job run
  C   1.04342146233815     -0.07657715212338      0.22248781030818
  C   -0.49321709281794      0.09031906113038      0.24411280604949
  Cl  1.70771337807265      0.46485562528270     -1.33938050040807
  H   -0.83401586069806     -0.18511628651151      1.24535159328530
  H   1.48975343238301      0.54747873708433      0.99891049502792
  C   1.36154431919599     -1.47959621268078      0.45446206387980
  N   1.55987831099113     -2.61627887574888      0.67416102723965
  N   -1.25840043679927     -0.58480916513482     -0.73206909547941
  H   -1.36563795148482     -1.56540027344270     -0.51630805811330
  H   -0.90856020590657     -0.45344887314282     -1.67077689312745
  N   -0.72873552007543      1.58993320989957      0.15541942919504
  O   -0.30255823175449      2.23759667073540      1.10847526232251
  O   -1.27218560344436      2.03204353465246     -0.84584594017969
