13
Coordinates from ORCA-job run
  C   0.85900734189913     -0.61103386229333      0.07051303032400
  C   -0.50081041473052      0.08748119591016      0.28176255600459
  Cl  0.90929454171757     -2.08976143186830      1.06456698328174
  H   -0.59010768476281      0.41962770115939      1.31579031361248
  H   0.94095471232735     -0.91576728998392     -0.97514986835208
  C   1.97224464835762      0.26525564503865      0.41403383571416
  N   2.84985982146286      0.99474978650112      0.69300147585005
  N   -1.65988377823035     -0.64031409517684     -0.11079983884408
  H   -1.53856723195891     -1.08842075165993     -1.00987454549462
  H   -1.92534345281419     -1.31954137223942      0.58744760763090
  N   -0.45090917752383      1.33612987214463     -0.56232990874223
  O   -0.35604522038935      1.14074547783641     -1.77267953410615
  O   -0.51069410535457      2.41984912463138      0.00471789312121
