13
Coordinates from ORCA-job run
  C   0.98063151078101     -0.17674999908771      0.39058275465329
  C   -0.53766335249957     -0.01643446056620      0.14867124179071
  Cl  1.89793626357950      0.96911687158469     -0.61886523767411
  H   -1.04793308820231     -0.68775013522548      0.84397128935255
  H   1.21030924324839      0.05264121491220      1.43274773479262
  C   1.35828104261273     -1.54863538246413      0.07615608608950
  N   1.60185425046861     -2.66782020429764     -0.18412561606668
  N   -1.03465524530705     -0.20272997910952     -1.15977130941537
  H   -0.51348753001650      0.30752389922720     -1.85888611382634
  H   -1.10841949548990     -1.18051796761497     -1.40056389260682
  N   -0.87155429952754      1.38107633389729      0.64708911436469
  O   -0.69700841511821      1.55634198136570      1.85048877293089
  O   -1.23829088452912      2.21393782737855     -0.16849482438501
