13
Coordinates from ORCA-job run
  C   0.86778162315945     -0.61407814100640      0.54961804994700
  C   -0.53722380307776     -0.08023814941486      0.26508567966037
  Cl  1.40624739321952     -0.26281872699104      2.20953690139410
  H   -1.15502651137456     -0.21636866019091      1.16439176244272
  H   0.79430623882114     -1.70325807315288      0.48771175603512
  C   1.83910139875926     -0.17329681532712     -0.44518481879477
  N   2.62848987171475      0.15184986167794     -1.25069954003745
  N   -1.02877467139991     -0.68818434396565     -0.94254777997321
  H   -1.80202807671447     -0.14152985293501     -1.30255019341598
  H   -1.35893648270901     -1.62606397902362     -0.75265333332614
  N   -0.53516747677928      1.41893306719470      0.04684204528166
  O   -1.53818013174624      1.87531878520225     -0.49352168432021
  O   0.41941062812713      2.06173502793263      0.46297115510676
