13
Coordinates from ORCA-job run
  C   0.95126619830538     -0.61429901127053      0.07203133828828
  C   -0.45725606532892     -0.06773521212066      0.34090158616256
  Cl  1.26117604422030     -2.02457775418133      1.10760248149967
  H   -0.56393263313759      0.21382995936962      1.38852961874937
  H   1.00604425852545     -0.94803825236591     -0.96716951038487
  C   1.97117961124139      0.40447766280739      0.30062679078186
  N   2.78460644810864      1.23170667869244      0.48271038854507
  N   -1.44609673806818     -1.00042075678100     -0.04861119236218
  H   -2.36381313326417     -0.74237688767339      0.28682309201336
  H   -1.46549630149150     -1.11810711674502     -1.05404782722979
  N   -0.53777223383368      1.24534122952458     -0.43992281047353
  O   -0.51340603825399      1.13034066478831     -1.66484900316304
  O   -0.62549941702312      2.28985879595549      0.19637504757327
