13
Coordinates from ORCA-job run
  C   0.88397877496428     -0.57899633563034     -0.01929079335184
  C   -0.49333987043135      0.03759804615567      0.30445841860063
  Cl  1.02663786933488     -2.14584002701777      0.81810519316404
  H   -0.55965848424186      0.25824217374983      1.36970994494806
  H   0.93915298263538     -0.77389471347787     -1.09250738922025
  C   1.97379136556914      0.30489325315224      0.37569548288791
  N   2.82825668682457      1.04083027158459      0.70524761509921
  N   -1.63663730928926     -0.69462169281302     -0.12481573452718
  H   -1.53103075310281     -1.04255889919567     -1.06897671736979
  H   -1.85030264019277     -1.45234772643388      0.50724495100170
  N   -0.52051172322873      1.36601284034271     -0.40795509279490
  O   -0.46085671709406      1.29785740403166     -1.63448997293033
  O   -0.60048018174742      2.38382540555181      0.26857409449271
