13
Coordinates from ORCA-job run
  C   1.06451136028536     -0.03053323969953      0.10781450373899
  C   -0.46306264951837      0.12742650553749      0.28252508222600
  Cl  1.53093793520952      0.24237081467748     -1.58981057435512
  H   -0.67834590703095      0.02321273881888      1.34898642049423
  H   1.58069225828188      0.71888635296568      0.71075042755820
  C   1.44414125814487     -1.37204419450794      0.53180998946455
  N   1.69462580251500     -2.45627382755288      0.90777813397058
  N   -1.31792948240229     -0.70873071812020     -0.46925611627284
  H   -1.36828131741155     -1.64093432975359     -0.08427124366428
  H   -1.08446985321207     -0.73207178273377     -1.45203834579456
  N   -0.74752836387834      1.58804632488680     -0.02798404409961
  O   -1.41612683406222      1.84928116615994     -1.01711846095730
  O   -0.24016420692084      2.39136418932163      0.75081422769116
