13
Coordinates from ORCA-job run
  C   0.94805885596116     -0.25398000622988      0.42486307706694
  C   -0.54441292894058      0.01754448380642      0.12711714953130
  Cl  1.98373241531320      0.84700748656668     -0.51771121806694
  H   -1.12753389694026     -0.63087791676434      0.78602194478768
  H   1.14969636076489     -0.06535684779676      1.48098149275241
  C   1.24323868491861     -1.64160842811892      0.09195506930947
  N   1.42491188450231     -2.77058741108114     -0.17643554744106
  N   -1.00016000913117     -0.10666519013280     -1.20425887011722
  H   -1.11088494542329     -1.07308469672083     -1.47576580069541
  H   -0.42478379529255      0.39431080441277     -1.86681339802819
  N   -0.80099977022942      1.42394010528365      0.64276797000718
  O   -1.07316537419968      2.29637326252348     -0.16874389318862
  O   -0.66769748130323      1.56298435425165      1.85602202408245
