13
Coordinates from ORCA-job run
  C   0.85560399313814     -0.57348825328000      0.47403093353513
  C   -0.59219149871755     -0.05609609791223      0.36945876752718
  Cl  1.70036193648192      0.13362306719786      1.87284090177488
  H   -1.12041916187517     -0.31812164578316      1.28622571416673
  H   0.78893547811251     -1.64917699529530      0.65968582310605
  C   1.61431362024979     -0.37428649605060     -0.75674250284134
  N   2.20761345506542     -0.28127459348747     -1.76609954865439
  N   -1.31785936215721     -0.49766254983822     -0.77573085145560
  H   -0.79727987052218     -0.37573273853344     -1.63511188066292
  H   -1.64656741110406     -1.44732602181361     -0.68016636131197
  N   -0.56931044424274      1.44849221255430      0.33488342798875
  O   -0.08612837914978      1.94467256844590     -0.67868094569975
  O   -1.03707235527908      2.04737754379595      1.29640652252727
