13
Coordinates from ORCA-job run
  C   0.95738945751171     -0.57339069222500      0.03148227185012
  C   -0.44715293635562      0.02818611915121      0.22116748412047
  Cl  1.01924710232190     -2.11285038571627      0.94016044861221
  H   -0.54648959441038      0.39387324425613      1.25178583011892
  H   1.07148100566646     -0.82736401340302     -1.02513411935994
  C   2.06039058018511      0.26569712288047      0.48578464021245
  N   2.98457870232693      0.88117777489576      0.86828376367719
  N   -1.43374297681522     -0.91146381098298     -0.22357650835214
  H   -1.72048396062728     -1.51205008052252      0.53624445163559
  H   -2.23576045680830     -0.41972473110395     -0.59530788352985
  N   -0.54736261031984      1.28379248261843     -0.63230304233702
  O   0.31043841065769      2.13489153861630     -0.42782259232679
  O   -1.47353272333317      1.37122543153544     -1.43076474432125
