13
Coordinates from ORCA-job run
  C   0.86569489097745     -0.57656944528353      0.45093587843532
  C   -0.57844346679625     -0.04162723743354      0.39212371344215
  Cl  1.77056204763363      0.14178072819197      1.80653446714606
  H   -1.07285527626538     -0.27906996023248      1.33408030392807
  H   0.79232422246969     -1.64811524549395      0.65702245513766
  C   1.58160717917774     -0.40669860713098     -0.80934072393990
  N   2.14126516769567     -0.33728325696118     -1.83958038785588
  N   -1.35341834925298     -0.49600541212601     -0.71466494638276
  H   -1.69420416821670     -1.43742521984179     -0.58753125640387
  H   -0.86713125352537     -0.39633346543430     -1.59644180431128
  N   -0.53769579276866      1.46140182178085      0.32658707466868
  O   -0.09002467803249      1.93073287295031     -0.71571376107894
  O   -0.95868052309636      2.08521242701464      1.29398898721469
