13
Coordinates from ORCA-job run
  C   0.93904070979553     -0.59233107742595      0.46563426432075
  C   -0.53132079856307     -0.17137770517146      0.38430085077954
  Cl  1.76307915810154      0.17598540008585      1.84148457105856
  H   -1.03013559122462     -0.44231935380352      1.31509249566897
  H   0.93533497620503     -1.66909766196966      0.64625780416445
  C   1.65756187974221     -0.33801273125165     -0.77945193590776
  N   2.22784516500584     -0.18214269865457     -1.79412024266844
  N   -1.13557754799960     -0.80078977488119     -0.73391838783903
  H   -2.14344223639378     -0.71965597761559     -0.70886744028211
  H   -0.78643242060055     -0.41412493069331     -1.60364218722242
  N   -0.60940502049934      1.35188883553618      0.34045691503635
  O   -1.01929395125688      1.92550432083694      1.34486007991037
  O   -0.26825432231233      1.87647335500794     -0.71708678701922
