16
Coordinates from ORCA-job run
  C   -0.61322776015119      0.50077838255052      0.31190617009804
  C   0.88695168927071      0.32048952772773     -0.06696685965661
  Br  -0.74153860823722      1.41247774071894      2.02767841778660
  H   1.20930911107632      1.28549539780538     -0.46000142524810
  N   -1.20020368372564     -0.93104228199771      0.56353330571038
  O   -2.10919900182759     -1.27560216857876     -0.18278864546716
  O   -0.69618037731858     -1.60271427008936      1.45495180123201
  N   -1.30743361017386      1.22583493638282     -0.65756781130221
  H   -2.30428521501298      1.24658062799621     -0.48880960447582
  H   -1.10306324924854      0.90469625459555     -1.59602685786035
  N   0.88473534398269     -0.62032452082873     -1.27218493355318
  O   1.10332708581792     -1.80499512969200     -1.05920825593946
  O   0.61463804001658     -0.11438727942858     -2.36233980222029
  N   1.81258100728297     -0.17109797251383      0.87974068297065
  H   1.43718650081246     -0.94206295718794      1.41507600616963
  H   2.12440272743598      0.56687371253975      1.49300781175586
