16
Coordinates from ORCA-job run
  C   -0.69630101970781      0.46018264267784      0.07132053766627
  C   0.78948190342405      0.10138314174033      0.21252965918918
  Br  -1.04758138337720      2.36014476027873      0.10797558797929
  H   1.16875940562511      0.51212533230255      1.14477702437336
  N   -1.33870732729179     -0.08015737067696      1.40360839701959
  O   -0.75262641348187      0.15906047326174      2.44979925934558
  O   -2.38870114736788     -0.69408450941932      1.27612092354578
  N   -1.25997016568446     -0.11497830719375     -1.07475186153792
  H   -1.19814870707154     -1.12522596022341     -1.01287040062256
  H   -2.22962803793404      0.15045131884207     -1.18649108778014
  N   1.58027929279462      0.78608457993706     -0.89260860196013
  O   2.01407856816475      1.90664279168707     -0.64585850964278
  O   1.73092157718783      0.15997994720651     -1.93793521898798
  N   0.90226048195093     -1.32110783357774      0.15971554293762
  H   1.05225441131993     -1.61367007645603     -0.80015574140288
  H   1.67362856144937     -1.64683093038670      0.72582448987774
