16

C	0.0	0.0	0.0
C	-0.330785	-0.062374	-1.515402
F	1.386888	0.0	0.0
H	0.454717	0.585439	-1.935263
C	-0.487467	1.284665	0.631205
H	-0.047795	1.374233	1.628231
H	-0.175243	2.128834	0.013897
H	-1.580382	1.250524	0.692824
C	-0.422126	-1.186835	0.754627
N	-0.591135	-2.165903	1.384334
N	-1.635155	0.457864	-1.85799
H	-2.35679	0.275292	-1.07717
H	-1.990323	-0.0066	-2.683578
C	-0.010735	-1.412632	-2.049025
N	0.276479	-2.457023	-2.518217
H	-3.246046	0.0	0.0
