16

C	0.0	0.0	0.0
C	-0.590302	0.035677	-1.405259
F	1.39061	0.0	0.0
H	-1.703441	0.061627	-1.158301
C	-0.486331	1.163293	0.83418
H	-1.584386	1.100079	0.840467
H	-0.083164	1.088728	1.84646
H	-0.150947	2.096437	0.376135
C	-0.376256	-1.286525	0.631582
N	-0.530737	-2.32037	1.168344
N	-0.296872	-1.118736	-2.240347
H	-0.926815	-1.864368	-1.969432
H	0.654054	-1.430919	-2.081181
C	-0.186601	1.263871	-2.086555
N	0.141275	2.248596	-2.637935
H	-3.042207	0.0	0.0
