16

C	0.0	0.0	0.0
C	-0.611277	-0.016859	-1.381995
Br	2.012442	0.0	0.0
H	-1.689739	-0.034848	-1.103713
H	-0.271598	0.931848	0.496615
N	-0.453316	-1.094922	0.772374
H	-0.535214	-0.884453	1.753436
H	0.082631	-1.935127	0.620871
C	-0.275825	-1.254171	-2.187908
H	-0.593797	-2.151642	-1.651221
H	0.794496	-1.306307	-2.409622
H	-0.827422	-1.235668	-3.133798
N	-0.235372	1.192206	-2.129412
H	-0.659265	1.980835	-1.645543
H	-0.718152	1.143885	-3.022473
H	-3.536462	0.0	0.0
