16

C	0.0	0.0	0.0
C	-0.356087	-0.108549	-1.535155
Br	1.973981	0.0	0.0
H	0.413034	-0.745518	-1.990124
H	-0.286621	0.982475	0.381273
N	-0.541616	-0.989068	0.87429
H	-1.547777	-0.766563	0.917619
H	-0.459288	-1.900824	0.437274
C	-0.280492	1.277413	-2.168442
H	0.699186	1.740154	-2.016684
H	-1.051673	1.919747	-1.731117
H	-0.481911	1.194461	-3.238143
N	-1.645767	-0.693907	-1.846199
H	-2.38782	-0.309678	-1.220933
H	-1.623781	-1.6847	-1.627116
H	-3.397229	0.0	0.0
