17
Coordinates from ORCA-job run
  C   -0.65523320355517     -0.28622509489004     -0.46573856507756
  C   0.88053059496990     -0.18997581112687     -0.41988302125249
  Br  -1.17859490317763     -1.57893368038934     -1.82454563626799
  H   1.21929028243879     -0.00128103817495     -1.44249606221117
  N   -1.14631284464959      1.07111133415795     -0.97083434648631
  O   -2.04933125243182      1.61379428852826     -0.34308117389719
  O   -0.58371774926314      1.52287049219624     -1.96132637265645
  C   -1.31152217336029     -0.63666279218110      0.84790282122314
  H   -0.93627770306029     -1.60362579786095      1.18584960797556
  H   -1.09257000961970      0.12311640141308      1.59926588678049
  H   -2.39169794690399     -0.69638674424052      0.72958461894697
  C   1.43225742314216     -1.47005053499874      0.02207367077775
  N   1.89185410646070     -2.47497584493114      0.41966855111904
  C   1.37667058370550      0.94137179166623      0.49132341768582
  H   0.97949159326687      1.90363730198256      0.16474938178184
  H   1.10098194960286      0.76972320113909      1.53214383238396
  H   2.46518125243484      0.99249252771026      0.43534338917458
