17
Coordinates from ORCA-job run
  C   -0.65951295046389      0.22353783126271     -0.21620970946321
  C   0.78325765878149      0.16069194505890      0.31918382965768
  Br  -0.70789989471234      1.01535224644441     -1.97731469880538
  H   0.69536274528496     -0.23200075492298      1.33829608592772
  N   -1.44398172250385      1.10792618899733      0.77050188904802
  O   -2.02954880024284      2.10352676903262      0.37825041304284
  O   -1.41566818546583      0.68543646687692      1.92442849259401
  C   -1.35347461482651     -1.12747452118138     -0.23412667632600
  H   -0.90425611243070     -1.77337167376016     -0.98721637550425
  H   -1.27471088681844     -1.59408210103405      0.74970627268672
  H   -2.40787228279796     -0.99666223336685     -0.48405733339491
  C   1.34149363883393      1.51057153610797      0.42682918074035
  N   1.81226506966697      2.58268295852359      0.51969577361851
  C   1.71211522362814     -0.74740095598275     -0.48958479232965
  H   1.80672233111766     -0.39723960405510     -1.51708085006866
  H   1.34319665504807     -1.77367178864082     -0.49097337059427
  H   2.70251212790113     -0.74582230936036     -0.03132813082951
