17
Coordinates from ORCA-job run
  C   -0.69277641494883     -0.11040367330305     -0.31049201695226
  C   0.81388654876512     -0.31135593486626     -0.02606899595319
  Br  -1.04494736630438     -0.26361854195706     -2.22007575294923
  H   0.97506252454154     -1.38180489218813     -0.20442315028749
  N   -1.13023988055330      1.30149524748671      0.08077416146173
  O   -2.24656680753263      1.42331223857049      0.57069347967384
  O   -0.34027508310271      2.21105032707431     -0.14375453567230
  C   -1.54306003914688     -1.12172724266508      0.43061626601526
  H   -1.41143306745889     -0.99963261299474      1.50801832653005
  H   -1.23531590618320     -2.12709564245124      0.13876554602185
  H   -2.59558861159194     -0.98825767879506      0.19225737906111
  C   1.02439077481111     -0.08192783429647      1.40782946105935
  N   1.19247396692088      0.11423662840310      2.55372723838246
  C   1.85970991591955      0.45516258884828     -0.84483512946159
  H   1.68713217015979      0.30856416757541     -1.91042999315605
  H   1.84249462239648      1.51768096458530     -0.62222920566598
  H   2.84505265330826      0.05432189097349     -0.59737307810758
