17

C	-0.363187	0.121293	-1.488498
C	0.0	0.0	0.0
F	-1.65181	0.53888	-1.637734
H	1.095405	0.0	0.0
N	0.488275	0.949037	-2.269842
H	0.363463	1.904651	-1.953561
H	1.455384	0.685972	-2.074272
N	-0.297977	-1.285345	-2.08427
O	-1.352614	-1.900275	-2.203244
O	0.823505	-1.700055	-2.347696
C	-0.549797	-1.230602	0.716428
H	-1.634492	-1.306055	0.614266
H	-0.290233	-1.176106	1.774745
H	-0.084098	-2.129216	0.308777
C	-0.43505	1.2356	0.646205
N	-0.802015	2.222432	1.167396
Br	3.438084	0.0	0.0
