17

C	-0.356429	0.274585	-1.470319
C	0.0	0.0	0.0
F	-1.632199	0.738849	-1.580102
H	1.102543	0.0	0.0
N	0.516821	1.15141	-2.167621
H	1.479155	0.867772	-1.976924
H	0.390846	2.081874	-1.782118
N	-0.327644	-1.0691	-2.198758
O	0.783392	-1.492814	-2.489174
O	-1.39887	-1.634805	-2.388865
C	-0.553739	-1.295699	0.585555
H	-0.292678	-1.35289	1.64337
H	-1.639223	-1.355444	0.478697
H	-0.092795	-2.149164	0.086081
C	-0.431638	1.163779	0.769787
N	-0.795843	2.090382	1.393416
Br	3.439242	0.0	0.0
