17

C	-0.51782	-0.098877	-1.420913
C	0.0	0.0	0.0
F	0.089681	-1.189868	-2.025536
H	1.092828	0.0	0.0
N	-1.920119	-0.135089	-1.51869
H	-2.301289	-0.876591	-0.949743
H	-2.200575	-0.237768	-2.4855
N	-0.072361	1.075915	-2.292166
O	-0.540283	1.074709	-3.429736
O	0.710535	1.891183	-1.830022
C	-0.406995	-1.238292	0.813828
H	0.134907	-1.213793	1.759747
H	-1.478161	-1.268553	1.033555
H	-0.105735	-2.139448	0.279464
C	-0.504566	1.204463	0.65248
N	-0.948934	2.115976	1.244061
Br	3.478934	0.0	0.0
