17

C	-0.252115	-0.147042	-1.492923
C	0.0	0.0	0.0
F	-0.148653	1.105813	-2.102017
H	1.106028	0.0	0.0
N	0.594214	-1.112663	-2.028144
H	1.556641	-0.946453	-1.727096
H	0.511417	-1.170893	-3.033556
N	-1.698138	-0.516909	-1.847624
O	-1.881403	-1.055312	-2.936377
O	-2.577189	-0.188189	-1.056378
C	-0.436058	-1.213115	0.824135
H	-1.520235	-1.263228	0.929891
H	-0.067186	-2.120026	0.343597
H	0.019442	-1.144383	1.813381
C	-0.51531	1.246578	0.545964
N	-0.935481	2.219643	1.050911
Br	3.443683	0.0	0.0
