17

C	-0.475154	-0.02707	-1.440533
C	0.0	0.0	0.0
F	0.116184	-1.111998	-2.064214
H	1.094785	0.0	0.0
N	-1.875196	-0.014468	-1.597107
H	-2.301067	-0.752631	-1.05442
H	-2.10939	-0.114671	-2.577425
N	0.025665	1.171855	-2.244786
O	-0.262759	1.138534	-3.439989
O	0.637018	2.057298	-1.666332
C	-0.40652	-1.287799	0.733181
H	-1.484452	-1.356578	0.908849
H	-0.06215	-2.152154	0.165473
H	0.097307	-1.300095	1.700394
C	-0.525929	1.159374	0.71128
N	-0.992943	2.027363	1.349851
Br	3.455312	0.0	0.0
