15
Coordinates from ORCA-job run
  C   -0.58896056372790      0.08528110141534      0.33945052147236
  C   0.82765619758092     -0.25849605056150      0.77984277170937
  Cl  -1.63252802192847      0.19448747351838      1.78176734574871
  H   1.11764016291045      0.41159965076193      1.59311569302625
  H   0.78961072315079     -1.27443096473855      1.18106025369342
  N   -0.57093549260837      1.49154704439556     -0.26072216266784
  O   -1.44826122266208      1.77194431823553     -1.06779763629191
  O   0.30681106579068      2.25430085341031      0.13528469775146
  C   -1.17228621879719     -0.88109644470385     -0.65912350320777
  H   -1.21103235273594     -1.87304878069469     -0.20547282897196
  H   -0.52617500735778     -0.90943309347004     -1.53648927770353
  H   -2.17681487463323     -0.58073153209549     -0.94782955636797
  N   1.70765012906572     -0.20790647440801     -0.37877235439734
  H   2.15638348642120      0.69616512894191     -0.43361696606766
  H   2.42224198953121     -0.91918223000684     -0.32269699772558
