15
Coordinates from ORCA-job run
  C   -0.49057603156452      0.01126030014420      0.27687263101370
  C   0.93014450293018     -0.53372262985905      0.15821951365095
  Cl  -0.93895398700220      0.16035287335893      1.97758869229054
  H   0.96067147806882     -1.44889374620935      0.75425670617964
  H   1.09541021055354     -0.80928316750862     -0.88797878616488
  N   -0.50441509156994      1.39709350418812     -0.36850568388322
  O   -1.18458980438996      2.28512847123998      0.11891783136985
  O   0.14308835268874      1.47320453364131     -1.41188235436592
  C   -1.51954567124912     -0.81942172885280     -0.46426699744326
  H   -1.26464313145907     -0.85806352898871     -1.52543677337521
  H   -1.53074066097118     -1.83206323501296     -0.05809829755990
  H   -2.51353018829333     -0.38579094100923     -0.34480320153763
  N   1.88857529202228      0.43319160962998      0.66105905705804
  H   2.32232655969765      0.93466767506529     -0.10056915545589
  H   2.60677817053812     -0.00965998982708      1.21362681822321
