15
Coordinates from ORCA-job run
  C   -0.47797471961257      0.04568099648032      0.22410786054688
  C   0.94017784030160     -0.49702002580383      0.10895461832970
  Cl  -0.86068716898644      0.34242739933656      1.92922043576886
  H   1.11157082676706     -0.72001175868121     -0.94572025909188
  H   0.97141467456769     -1.44088282794564      0.67104059443543
  N   -0.49371762642790      1.36996446000305     -0.54092533778917
  O   -0.76213777511659      2.41159033004921      0.03222930413163
  O   -0.22458685463555      1.24320501556738     -1.73210599116189
  C   -1.52643060480229     -0.86197020461675     -0.38473760083960
  H   -2.51779779367830     -0.41682913552891     -0.28533558379475
  H   -1.30596830391696     -1.01981847826702     -1.44067617003090
  H   -1.52370427809134     -1.81995829407152      0.13701518826580
  N   1.89470140320895      0.51079225170327      0.53181980376796
  H   1.96457412046315      0.54083599690115      1.54017679842426
  H   2.81056625995948      0.31299427487395      0.15393633903768
