15
Coordinates from ORCA-job run
  C   -0.50583326961077     -0.00010498480131      0.15906399794200
  C   0.95270987679278     -0.43402894672046      0.21580106493163
  Cl  -1.13406475196819      0.18109293500723      1.80621940895807
  H   1.27916103103519     -0.58801664219168     -0.81439142853943
  H   0.98227153584047     -1.40187784367449      0.73567852782150
  N   -0.52187025473771      1.35755646718501     -0.54593797956923
  O   -0.08966809005270      1.31116307936409     -1.69418582895703
  O   -0.94231437881327      2.34688026400066      0.02867006227980
  C   -1.39002584064965     -0.94770880408705     -0.62472112157393
  H   -2.41694779627183     -0.57909081212768     -0.64523246677306
  H   -1.01797255929784     -1.03604069514647     -1.64563767412150
  H   -1.38404165727397     -1.92833105411572     -0.14689434960379
  N   1.76202317162635      0.61522157583030      0.80641168797238
  H   1.69269004933206      0.60142424320630      1.81513641309868
  H   2.73288293404910      0.50186121827126      0.55101968613391
