15
Coordinates from ORCA-job run
  C   -0.48329176946799      0.03757529421360      0.21454799564931
  C   0.94224562546580     -0.48972892811779      0.12226228411408
  Cl  -0.90689301700574      0.30464848863312      1.91456533415437
  H   1.13865626343578     -0.69340819774481     -0.93202489314959
  H   0.97036538248315     -1.44258357584573      0.66918048499416
  N   -0.49474962618730      1.37369171263083     -0.53066458340550
  O   -0.20083822635571      1.26793404392026     -1.71800609215058
  O   -0.78398441906757      2.40385785248958      0.05319249621207
  C   -1.50855839505781     -0.87048768686215     -0.43194697493559
  H   -1.26135453679804     -1.01175719645209     -1.48428438388519
  H   -1.51015394512284     -1.83564467297678      0.07639956773149
  H   -2.50589728010907     -0.43506352602792     -0.35078448813472
  N   1.87787925214684      0.51988486155143      0.58150531632498
  H   1.92354913938112      0.53698283339185      1.59159764664203
  H   2.80402555225938      0.33309869719658      0.22346028983866
