15
Coordinates from ORCA-job run
  C   -0.49421114789455      0.00817105235803      0.26982026142726
  C   0.93122699546115     -0.52827059533101      0.17358064689165
  Cl  -0.97211312937523      0.15181938808888      1.96301743262935
  H   1.11484880497420     -0.80173920635039     -0.87035062364609
  H   0.95679467043432     -1.44390641111670      0.76900825046867
  N   -0.50871598501446      1.39495806064012     -0.37369400927029
  O   -1.21621539875401      2.27144593741956      0.09537096137339
  O   0.16651556163082      1.48306964347536     -1.39841422822719
  C   -1.50535037794078     -0.82836080544005     -0.48931270998271
  H   -1.51426786004819     -1.84207710754047     -0.08574251850640
  H   -1.23371967979519     -0.86260167296216     -1.54655310369360
  H   -2.50438677220905     -0.40281663567320     -0.38424856654283
  N   1.87625256286390      0.44158068958909      0.69510355195567
  H   2.30458685506433      0.96102619968716     -0.05761477580023
  H   2.59975490060275     -0.00229853684423      1.24002943092335
