15
Coordinates from ORCA-job run
  C   -0.59378505876240      0.08144263188699      0.33365802410534
  C   0.82307968739187     -0.24017762256229      0.79020821150339
  Cl  -1.65209404984895      0.18959945022098      1.76479623488985
  H   1.09645204560993      0.44231416059632      1.59875989352830
  H   0.79459631064182     -1.25204245474779      1.20230775828864
  N   -0.58707691139411      1.48191596195166     -0.27939051686798
  O   -1.45739881111092      1.74330207614565     -1.10031796699214
  O   0.27568800626869      2.25981461612356      0.12002490557960
  C   -1.15496922760986     -0.90114944900252     -0.66183498305517
  H   -2.16071883856236     -0.61680242076376     -0.96223775442221
  H   -1.18476952779526     -1.88958272272224     -0.19983956247181
  H   -0.50102454501692     -0.92837684445244     -1.53339487724317
  N   1.71316571754013     -0.18792011912063     -0.36023968935149
  H   2.16122046536161      0.71647249762764     -0.41263370281614
  H   2.42763473728672     -0.89880976118114     -0.29986597467502
