15
Coordinates from ORCA-job run
  C   -0.43605684744833      0.22208836788774      0.23029089614637
  C   1.10663063030619      0.23887279845541      0.27847856178480
  Cl  -1.07493419278540     -0.11730510070797      1.84599412535318
  H   1.40316048761556      1.00153887533949      1.00455368310789
  H   1.45057380342203      0.56097202638146     -0.70781000681797
  N   -0.84302852449569      1.63403551395459     -0.18812506689819
  O   -0.60362608657936      1.88928329862174     -1.36724157570951
  O   -1.30044862557869      2.41172970630245      0.63673991802145
  C   -1.01419855794307     -0.75989255811280     -0.76551439260715
  H   -0.60026024562840     -0.57375905557536     -1.75631736397289
  H   -0.77577187330156     -1.77591322601359     -0.45148160493243
  H   -2.10023790589352     -0.66427762945649     -0.80795315541048
  N   1.75182657947152     -1.00510093967670      0.61758786668526
  H   1.44019875206733     -1.35052215587578      1.51523298089783
  H   1.59517260677139     -1.71474992152417     -0.08443486564815
