16

C	-0.379784	-0.029218	-1.465607
C	0.0	0.0	0.0
F	-1.795688	-0.036926	-1.561768
H	1.093968	0.0	0.0
H	-0.364171	0.925219	0.469818
C	0.130563	1.196854	-2.185668
H	1.209482	1.282467	-2.029401
H	-0.355941	2.090649	-1.788003
H	-0.091936	1.110741	-3.251186
N	0.081899	-1.229773	-2.120337
H	-0.103919	-1.975326	-1.45041
H	1.098212	-1.14991	-2.15755
N	-0.451987	-1.221267	0.673535
H	-1.337031	-1.068761	1.136351
H	0.239171	-1.466179	1.370399
H	3.034593	0.0	0.0
