16

C	-0.347358	-0.029572	-1.472779
C	0.0	0.0	0.0
F	-1.740757	-0.236507	-1.622064
H	1.09415	0.0	0.0
H	-0.332818	-0.954672	0.440208
C	0.009989	1.260532	-2.168405
H	1.078957	1.448942	-2.03755
H	-0.227876	1.17145	-3.230438
H	-0.546644	2.079269	-1.715247
N	0.304664	-1.14312	-2.136286
H	0.091102	-1.97934	-1.597961
H	1.306867	-0.993002	-2.004419
N	-0.502198	1.176894	0.70807
H	-1.363956	0.958684	1.189977
H	0.189784	1.43954	1.399996
H	3.024834	0.0	0.0
