16

C	-0.40892	-0.093445	-1.461439
C	0.0	0.0	0.0
F	-0.220977	-1.439953	-1.843224
H	1.09874	0.0	0.0
H	-0.329487	0.978725	0.37379
C	-1.86719	0.217484	-1.725934
H	-2.097253	0.012685	-2.773079
H	-2.483786	-0.405311	-1.076378
H	-2.081456	1.268576	-1.509522
N	0.462834	0.683792	-2.311267
H	1.417655	0.554383	-1.965017
H	0.239305	1.665221	-2.188127
N	-0.628453	-1.055068	0.809805
H	-0.261318	-1.928129	0.444758
H	-0.236695	-0.975001	1.743651
H	3.110431	0.0	0.0
