16

C	-0.514215	0.026244	-1.434237
C	0.0	0.0	0.0
F	-0.363327	1.344127	-1.902412
H	1.093153	0.0	0.0
H	-0.383659	0.894039	0.498932
C	0.334009	-0.842383	-2.344105
H	1.384402	-0.555989	-2.25398
H	-0.00338	-0.734591	-3.381473
H	0.233655	-1.888677	-2.04366
N	-1.924459	-0.274619	-1.453183
H	-2.042591	-1.039155	-0.794357
H	-2.191813	-0.602228	-2.375039
N	-0.457707	-1.234962	0.680526
H	0.376319	-1.778357	0.880624
H	-0.858191	-0.992736	1.577553
H	3.088626	0.0	0.0
