16

C	-0.435838	0.038328	-1.457643
C	0.0	0.0	0.0
F	-0.185431	-1.237485	-1.985265
H	1.093895	0.0	0.0
H	-0.38309	-0.904503	0.49054
C	-1.91231	0.313095	-1.65642
H	-2.133017	0.31204	-2.725528
H	-2.172574	1.282123	-1.228085
H	-2.502567	-0.465475	-1.164743
N	0.358572	0.967437	-2.233712
H	0.196424	1.87971	-1.815663
H	1.333052	0.747806	-2.014462
N	-0.402991	1.253817	0.664368
H	0.390517	1.56891	1.211095
H	-1.1695	1.091561	1.303901
H	3.045873	0.0	0.0
