17

C	0.0	0.0	0.0
C	-0.4632	-0.167645	-1.50789
Cl	1.79882	0.0	0.0
H	0.473248	-0.231758	-2.068355
C	-0.408493	1.275298	0.596614
N	-0.587615	2.339752	1.061416
C	-0.421494	-1.103289	0.86616
N	-0.619259	-2.037618	1.550415
C	-1.230682	1.050226	-2.015991
H	-1.448885	0.899298	-3.077593
H	-0.645523	1.969809	-1.919814
H	-2.176342	1.149267	-1.479904
C	-1.23712	-1.462981	-1.734507
H	-0.66908	-2.336961	-1.404808
H	-2.197166	-1.420808	-1.217673
H	-1.422362	-1.570294	-2.807505
Cl	-3.850334	0.0	0.0
