17

C	-0.383559	-0.021846	-1.458098
C	0.0	0.0	0.0
Br	0.035033	1.602329	-2.437631
H	1.096818	0.0	0.0
H	0.137622	-0.826373	-1.975551
N	-1.848348	-0.314909	-1.632241
O	-2.130734	-1.474844	-1.945598
O	-2.667971	0.561561	-1.368696
C	-0.405156	-1.325925	0.642757
H	-0.056726	-2.176149	0.049901
H	-1.488737	-1.421035	0.782365
H	0.080992	-1.390935	1.620045
C	-0.506223	1.185694	0.801622
H	-1.596314	1.191943	0.904222
H	-0.0587	1.134735	1.798566
H	-0.193315	2.129986	0.353241
H	2.829686	0.0	0.0
