17

C	-0.382286	0.058403	-1.442973
C	0.0	0.0	0.0
Br	-2.332841	0.210209	-1.803266
H	1.097438	0.0	0.0
H	0.060147	0.923238	-1.93311
N	0.099017	-1.116214	-2.250481
O	-0.335454	-2.232176	-1.979339
O	0.913578	-0.860195	-3.134806
C	-0.487215	-1.205261	0.785018
H	-0.054935	-2.131334	0.407554
H	-0.160137	-1.087749	1.822258
H	-1.57907	-1.295839	0.770644
C	-0.390947	1.30781	0.680174
H	-0.07136	2.171341	0.088566
H	0.132208	1.365206	1.638678
H	-1.469494	1.381989	0.855976
H	2.802174	0.0	0.0
