12
Coordinates from ORCA-job run
  C   -0.69866463073959     -0.61677288720968     -0.08162098012619
  C   0.56994689808893     -0.33472282735812      0.68917020228729
  H   -0.45497567002199     -1.15667078121324     -1.00453819692807
  H   0.36006432986117      0.20636578414273      1.61066667407269
  H   -1.30028560529152     -1.28428800152218      0.54250451241890
  H   1.13937291603895     -1.23936015084521      0.91619944282350
  N   -1.43834085292974      0.62447913006310     -0.28548028929234
  H   -1.04880534961169      1.11459589643454     -1.08031839753375
  H   -2.40649953789100      0.42229034116448     -0.49606019937159
  N   1.51431174441322      0.54234659080288     -0.07972587740127
  O   1.32714557611819      0.68169286596851     -1.28782382523005
  O   2.43673018196505      1.03904403957219      0.55702693428089
