17
Coordinates from ORCA-job run
  C   -0.60941810902114      0.35272602501322      0.51195523062904
  C   0.53291554419156     -0.54144955213554      0.01245042126764
  F   -0.06416965363720      1.30312063653951      1.40339821164883
  H   0.69117248768053     -1.32609830324025      0.76209190534756
  N   -1.13252755209282      1.12726224644906     -0.58333849543030
  H   -1.76543230262481      0.53400432483147     -1.10498535598946
  H   -1.63861113811281      1.92503953951388     -0.21781704076014
  N   -1.60797137787037     -0.41531151770975      1.17701123004452
  H   -2.34166838061227      0.19589304054753      1.51687842274415
  H   -1.21006356570420     -0.91340893013833      1.96426869255031
  C   1.82343007105362      0.24885035554793     -0.17384667468998
  H   1.64111012885855      1.08589619532206     -0.85191673929411
  H   2.20069227880701      0.64770467022238      0.76801608269094
  H   2.58808854177583     -0.39856488929135     -0.61122947050699
  N   0.06219775833134     -1.19131128301633     -1.21249513523104
  H   0.57034365967462     -2.05332966755904     -1.36197447387112
  H   0.26191160930255     -0.58002289089645     -1.99646681114986
