17
Coordinates from ORCA-job run
  C   -0.80549457163376      0.05320405994668      0.26627065203187
  C   0.52673327436697     -0.59520663754052     -0.11962643978283
  F   -1.79843288500433     -0.94184149733816      0.02707164476872
  H   0.72300752028522     -1.36938454902561      0.64499502998241
  N   -0.79136741391537      0.42586733110932      1.63802332736254
  H   -0.50469130173938     -0.35118810664461      2.22033377683869
  H   -1.71917120342727      0.72092471175661      1.91904384880406
  N   -1.15504583080610      1.16933610796414     -0.56854369375897
  H   -2.07058896959384      1.03539912663470     -0.97055071848580
  H   -1.12054458386921      2.02825112287598     -0.03870283150799
  C   1.64856981658706      0.42772825456062     -0.09601159604099
  H   2.58966901645891     -0.03921639531149     -0.40037488828134
  H   1.78095586510142      0.85220843022405      0.90019788664499
  H   1.41172299596031      1.22053718885728     -0.80597756544780
  N   0.41301658256579     -1.15481242311370     -1.46020385237679
  H   -0.37561715122964     -1.78858344837891     -1.49265494452950
  H   1.24627883989321     -1.69322327657640     -1.66428963622127
