17
Coordinates from ORCA-job run
  C   -0.73387090467973      0.49972835770474      0.18249987028965
  C   0.39474474493562     -0.48592284521271     -0.15617580624093
  F   -0.55741824701402      1.57856262677753     -0.68993359860541
  H   0.23415717780497     -1.37377522203956      0.47004784186771
  N   -2.06112737012894      0.01464691435754     -0.09093676285266
  H   -2.04534337592263     -0.46325656902399     -0.98623661821280
  H   -2.32110364971878     -0.65682436621162      0.62058027879475
  N   -0.59761387453275      1.00355100536447      1.51336856280786
  H   -1.44086353243144      1.50854228640467      1.75993989556709
  H   -0.44992752443581      0.25321433014733      2.17555584567403
  C   1.77855927198990      0.09417739634640      0.12069241972396
  H   1.91177634805425      0.35586098509843      1.17119113865006
  H   2.55037856523687     -0.62803026949762     -0.16063782617108
  H   1.91920510247726      1.00263734235894     -0.46835466048434
  N   0.18486678854576     -0.90276015427536     -1.54395897267959
  H   0.43043442773046     -0.12833339822547     -2.15100364529361
  H   0.80414605208900     -1.67201842007372     -1.76763796283468
