17
Coordinates from ORCA-job run
  C   -0.78578702671596      0.07486859257430      0.39084865770326
  C   0.50055791314522     -0.56870932540551     -0.12047824852578
  F   -1.77861427012417     -0.97930901508156      0.26514000733966
  H   0.69847176671868     -1.41824089665440      0.55314234631016
  N   -0.68653956002330      0.43396298412051      1.76328303567006
  H   -0.77552189728751     -0.39380256891551      2.33843373499724
  H   -1.41290625245063      1.09136896987890      2.01628041888619
  N   -1.15378676259440      1.17785537090942     -0.40932096328831
  H   -2.12556535233631      1.41732280678244     -0.25388440629602
  H   -1.02592822400476      0.90961198834252     -1.37903467564546
  C   1.67129688055206      0.39645837197059     -0.06660492651840
  H   2.59554350792075     -0.11239463831327     -0.35712793176171
  H   1.78929126365636      0.78981353978698      0.94196913772306
  H   1.50033558045866      1.22957020998427     -0.74924831351437
  N   0.26099272861600     -0.98630399237091     -1.50199968234741
  H   1.12641955716960     -1.30718538318901     -1.91802340807077
  H   -0.39825985270029     -1.75488701441978     -1.51137478266139
