17
Coordinates from ORCA-job run
  C   -0.59153359225502      0.32185089093936      0.64052292244754
  C   0.60865785795878     -0.48942187796683      0.15154011778883
  F   -0.12148422446986      1.19810184422417      1.63966503762339
  H   0.98180719344812     -1.01222546548297      1.03734612550492
  N   -1.13346513557060      1.09928123221207     -0.44376223700982
  H   -0.52961694537843      1.89072586751233     -0.63545548254659
  H   -2.04313419634329      1.46311775746880     -0.18538334716580
  N   -1.52744045227868     -0.55632535886599      1.25292608271811
  H   -2.41853352124135     -0.10583275234521      1.41820200518163
  H   -1.63943086735803     -1.36476229118923      0.65398968617755
  C   1.71371626108822      0.39706769487201     -0.41550896503761
  H   2.59674909539520     -0.20714076864308     -0.63826193344875
  H   2.00458375036106      1.17434219517411      0.29391615130212
  H   1.39302474314910      0.86621379642076     -1.35000626214770
  N   0.09466224542347     -1.49641178634989     -0.77589519520258
  H   0.82822991154362     -2.14913178172402     -1.02319769783707
  H   -0.21379212347230     -1.02744919625640     -1.62063700834819
