17
Coordinates from ORCA-job run
  C   -0.77760219101851     -0.01899269665797      0.26642859066535
  C   0.57863452523168     -0.66143994261519     -0.05146484352141
  F   -1.74812319246492     -1.03801324610135      0.09308679521350
  H   0.74927677782656     -1.43664363082264      0.70763006657906
  N   -0.81613346002443      0.48638097994613      1.59548083346139
  H   -1.75438122830963      0.79420402880267      1.82422391637004
  H   -0.53574270015287     -0.22671994668826      2.25847544286826
  N   -1.12249922848056      0.98461123858717     -0.71378089597155
  H   -0.88855011395206      1.90115273167318     -0.35569592361708
  H   -2.11555054626626      0.94155263188376     -0.90240580274995
  C   1.69678844847896      0.36702372965820      0.01056109978997
  H   1.73891869532265      0.86268319656802      0.98080145800710
  H   2.64821762674213     -0.12773254110430     -0.18861771931483
  H   1.54453233901552      1.12637521166333     -0.76130280790937
  N   0.59569362518982     -1.31431707044332     -1.35110987816901
  H   0.33605821394659     -0.61622238612277     -2.04160795858937
  H   -0.12853759108466     -2.02290228822665     -1.37170237311208
