17
Coordinates from ORCA-job run
  C   -0.54236135781698      0.35795500538602      0.63296782958656
  C   0.60596268985161     -0.51675363163618      0.12719988010903
  F   -0.01966389787337      1.26646180967685      1.55358725762452
  H   0.88972985747422     -1.16144908132202      0.96554453496369
  N   -1.06096843558022      1.17405652571968     -0.46310052830172
  H   -1.99964212684514      0.88465778966983     -0.70020652218598
  H   -1.07705268017937      2.14488608366582     -0.17940513578684
  N   -1.48528450074413     -0.46942593617603      1.30807912741140
  H   -2.36584227595145      0.00853334298532      1.45049221114719
  H   -1.61985019215541     -1.31031464439264      0.75972797329371
  C   1.79957985534669      0.31423082292836     -0.31961094242995
  H   1.49686819453468      1.00392288609422     -1.11074338550263
  H   2.58262736564562     -0.34209546868060     -0.70901310331991
  H   2.21652049870135      0.89039827263666      0.50783513088475
  N   0.02611341307734     -1.36886054920882     -0.91399389641139
  H   -0.13249397235650     -0.78746776900706     -1.73120770935145
  H   0.68975756487107     -2.08773545833939     -1.17715272173097
