17
Coordinates from ORCA-job run
  C   -0.74303651594697      0.20167720001929      0.23907467755486
  C   0.63418796001239     -0.38472528892429     -0.07784119866551
  F   -1.47064257240318      0.29999114100988     -0.95478787941663
  H   1.12402132524471     -0.49109085579555      0.90439441018734
  N   -1.49774414395087     -0.72537722987517      1.05427692884379
  H   -1.27649809734763     -0.56359170343512      2.02880307587798
  H   -2.48705491851673     -0.56772959372403      0.90620025434852
  N   -0.62153900627854      1.48275195706833      0.86022075637855
  H   -1.54721050558782      1.83950948897247      1.06915840777732
  H   -0.16559172205895      2.13804545011436      0.23726807426576
  C   1.47430546753593      0.53441458644402     -0.95379126140871
  H   0.91488374789752      0.79627659707694     -1.85330061162950
  H   1.78498831173062      1.43924999457213     -0.42574966089679
  H   2.38339007476047      0.01514618408243     -1.26629340544151
  N   0.43982672083134     -1.65519259211132     -0.76665511616171
  H   1.30874577440922     -2.17560483294075     -0.74958568849678
  H   -0.25403190033149     -2.18575050255361     -0.25139176311699
