17
Coordinates from ORCA-job run
  C   -0.62835175805684      0.22463875087647      0.46222447464691
  C   0.67840580627975     -0.48593580053128      0.08452176358518
  F   -0.31657936332433      1.04955493221026      1.59548370545373
  H   0.99313750443525     -1.04079884784359      0.97801200074520
  N   -1.10033519081185      1.04226165383518     -0.60544753664586
  H   -0.56359191937942      1.89932881740396     -0.63392295801102
  H   -2.07622550509501      1.28143758493054     -0.48071851538442
  N   -1.62284722888044     -0.72496549969437      0.83032163466272
  H   -2.45790388995646     -0.24839744012639      1.15301882675208
  H   -1.27340651891995     -1.28067789175277      1.60197336201605
  C   1.77373783599556      0.50441886549319     -0.27873841853462
  H   1.91802366845890      1.24734615580623      0.50624780416443
  H   2.70673632680419     -0.03765845791537     -0.43566839974402
  H   1.53174734696330      1.01651544608094     -1.21468391028067
  N   0.50877337702386     -1.43900613047295     -1.00276924477683
  H   0.16064333152434     -0.92144108562697     -1.80413111119599
  H   -0.23096382306084     -2.08662105267307     -0.75472347745287
