17
Coordinates from ORCA-job run
  C   -0.70284357539215      0.35767304792732      0.52997841131247
  C   0.57611367746078     -0.41007747491638      0.17443889414565
  F   -0.34339056665003      1.27491907315597      1.53917500663622
  H   0.92210453274346     -0.85712309819309      1.11353392854739
  N   -1.22166797215949      1.01499264991582     -0.61795488913787
  H   -0.62959245598573      1.78724317238899     -0.89458806661305
  H   -2.14992678600868      1.35506119562544     -0.40082699015835
  N   -1.74978837140693     -0.45248996111748      1.09347178625270
  H   -1.49420321925501     -0.67299688239786      2.04848515876791
  H   -1.77065064428114     -1.31900093492218      0.56592451412253
  C   1.67563309854959      0.49420609309288     -0.37832432675379
  H   1.40043485520065      0.87681976423851     -1.36537018112025
  H   2.60378749706440     -0.07141193804855     -0.49564671160057
  H   1.87294119390045      1.33625984951856      0.28852832461745
  N   0.17761043862672     -1.50231384043436     -0.71141111646954
  H   0.96826495399791     -2.10686205156417     -0.89839896450853
  H   -0.13382665640480     -1.10489866426942     -1.59101477804035
