17
Coordinates from ORCA-job run
  C   -0.73936968690309      0.49168831753434      0.18810512318631
  C   0.39718064729781     -0.48042149354558     -0.16257933502156
  F   -0.56509250394212      1.58708685024995     -0.66582533592988
  H   0.23751213181934     -1.38202790076688      0.44388175224109
  N   -2.06270373597407      0.00484840075724     -0.10203398276814
  H   -2.31554002510300     -0.69304149088778      0.58657684375018
  H   -2.04092820694504     -0.44492649813970     -1.01177057476126
  N   -0.61488184741707      0.97159482245028      1.52801064260023
  H   -0.44272984774432      0.21450475048199      2.17618319370308
  H   -1.46997290289879      1.44983706943697      1.78631272743311
  C   1.77560826628197      0.10256554893093      0.13525179438840
  H   2.55395547547067     -0.60761366091434     -0.15836479017438
  H   1.91278970973699      1.02521220459308     -0.43217845960312
  H   1.90236758443254      0.34169363135046      1.19204963854961
  N   0.19982615622598     -0.86994961200283     -1.56015318210165
  H   0.44353099034719     -0.08123772300883     -2.14926869665683
  H   0.82644779531502     -1.62981321651930     -1.79519735883518
