17
Coordinates from ORCA-job run
  C   -0.52305680530588      0.32621696904400      0.64414860651343
  C   0.64837612806099     -0.43471613710293      0.02822803805083
  F   -0.06095114652563      0.93896811510441      1.80738867866083
  H   1.00888445994126     -1.09315362845990      0.83128514181068
  N   -0.96691233339004      1.34031147418910     -0.25420027252359
  H   -1.02082600001197      0.93456762994303     -1.18162656589210
  H   -1.86935698362210      1.70657535300551      0.02121923222070
  N   -1.52985297445976     -0.63485467955293      1.09493036159778
  H   -1.79611865650005     -0.41051167188991      2.04527817311357
  H   -2.34984753506368     -0.57652768232815      0.50618433336740
  C   1.77446388181890      0.47799554342725     -0.42328486861561
  H   1.46250761474683      1.08547296087630     -1.27327541680969
  H   2.06946360681816      1.14451290884476      0.38735063601718
  H   2.64655474949097     -0.11478454587691     -0.71580725425524
  N   0.10285046304079     -1.17624367473549     -1.11078659752752
  H   0.85922443046051     -1.57344582608355     -1.65500503444044
  H   -0.45540289949932     -1.94338310840458     -0.75302719128823
