17
Coordinates from ORCA-job run
  C   -0.72355564266462      0.15261880248952      0.19553714900502
  C   0.69689658551885     -0.41117557730395      0.05341625704108
  F   -1.28773762104431      0.19058129582047     -1.10141978618814
  H   1.05633477857897     -0.56584996351146      1.07743418613914
  N   -1.55337494768281     -0.77995053849207      0.92241663856947
  H   -1.45340890476701     -0.60603978777413      1.91479836790331
  H   -2.52169058514066     -0.64366251324669      0.65825679390239
  N   -0.72806937748025      1.45078409836038      0.78255710990784
  H   -0.21264631803149      2.10900172767845      0.21202138333543
  H   -1.68130511157501      1.78320843321525      0.87402619485654
  C   1.63711652579465      0.54742756745562     -0.66416683868350
  H   1.84647035062926      1.44110415898271     -0.07322210393387
  H   1.21537402313313      0.84853140671432     -1.62748717637198
  H   2.58188980342016      0.03606656370510     -0.85079653647362
  N   0.71311317239431     -1.70133741468464     -0.62121692351751
  H   0.01558919111055     -2.28857704619297     -0.17580007062543
  H   0.40000407780627     -1.56173121321589     -1.57635464486616
