17
Coordinates from ORCA-job run
  C   -0.60500262193488      0.44507172950413      0.62498419689409
  C   0.53809790716941     -0.42650908460711      0.08607358656028
  F   -0.09861727073893      1.17213494128357      1.69445722426500
  H   0.78277465201951     -1.12228858858968      0.89739609061195
  N   -1.02325561164644      1.37098775603547     -0.38246040685003
  H   -1.27740401000713      0.84284053350797     -1.20942631537116
  H   -1.85971285167763      1.83407135312586     -0.04372786626250
  N   -1.71749471923077     -0.30023591478335      1.17258818124298
  H   -2.01034622410456     -0.97061323570071      0.47017171410727
  H   -1.40933021404867     -0.81337910586326      1.99199389659855
  C   1.77458539535395      0.38601449457931     -0.27001467146357
  H   2.12193452949133      0.96331604352359      0.58697100033492
  H   1.54004270791349      1.09009626854663     -1.07109218064259
  H   2.58058942712913     -0.27630441497020     -0.59782292576658
  N   0.00050268451453     -1.19777020835056     -1.04702126368952
  H   0.28825855850708     -2.16520763195202     -0.98936121228334
  H   0.37537766129059     -0.83222493528964     -1.91470904828577
