17
Coordinates from ORCA-job run
  C   -0.78825751269044      0.08447603812378      0.38356076928206
  C   0.49490678219493     -0.57470352425422     -0.11580269336640
  F   -1.79212574723441     -0.95850310722574      0.24969464064729
  H   0.67666601305257     -1.42552040296518      0.56073415360053
  N   -0.69702016918578      0.44310082804380      1.75673204139821
  H   -0.80198159557350     -0.38342255589421      2.33103812068969
  H   -1.41801667765249      1.10903794014863      2.00283636090152
  N   -1.13610871358666      1.19090675517495     -0.42038478549453
  H   -1.00324901708285      0.92110064052444     -1.38891389146640
  H   -2.10564051852088      1.44376119692654     -0.27270569845468
  C   1.67649083384486      0.37655431769539     -0.05236213837486
  H   1.52171695598658      1.21129316668712     -0.73683872578081
  H   2.59726261894996     -0.14344539787426     -0.33405045495530
  H   1.79024585013106      0.76893316244740      0.95711724548303
  N   0.26287345650668     -0.99073769181591     -1.49898875125961
  H   1.12802671328840     -1.32185348043317     -1.90733760889144
  H   -0.40578927242801     -1.75097788530935     -1.51432858395829
