17
Coordinates from ORCA-job run
  C   -0.59053211019951      0.40859304143895      0.66137771797573
  C   0.57025178425988     -0.40449438842812      0.07218944467905
  F   -0.09837964629970      0.99746077891481      1.82404902864060
  H   0.88809146217827     -1.08807323450254      0.87435282800071
  N   -0.98116652689277      1.42743868979444     -0.24960129736698
  H   -1.89116910754478      1.78270154909682      0.01726128161045
  H   -1.02696956303384      1.02804076649692     -1.17942661281184
  N   -1.72256394321091     -0.37482835316822      1.10767842746086
  H   -1.43612153755667     -1.06318437263376      1.79483930518837
  H   -2.14272039869773     -0.84234976634845      0.31457404701938
  C   1.74697405428935      0.47596015033784     -0.31497074743394
  H   2.60782583241440     -0.14100382172028     -0.59009020044195
  H   2.03083158853563      1.11656497024317      0.51888130783828
  H   1.48405752249443      1.11481746083987     -1.15927787090525
  N   0.06415604960171     -1.11793350894100     -1.10722520462906
  H   -0.32822271333985     -2.01188253729051     -0.83907513347027
  H   0.82565725300210     -1.30882742412994     -1.74653632135415
