17
Coordinates from ORCA-job run
  C   -0.61427440021171      0.20617275463876      0.49897166898493
  C   0.71876916600649     -0.44935471603916      0.11482698490711
  F   -0.33863198169587      1.01868922061977      1.63607878558096
  H   1.05589417924506     -0.93729348493368      1.03588645731349
  N   -1.15186559951465      0.98113241956906     -0.56253969420112
  H   -1.99044730868354      1.45716417898324     -0.25027296505533
  H   -0.48624115319982      1.67879340888300     -0.86790545718439
  N   -1.56304209599770     -0.79577452048410      0.92022389460182
  H   -2.43021051438681     -0.71299881209765      0.40834983112903
  H   -1.73917414050549     -0.70153187910171      1.91061932875237
  C   1.77458344061097      0.55382316437711     -0.32469479316255
  H   2.73316115988490      0.04397599602897     -0.42621832230353
  H   1.87802983237263      1.36512069882232      0.39772685819952
  H   1.53430385807120      0.97828836718385     -1.30515556421435
  N   0.56497862463468     -1.48345909501731     -0.89648299088655
  H   -0.12691078236193     -2.14375247929851     -0.55859710875305
  H   0.17807771573158     -1.05999522213396     -1.73381691370837
