17
Coordinates from ORCA-job run
  C   -0.89675776631013      0.02375488405004      0.33563016381947
  C   0.44185400291710     -0.57914352699769     -0.10653794828279
  F   -1.81450387322683     -1.05859541264774      0.18285813001661
  H   0.60838951067753     -1.44252088947277      0.55894711833812
  N   -1.01939483136815      0.40631599132620      1.70934061126059
  H   -0.71505348500230     -0.33771431208686      2.32361945623477
  H   -0.48402731550425      1.24484627480347      1.88287412214090
  N   -1.23556033167694      1.12662368940961     -0.47272092032019
  H   -2.18905097857870      1.40888648237233     -0.28709320631129
  H   -1.10760811784731      0.88070641671541     -1.44638332037367
  C   1.59418481823193      0.39878527318930      0.04227258462966
  H   1.42730752947947      1.27224982015801     -0.58843416864079
  H   2.53508446244997     -0.07490419470303     -0.25261848479674
  H   1.70388754179566      0.72577256852016      1.07762860371062
  N   0.30799015956619     -0.96850739935515     -1.51081238428297
  H   1.19816261740975     -1.29529599097314     -1.86655368707788
  H   -0.35490394301296     -1.73125967430817     -1.58001667006443
