17
Coordinates from ORCA-job run
  C   -0.89714956347207     -0.19615021551116      0.35229949857047
  C   0.50889660442878     -0.59232071001277     -0.11516492760623
  F   -1.66994583609104     -1.34643865611003      0.15848875274783
  H   0.79492954480967     -1.45089901560377      0.50821517738370
  N   -0.92299050375428      0.06337661974987      1.76193859829362
  H   -0.34608426376306      0.86121977671764      1.99354217756810
  H   -1.88027674312944      0.27252750134204      2.02318310752936
  N   -1.53479858092968      0.82825307189843     -0.42849489100778
  H   -1.28333836669048      0.69996179676180     -1.40363940661460
  H   -1.22708151857353      1.74227370580206     -0.12617938733505
  C   1.52383308762622      0.52404542489188      0.06292529213502
  H   2.49759737379002      0.21489830083259     -0.32671813129181
  H   1.21446148836750      1.41481545789892     -0.48817084298824
  H   1.67038989767941      0.77485694934396      1.11555927840904
  N   0.40172775705546     -0.92239596173538     -1.53691922604128
  H   1.31937516324726     -1.13401873197393     -1.90944793694131
  H   -0.16954554060075     -1.75300531429214     -1.63941713281086
