17
Coordinates from ORCA-job run
  C   -0.76315884192351      0.25608092602934      0.22835667608233
  C   0.54247178576606     -0.45975235670901     -0.16832880161185
  F   -0.81990453011543      1.41016770714013     -0.59767603322949
  H   0.55056577579972     -1.40438632125551      0.38679236288084
  N   -1.98685998838826     -0.44473996134057     -0.05708950617957
  H   -2.06232101681573     -0.62962309496915     -1.04781875229914
  H   -2.00977778640671     -1.31586028014998      0.45721995215736
  N   -0.78591920192551      0.58322061454069      1.60420361889429
  H   -0.03110076919834      1.20803514117468      1.84932416781392
  H   -1.67351521800449      1.01992830086192      1.82078055842911
  C   1.78159949532683      0.34495406699272      0.20814585656676
  H   2.66224347959429     -0.15892054963981     -0.19051616260919
  H   1.73210030326443      1.34697701090636     -0.22530371463918
  H   1.90095240399002      0.43288232949871      1.28994630281756
  N   0.61275955363715     -0.78371999002581     -1.58992290937321
  H   0.44475379398189      0.05732426957085     -2.13027348919672
  H   -0.09388923858242     -1.46356781262555     -1.84084012650383
