17
Coordinates from ORCA-job run
  C   -0.74366223581720      0.34851233539279      0.17637386650710
  C   0.49196402415776     -0.52367967093430     -0.11471718936516
  F   -0.57830891229768      1.51134405973346     -0.61919128781065
  H   0.39218099929060     -1.40727559033888      0.52557846398826
  N   -1.93815287903738     -0.34049282497881     -0.15200406187362
  H   -2.72509301875094      0.25790718959990      0.06712411173495
  H   -1.95765676202096     -0.57327842204781     -1.13483578842391
  N   -0.89760656399970      0.84029301398802      1.51862721907462
  H   -0.96372620600503      0.06245601903509      2.16233587532349
  H   -0.11299707623729      1.42449510253189      1.77204992696232
  C   1.79110402180897      0.19747430098033      0.22157212077190
  H   2.62762651808607     -0.46303256171442     -0.00643942417670
  H   1.89163010347536      1.10225082218565     -0.38141035135811
  H   1.85057018486662      0.47523722858873      1.27577131753252
  N   0.56896367066329     -0.99856581178072     -1.49451065362516
  H   -0.14149118631712     -1.69320584364037     -1.68460354659024
  H   0.44565531813462     -0.21943934660056     -2.13072059867160
