17
Coordinates from ORCA-job run
  C   -0.91251711003562     -0.00420080526875      0.29097171451403
  C   0.45919911268189     -0.56648975932899     -0.10093695540855
  F   -1.79741342193847     -1.10044643965337      0.06427800014772
  H   0.61175090974690     -1.44390822835876      0.54952186100567
  N   -1.10950313384584      0.33679796076292      1.66726118642846
  H   -0.82143328956725     -0.41955724703258      2.27436057077481
  H   -0.59768307850583      1.17843132032698      1.89012015523396
  N   -1.23634637981369      1.11384535190486     -0.50255218410935
  H   -1.05675895477747      0.89812897925559     -1.47520912780596
  H   -2.20317263873839      1.37198958517942     -0.35471144395153
  C   1.58107910050190      0.43065186551054      0.13083454899886
  H   1.42157853577551      1.32185749504486     -0.47648772039374
  H   1.63860524374945      0.72306781262209      1.18074553042370
  H   2.54461380858906     -0.01187884779432     -0.13828407155355
  N   0.40265159807934     -0.91908986980459     -1.51961025952617
  H   -0.24122959108933     -1.69124235058498     -1.64284493285510
  H   1.31557928918784     -1.21895682278093     -1.83945687192326
