17
Coordinates from ORCA-job run
  C   -0.95901572306284     -0.07886289806438      0.24196375434394
  C   0.40556088287376     -0.72219756557269     -0.04307919682553
  F   -1.91007354667923     -1.07269848617910      0.12424770291453
  H   0.52872119832975     -1.49380005008975      0.72866163342701
  N   -1.14030033083937      0.44059620947804      1.58023249909450
  H   -0.93626364331859     -0.27732759198248      2.26669324232296
  H   -0.53282441991269      1.23145014831892      1.74667840437888
  N   -1.26843484912189      0.90022295508214     -0.76718509656393
  H   -2.21505545261356      1.22226829247865     -0.59764373719190
  H   -0.64835693464845      1.69727722788934     -0.69362687855478
  C   1.55055184635305      0.28574205494667      0.08886627980051
  H   2.50594474785189     -0.22910969665833     -0.04150719292487
  H   1.49023494346613      1.04927952705602     -0.69199297221124
  H   1.58124914201117      0.77279336795966      1.06741270247879
  N   0.35265806143094     -1.38413953062941     -1.34058077309747
  H   1.29029848260728     -1.58187240250399     -1.66823538997898
  H   -0.09589440472734     -0.75962156152932     -2.00090498141244
