17
Coordinates from ORCA-job run
  C   -0.88169812250376     -0.15760180683998      0.40031293545831
  C   0.48446919681691     -0.61227305566343     -0.12678333174010
  F   -1.69856631684123     -1.28799406869126      0.28438936150945
  H   0.77306186606918     -1.46551703235565      0.50253274804063
  N   -0.82471097178475      0.14179298748718      1.80213515306973
  H   -1.76573123775450      0.35958194820625      2.11132389196197
  H   -0.23744700597460      0.94717637892810      1.97518670538343
  N   -1.52575234567964      0.86402248979169     -0.37772057676839
  H   -1.19153135675475      1.77801895766888     -0.10565523081290
  H   -1.31539167639915      0.71086842118625     -1.35890901664668
  C   1.54240030559122      0.47311005609823     -0.02424278461139
  H   1.23505289249675      1.36234918373556     -0.57898805858485
  H   1.74808252456359      0.73952714866784      1.01453990353190
  H   2.48503600452980      0.12368142433682     -0.45431755698096
  N   0.29551289488844     -0.96991028085997     -1.53348846400678
  H   1.18545076706912     -1.22525190977601     -1.94403697539390
  H   -0.31023741833265     -1.78058084192050     -1.58727870340947
