17
Coordinates from ORCA-job run
  C   -0.89192097460424     -0.11045820629940      0.21488229156136
  C   0.52470768500359     -0.64352022421443     -0.06143669805010
  F   -1.74947956755389     -1.18825493836130      0.00791107084267
  H   0.70038751662120     -1.41136055628893      0.70292839239692
  N   -1.16794227362092      0.30888527713529      1.57147968662198
  H   -0.65149232249874      1.14929656208948      1.79436878253706
  H   -0.90601804590643     -0.41761955080244      2.22880332928855
  N   -1.25271311013244      0.88968460772787     -0.74746541388570
  H   -0.64090695027126      1.69279216281615     -0.67766905588222
  H   -2.20008352621619      1.19110139754012     -0.54771982781338
  C   1.59317318885745      0.43374304873540      0.07027969464255
  H   1.51949363923580      1.15784547231836     -0.74675241037774
  H   2.57655516561471     -0.03089631839684     -0.00429983485755
  H   1.53640919614088      0.96791951753522      1.02156540675228
  N   0.65888780699308     -1.28903016610268     -1.36137364342198
  H   0.01222534459855     -2.06866651172488     -1.39831864804566
  H   0.33971722773884     -0.63146157370698     -2.06618312230904
