17
Coordinates from ORCA-job run
  C   -0.67082577304924      0.38801352712201      0.58738215058854
  C   0.55604985990788     -0.39994044361405      0.10817670580467
  F   -0.28011683269882      1.13345502911490      1.69085006536876
  H   0.78141326997115     -1.10987813794597      0.91256571344390
  N   -1.08709760917484      1.30278206186738     -0.43383819844926
  H   -1.94814336385467      1.73601278846166     -0.11709765707333
  H   -1.30732936239040      0.76573223446483     -1.26499652859850
  N   -1.76296576989937     -0.43684171689881      1.05789172234083
  H   -1.47528775635362     -0.92288270559243      1.90100908200544
  H   -1.94816216777207     -1.13115213761460      0.34187321393486
  C   1.76651150519145      0.49010464975499     -0.13478636649050
  H   2.62635215841360     -0.11524908625584     -0.43489697160878
  H   1.54407264758010      1.21275574951936     -0.92263073759707
  H   2.02876474613750      1.04860003343184      0.76412076527904
  N   0.14006319918869     -1.16842597690036     -1.07624603966721
  H   0.56167324672792     -2.08766692652054     -1.06705930512221
  H   0.47602800207473     -0.70341894239436     -1.91231761415917
