17
Coordinates from ORCA-job run
  C   -0.58199482398715      0.36725373949126      0.62359735742409
  C   0.63735319835446     -0.42909145536242      0.11406940531405
  F   -0.14139934855297      1.00887666618329      1.78292467702543
  H   0.93324586385720     -1.04846515328025      0.96993155860225
  N   -0.99443813195557      1.35437176593526     -0.31250706107394
  H   -0.90831473759940      1.03845603940008     -1.26689364337513
  H   -1.94517315311498      1.64258718580169     -0.12181013075825
  N   -1.70484828024116     -0.42506747615809      1.07651663104717
  H   -2.12411629096160     -0.92638286789752      0.30524655038963
  H   -1.42048857103026     -1.08118511490994      1.79465946215008
  C   1.80133032897730      0.47963885609155     -0.25008756231426
  H   1.56711630533615      1.08055341471681     -1.13293823055862
  H   2.02391588734018      1.16470828491190      0.56665961963332
  H   2.68182660179969     -0.12670859991214     -0.46906847970196
  N   0.37194282218621     -1.33525873771035     -0.99628543906101
  H   -0.42619685276540     -1.93084853808543     -0.81972130758261
  H   0.22923918235731     -0.83443800921571     -1.86429340716027
