17
Coordinates from ORCA-job run
  C   -0.63830662334308      0.25319728198638      0.57700749488593
  C   0.63565755035414     -0.46308714198872      0.08969483401195
  F   -0.23461753760468      1.05241258256851      1.66720476486450
  H   0.97422409248786     -1.08097057952455      0.93254956891661
  N   -1.27886359751126      1.16118846111484     -0.33361355648179
  H   -1.55596137557476      0.67103411396780     -1.17318474935268
  H   -0.65736655611347      1.92315234520599     -0.56934682192383
  N   -1.60823133513724     -0.71023452636304      0.96268576695623
  H   -1.25493451141474     -1.28621980852763      1.71668599991404
  H   -2.44648799412440     -0.22959740601930      1.26619150911494
  C   1.74940083019190      0.50929702450397     -0.25888317376004
  H   2.64426411777386     -0.05025691162800     -0.53461097206375
  H   1.47056424075921      1.12935826878986     -1.11728784306053
  H   1.98077078049810      1.16438582392826      0.58020552706853
  N   0.39667093364807     -1.35375942230871     -1.03902988810884
  H   -0.45577826298223     -1.87828949055035     -0.88010722978302
  H   0.27799524809271     -0.81161061515529     -1.88716123119826
