17
Coordinates from ORCA-job run
  C   -0.91179772389856     -0.08411972019232      0.36003209636777
  C   0.43183920987064     -0.65026369412997     -0.11603303030498
  F   -1.82031961588003     -1.13232653761633      0.17768119369645
  H   0.61610870910225     -1.53463953816202      0.50971478598508
  N   -0.89406314834437      0.18247577683097      1.76845638730761
  H   -0.22100383378628      0.90363018952450      1.99177685654646
  H   -1.81592529156755      0.50963010690924      2.03577933480674
  N   -1.42666820671528      1.00736637011999     -0.42061141243267
  H   -1.00496312287518      1.87766817743143     -0.12682407390579
  H   -1.20331091617789      0.84472078019037     -1.39746372195779
  C   1.57660787897517      0.33481995338714      0.04854437408426
  H   1.37288498369832      1.25513560152313     -0.50322629517390
  H   2.50172914109032     -0.09155784448080     -0.34890710538851
  H   1.76267315602061      0.56907027080459      1.09875789956861
  N   0.27388029011394     -0.97089726978010     -1.53524732293426
  H   -0.39474154814445     -1.72648340649835     -1.62920118469043
  H   1.15607003851834     -1.29422921586148     -1.91322878157466
