15

C	0.0	0.0	0.0
C	-0.580367	0.130411	-1.402714
Br	1.948949	0.0	0.0
H	-1.67044	0.094889	-1.226035
H	-0.27793	-0.979072	0.393463
C	-0.496251	1.102506	0.914275
H	-0.102158	0.964191	1.923349
H	-0.181699	2.07464	0.534437
H	-1.588112	1.049549	0.934266
C	-0.217393	-1.027537	-2.241272
N	0.058145	-1.936933	-2.933152
N	-0.243261	1.407749	-2.017419
H	0.672123	1.358828	-2.447651
H	-0.927556	1.623395	-2.731137
Cl	-3.743919	0.0	0.0
