15

C	0.0	0.0	0.0
C	-0.563051	0.215968	-1.399817
Br	1.958602	0.0	0.0
H	-1.655702	0.177127	-1.240547
H	-0.283285	-1.000395	0.332441
C	-0.496475	1.047666	0.975893
H	-1.589383	1.021112	0.958786
H	-0.143541	0.82005	1.984216
H	-0.144215	2.036102	0.683185
C	-0.196211	-0.891133	-2.303401
N	0.081406	-1.741323	-3.066398
N	-0.208771	1.525745	-1.931864
H	0.731818	1.503457	-2.308556
H	-0.849945	1.765705	-2.677328
Cl	-3.724134	0.0	0.0
