15

C	0.0	0.0	0.0
C	-0.405801	0.155505	-1.494469
Br	1.957926	0.0	0.0
H	0.268395	-0.490928	-2.067517
H	-0.279091	-1.011658	0.303472
C	-0.599111	1.027068	0.930066
H	-0.281502	2.035624	0.65797
H	-0.307385	0.831741	1.963773
H	-1.690787	0.954315	0.858735
C	-0.117863	1.533882	-1.935062
N	0.109025	2.63385	-2.277154
N	-1.753524	-0.20376	-1.860512
H	-2.481985	0.21331	-1.275179
H	-1.876366	-1.203571	-1.754199
Cl	-4.309905	0.0	0.0
