15

C	0.0	0.0	0.0
C	-0.458295	0.347898	-1.43527
Br	1.953056	0.0	0.0
H	0.312911	0.000707	-2.128758
H	-0.271215	-1.047446	0.138631
C	-0.592982	0.859962	1.091032
H	-0.273141	1.899159	0.999431
H	-1.685539	0.807934	1.009278
H	-0.303493	0.483258	2.073685
C	-0.508024	1.822404	-1.610241
N	-0.548912	2.97896	-1.814177
N	-1.671178	-0.377226	-1.744765
H	-1.983124	-0.144745	-2.680947
H	-2.451785	-0.166034	-1.110276
Cl	-4.307296	0.0	0.0
