12
Coordinates from ORCA-job run
  C   0.00566061463309      0.23236467360170      0.31894847965996
  C   1.23813960447541     -0.55219951514962     -0.11787874069963
  Br  -0.04837827397166      0.26225434185216      2.28898479371187
  H   1.16859830593584     -1.57799374474417      0.24832879630701
  H   2.15002074725470     -0.09861722065170      0.27102167896900
  H   1.28716816703409     -0.56545092896985     -1.21045852479393
  C   0.10514723995150      1.62213594900471     -0.12335293817239
  N   0.18548372137977      2.72221848648743     -0.52900694153042
  C   -1.28869966259097     -0.39350815955670     -0.18956869982041
  H   -1.27828588073476     -0.40264498836994     -1.28322927099320
  H   -1.36754923746928     -1.41928945115282      0.17477573760351
  H   -2.15730534589773      0.17073055764879      0.15043562975863
