12
Coordinates from ORCA-job run
  C   -0.01839241391949      0.23345075030018      0.31783935642014
  C   1.26275132193106     -0.50360193031320     -0.05779805963146
  Br  -0.16446837891982      0.26760235736016      2.28312654044607
  H   1.21537062226820     -1.53068720528185      0.30831788564496
  H   1.36389735757623     -0.51681172434202     -1.14677959514329
  H   2.13711326141402     -0.01450381482178      0.37199029969650
  C   0.04779645463483      1.62459236071303     -0.12638451254484
  N   0.10431275740073      2.72564269008238     -0.53342991601831
  C   -1.26234350227330     -0.44435071203825     -0.24654711071552
  H   -1.19992643998044     -0.45835190781658     -1.33843511359428
  H   -1.31913995016358     -1.47063838511315      0.12047724299535
  H   -2.16697108996845      0.08765752127108      0.04862298244469
