12
Coordinates from ORCA-job run
  C   -0.00571375943770      0.24088745515451      0.31294520227587
  C   1.25035711587719     -0.53170074113830     -0.07581241004549
  Br  -0.10384144452687      0.32288406091852      2.27942725428417
  H   1.19071726868818     -1.54881181849479      0.31540359712246
  H   2.14478303868301     -0.05142641962354      0.32141762980645
  H   1.32447897362541     -0.57190929459819     -1.16626460216732
  C   0.07842095292606      1.61986168329022     -0.16531832956545
  N   0.14781194811720      2.70977094574200     -0.59949385033402
  C   -1.27672511743293     -0.42282034525001     -0.20645141874904
  H   -2.16276549856931      0.13417947959199      0.09873001476675
  H   -1.34514086433333     -1.43954766042854      0.18432478369934
  H   -1.24138261361691     -0.46136734516387     -1.29890787109371
