17

C	0.0	0.0	0.0
C	-0.370356	-0.434207	-1.433201
F	1.413142	0.0	0.0
H	0.342632	-1.22415	-1.696814
N	-0.528634	1.274985	0.281774
H	-0.114002	2.007149	-0.278627
H	-0.497056	1.505614	1.263436
C	-0.459317	-1.011772	1.025552
H	-1.547521	-1.019992	1.085716
H	-0.106852	-2.006853	0.752441
H	-0.029347	-0.741491	1.994908
C	-0.085217	0.69291	-2.356973
N	0.139115	1.571828	-3.104174
N	-1.706362	-0.972193	-1.482383
H	-2.410334	-0.381996	-1.028963
H	-2.005589	-1.130479	-2.434717
Br	-4.608094	0.0	0.0
