17

C	0.0	0.0	0.0
C	-0.163539	0.146565	-1.541132
F	1.427631	0.0	0.0
H	0.293648	1.129858	-1.748957
N	-0.49752	1.14323	0.646359
H	-0.82695	0.992042	1.585425
H	0.100149	1.949765	0.558224
C	-0.561152	-1.27284	0.559343
H	-1.654281	-1.203484	0.509611
H	-0.243203	-1.388886	1.599745
H	-0.212767	-2.119454	-0.029758
C	-1.493379	0.214594	-2.15273
N	-2.355976	0.317421	-2.943376
N	0.551468	-0.951001	-2.2096
H	0.395177	-0.8887	-3.208185
H	1.539858	-0.840222	-2.026917
Br	-4.240819	0.0	0.0
