17

C	0.0	0.0	0.0
C	-0.42201	-0.164701	-1.470404
F	1.409602	0.0	0.0
H	-1.519819	-0.183023	-1.448497
N	-0.460883	1.232323	0.548483
H	-0.441925	1.926467	-0.193207
H	-1.439702	1.101239	0.804692
C	-0.435881	-1.169791	0.850819
H	-0.150587	-0.960309	1.883574
H	-1.518776	-1.29502	0.790569
H	0.070208	-2.080019	0.522172
C	0.072987	-1.430611	-2.039376
N	0.477593	-2.410227	-2.547717
N	0.027168	0.999153	-2.233913
H	-0.42951	1.014038	-3.136745
H	1.027438	0.933623	-2.380236
Br	-3.831594	0.0	0.0
