17

C	0.0	0.0	0.0
C	-0.565015	-0.17644	-1.418882
F	1.413826	0.0	0.0
H	-1.552238	-0.6398	-1.27233
N	-0.454977	1.245325	0.495906
H	-0.260173	1.335535	1.483038
H	-0.025708	1.994343	-0.030886
C	-0.429552	-1.144511	0.890338
H	-1.518215	-1.13891	0.973893
H	0.026455	-1.025236	1.877411
H	-0.08629	-2.092752	0.469579
C	0.279883	-1.075948	-2.205682
N	0.945513	-1.786907	-2.861664
N	-0.705002	1.124509	-2.093753
H	-1.585157	1.493443	-1.738235
H	-0.838549	0.957272	-3.084973
Br	-3.945253	0.0	0.0
