17

C	0.0	0.0	0.0
C	-0.16211	0.144188	-1.541038
F	1.436569	0.0	0.0
H	0.295228	1.126857	-1.749355
N	-0.490039	1.146361	0.645929
H	0.126524	1.941007	0.584142
H	-0.850106	0.992396	1.573135
C	-0.558451	-1.272108	0.563263
H	-1.651903	-1.197392	0.543043
H	-0.211447	-1.399929	1.592591
H	-0.233079	-2.116071	-0.042574
C	-1.495299	0.210492	-2.146514
N	-2.359432	0.280455	-2.939537
N	0.548557	-0.955508	-2.209459
H	0.385158	-0.898202	-3.207085
H	1.537866	-0.844565	-2.032732
Br	-4.267397	0.0	0.0
