17

C	0.0	0.0	0.0
C	-0.187472	-0.014539	-1.548688
F	1.396905	0.0	0.0
H	0.319361	0.919864	-1.835749
N	-0.487804	1.241022	0.518543
H	-1.494369	1.244826	0.325094
H	-0.408532	1.214565	1.530649
C	-0.456997	-1.249703	0.710744
H	-0.107391	-1.210553	1.747639
H	-0.052604	-2.136446	0.222692
H	-1.548373	-1.277611	0.697848
C	-1.489667	0.044237	-2.22384
N	-2.279932	0.053068	-3.093925
N	0.490298	-1.207746	-2.087163
H	1.477004	-1.116377	-1.881767
H	0.373018	-1.218335	-3.093045
Br	-3.839605	0.0	0.0
