16

C	-0.519728	0.039063	-1.435841
C	0.0	0.0	0.0
Cl	-0.225352	-1.693515	-2.050036
H	1.08863	0.0	0.0
H	-0.399092	-0.854816	0.541795
N	-1.900618	0.372057	-1.461365
H	-2.445717	-0.264769	-0.893644
H	-2.256783	0.363152	-2.408503
C	0.293234	0.943049	-2.337041
H	-0.034745	0.832759	-3.37445
H	0.154631	1.975039	-2.014619
H	1.350272	0.687422	-2.254405
N	-0.484277	1.201293	0.730953
O	-1.32979	1.021259	1.611232
O	-0.032723	2.29574	0.408672
Br	3.536209	0.0	0.0
