16

C	-0.513593	0.045647	-1.435723
C	0.0	0.0	0.0
Cl	-0.258971	-1.649816	-2.153332
H	1.087138	0.0	0.0
H	-0.371758	0.893918	0.507631
N	-1.877685	0.446013	-1.509799
H	-2.203831	0.394718	-2.466945
H	-2.446578	-0.154725	-0.925153
C	0.380088	0.973374	-2.236321
H	1.422387	0.662629	-2.154178
H	0.073103	0.975765	-3.285218
H	0.27883	1.985539	-1.835166
N	-0.54886	-1.149376	0.763944
O	0.227986	-1.929873	1.299964
O	-1.783453	-1.233722	0.82297
Br	3.593931	0.0	0.0
