16

C	-0.345923	-0.04131	-1.483395
C	0.0	0.0	0.0
Cl	-2.150769	0.080217	-1.665145
H	1.090779	0.0	0.0
H	-0.382982	0.912388	0.450196
N	0.233886	1.126131	-2.121513
H	-0.032227	1.962661	-1.607784
H	1.246308	1.034936	-2.033238
C	0.142534	-1.272181	-2.213427
H	1.214912	-1.371915	-2.027136
H	-0.357121	-2.173033	-1.866683
H	-0.036974	-1.12567	-3.278627
N	-0.516856	-1.106975	0.833368
O	-0.295464	-2.262725	0.48117
O	-1.123347	-0.799692	1.859568
Br	3.470226	0.0	0.0
