16

C	-0.433046	-0.055602	-1.466828
C	0.0	0.0	0.0
Cl	-0.256661	1.660398	-2.179336
H	1.088878	0.0	0.0
H	-0.371834	-0.900459	0.491773
N	0.449172	-0.982294	-2.070802
H	1.423116	-0.770679	-1.854667
H	0.316026	-1.027074	-3.072306
C	-1.881033	-0.437951	-1.700476
H	-2.092214	-0.461289	-2.772497
H	-2.5533	0.27113	-1.222348
H	-2.047207	-1.434021	-1.283289
N	-0.575352	1.142038	0.742143
O	-1.776133	1.058783	1.028227
O	0.148441	2.088839	1.028158
Br	3.542267	0.0	0.0
