14

C	-0.490951	-0.106076	-1.46805
C	0.0	0.0	0.0
Br	0.105129	1.449851	-2.498583
H	1.094505	0.0	0.0
C	0.040644	-1.316767	-2.091472
N	0.427582	-2.3063	-2.593818
C	-1.954104	-0.146836	-1.503867
N	-3.129436	-0.177991	-1.492081
N	-0.437048	-1.19939	0.691309
H	-1.235554	-1.036511	1.28915
H	0.335993	-1.564286	1.233845
C	-0.497081	1.236913	0.606631
N	-0.925814	2.179954	1.162761
Br	3.349948	0.0	0.0
