14

C	-0.48496	-0.03798	-1.472106
C	0.0	0.0	0.0
Br	0.10438	1.571248	-2.420615
H	1.09448	0.0	0.0
C	0.056879	-1.212132	-2.153863
N	0.447536	-2.174506	-2.703156
C	-1.947885	-0.089613	-1.511922
N	-3.122701	-0.133943	-1.49032
N	-0.436012	-1.230335	0.632586
H	0.31044	-1.58347	1.220026
H	-1.280838	-1.109503	1.176247
C	-0.498541	1.209946	0.660454
N	-0.928355	2.126935	1.257809
Br	3.365289	0.0	0.0
