14

C	-0.44302	-0.019737	-1.477526
C	0.0	0.0	0.0
Br	-2.425454	-0.082602	-1.580109
H	1.098667	0.0	0.0
C	-0.018894	1.179184	-2.197849
N	0.300897	2.140261	-2.794863
C	0.048439	-1.226006	-2.13975
N	0.396585	-2.193395	-2.708838
N	-0.412039	-1.226661	0.64974
H	0.348619	-1.549586	1.234829
H	-1.247894	-1.106086	1.205819
C	-0.475672	1.223455	0.64997
N	-0.856732	2.176433	1.223493
Br	3.321562	0.0	0.0
