14

C	-0.503889	0.056621	-1.471214
C	0.0	0.0	0.0
Br	0.326865	-1.385352	-2.497569
H	1.096757	0.0	0.0
C	-1.952849	-0.143902	-1.502723
N	-3.11906	-0.284361	-1.497926
C	-0.171755	1.326146	-2.113514
N	0.077879	2.343165	-2.646305
N	-0.436161	-1.239196	0.610244
H	-1.219385	-1.10679	1.233175
H	0.344354	-1.638754	1.117084
C	-0.489893	1.193382	0.699212
N	-0.925672	2.104001	1.301281
Br	3.351052	0.0	0.0
