14

C	-0.490791	-0.08279	-1.468363
C	0.0	0.0	0.0
Br	0.101332	1.491064	-2.474744
H	1.094517	0.0	0.0
C	0.043635	-1.281393	-2.112934
N	0.434775	-2.260922	-2.631322
C	-1.954109	-0.126171	-1.50512
N	-3.129392	-0.161252	-1.494073
N	-0.437388	-1.208228	0.673998
H	-1.248075	-1.056412	1.258919
H	0.329094	-1.573871	1.226022
C	-0.495552	1.229129	0.62574
N	-0.92456	2.162145	1.19834
Br	3.349549	0.0	0.0
