14

C	-0.444907	-0.039291	-1.476579
C	0.0	0.0	0.0
Br	-2.427795	-0.120568	-1.572925
H	1.096723	0.0	0.0
C	-0.0385	1.156584	-2.209778
N	0.268329	2.11424	-2.818347
C	0.057126	-1.246735	-2.127964
N	0.442543	-2.225121	-2.652577
N	-0.409145	-1.217209	0.667984
H	-1.251464	-1.093896	1.213294
H	0.349771	-1.527087	1.262419
C	-0.47781	1.231696	0.634365
N	-0.86952	2.184321	1.201379
Br	3.319988	0.0	0.0
