17

C	0.0	0.0	0.0
C	-0.443803	0.22703	-1.442463
Br	1.942413	0.0	0.0
H	-1.527246	0.379344	-1.381316
H	0.018009	1.163839	-1.777212
C	-0.481829	1.122034	0.896485
H	-0.168056	2.097692	0.519653
H	-0.123072	0.959755	1.913238
H	-1.584096	1.054884	0.881234
N	-0.618936	-1.229848	0.553432
O	-1.791571	-1.426119	-0.004346
O	-0.336643	-1.524784	1.74283
C	-0.126454	-0.899813	-2.415226
H	0.94897	-1.081738	-2.489647
H	-0.623868	-1.811356	-2.087019
H	-0.496121	-0.643169	-3.413919
H	-2.935179	0.0	0.0
