17

C	0.0	0.0	0.0
C	-0.413117	-0.102373	-1.479867
Br	1.956467	0.0	0.0
H	0.213746	-0.868038	-1.937952
H	-1.424558	-0.470697	-1.495081
C	-0.400185	1.205601	0.829401
H	0.077225	1.149687	1.810596
H	-1.48956	1.175891	0.901172
H	-0.065476	2.11412	0.30675
N	-0.385964	-1.29859	0.674332
O	-0.466951	-1.278955	1.901008
O	-0.445013	-2.309332	-0.021851
C	-0.329593	1.189989	-2.271838
H	-1.216173	1.79292	-2.081345
H	-0.331404	0.96387	-3.342778
H	0.574017	1.770241	-2.062525
H	-2.771786	0.0	0.0
