17

C	0.0	0.0	0.0
C	-0.587557	-0.026459	-1.388137
Br	1.956028	0.0	0.0
H	-0.161973	-0.858196	-1.95083
H	-1.664712	-0.221753	-1.186042
C	-0.549667	1.105155	0.855651
H	-0.185758	1.033699	1.878996
H	-1.648723	0.971189	0.81209
H	-0.268049	2.071756	0.434652
N	-0.309842	-1.350458	0.677536
O	-0.384953	-2.337393	-0.044925
O	-0.396566	-1.363857	1.89989
C	-0.451337	1.291398	-2.13741
H	-0.74802	1.148512	-3.179718
H	-1.119152	2.04249	-1.712345
H	0.572947	1.675895	-2.129192
H	-3.28173	0.0	0.0
