17

C	0.0	0.0	0.0
C	-0.471697	0.035175	-1.466849
Br	1.941988	0.0	0.0
H	-1.571777	0.172843	-1.455877
H	-0.058039	0.91178	-1.991274
C	-0.498478	1.199195	0.830755
H	-0.122067	2.110376	0.360969
H	-1.587451	1.278243	0.910416
H	-0.08426	1.123506	1.839468
N	-0.482548	-1.23921	0.717444
O	0.277465	-2.255248	0.862946
O	-1.795263	-1.306157	0.771109
C	-0.234388	-1.263694	-2.226818
H	-0.606732	-1.158875	-3.250731
H	-0.748912	-2.108752	-1.760256
H	0.83119	-1.48714	-2.261466
H	-1.553804	0.0	0.0
