17

C	-0.57441	0.074535	-1.412717
C	0.0	0.0	0.0
F	-1.930923	-0.105057	-1.348091
H	1.093305	0.0	0.0
C	-0.248553	1.384023	-2.089477
H	0.825778	1.567736	-2.033905
H	-0.564932	1.332246	-3.133666
H	-0.793474	2.187729	-1.592826
N	-0.02908	-1.037209	-2.30985
O	-0.832617	-1.838511	-2.767859
O	1.167093	-0.968123	-2.547368
N	-0.413348	-1.276609	0.676937
O	-0.8641	-1.211301	1.815916
O	-0.218019	-2.301736	0.033169
C	-0.489037	1.139186	0.765308
N	-0.860964	2.101638	1.326945
Br	3.304153	0.0	0.0
