17

C	-0.376812	0.012332	-1.486598
C	0.0	0.0	0.0
F	0.027973	1.223307	-1.954511
H	1.093563	0.0	0.0
C	0.223979	-1.073443	-2.336493
H	-0.200338	-2.043849	-2.095896
H	1.299147	-1.08535	-2.144443
H	0.031138	-0.819201	-3.381923
N	-1.895455	-0.0106	-1.638309
O	-2.466388	-0.907871	-1.024239
O	-2.418335	0.817254	-2.372023
N	-0.397106	-1.252184	0.729129
O	0.021198	-2.30327	0.261949
O	-1.049954	-1.133902	1.760094
C	-0.542724	1.170275	0.669914
N	-0.965335	2.142736	1.175028
Br	3.304752	0.0	0.0
