17

C	-0.543191	0.169618	-1.415702
C	0.0	0.0	0.0
F	-1.902736	0.306425	-1.365516
H	1.093345	0.0	0.0
C	0.093901	1.356338	-2.094453
H	-0.20456	2.269653	-1.578559
H	-0.24973	1.403277	-3.130349
H	1.179513	1.250757	-2.055257
N	-0.262725	-1.050446	-2.290457
O	0.917877	-1.312138	-2.456634
O	-1.224895	-1.608295	-2.798316
N	-0.451557	-1.265653	0.674293
O	-0.521689	-2.269737	-0.026804
O	-0.658079	-1.214542	1.881599
C	-0.443392	1.141061	0.79342
N	-0.792663	2.100128	1.374485
Br	3.303886	0.0	0.0
