17

C	-0.467074	0.315711	-1.428035
C	0.0	0.0	0.0
F	-1.772315	0.697122	-1.448145
H	1.091236	0.0	0.0
C	0.414026	1.358421	-2.063718
H	0.113562	1.497662	-3.104296
H	0.284929	2.299496	-1.526836
H	1.45854	1.049649	-1.991786
N	-0.373403	-0.958361	-2.265065
O	0.717979	-1.511604	-2.256137
O	-1.367844	-1.290245	-2.903213
N	-0.557976	-1.318647	0.461535
O	0.218245	-2.263451	0.548277
O	-1.769428	-1.346362	0.682794
C	-0.478739	1.044766	0.895218
N	-0.830553	1.902897	1.61591
Br	3.402751	0.0	0.0
