12

C	0.0	0.0	0.0
C	-0.220036	-0.008853	-1.5392
Br	2.026512	0.0	0.0
H	0.569662	0.585411	-1.999577
H	-0.246241	0.966555	0.433251
H	-0.056996	-1.038278	-1.879589
N	-0.567719	-1.050019	0.73357
H	-0.914193	-1.776134	0.12249
H	-1.384852	-0.69519	1.22313
C	-1.446582	0.497081	-2.173082
N	-2.16245	0.962039	-2.98215
Br	-3.709086	0.0	0.0
