12

C	0.0	0.0	0.0
C	-0.47516	0.145497	-1.453414
Br	1.956346	0.0	0.0
H	-0.14745	-0.726991	-2.028138
H	-0.293513	0.885041	0.565085
H	-1.574427	0.147856	-1.409519
N	-0.502628	-1.156952	0.673733
H	-0.373937	-1.974098	0.085794
H	-1.51157	-1.005981	0.775642
C	-0.006883	1.356406	-2.117977
N	0.356172	2.333667	-2.658344
Br	-3.70422	0.0	0.0
