12

C	0.0	0.0	0.0
C	-0.206999	0.057256	-1.551039
Br	1.961597	0.0	0.0
H	0.203651	-0.879684	-1.945137
H	-0.317912	0.930246	0.468353
H	0.43887	0.849597	-1.938068
N	-0.540281	-1.097479	0.711426
H	-1.546004	-0.908316	0.807079
H	-0.43804	-1.948438	0.169302
C	-1.490964	0.264836	-2.234004
N	-2.257314	0.452414	-3.106601
Br	-3.654833	0.0	0.0
