12

C	0.0	0.0	0.0
C	-0.485443	-0.175859	-1.435854
Br	1.949246	0.0	0.0
H	-0.117964	-1.135767	-1.808379
H	-0.274268	0.994561	0.365754
H	-1.583712	-0.201027	-1.395327
N	-0.49138	-1.103444	0.778296
H	-0.251496	-0.958064	1.752976
H	-1.514138	-1.057322	0.705912
C	-0.057922	0.895616	-2.327811
N	0.280566	1.7528	-3.05491
Br	-3.702156	0.0	0.0
