12

C	0.0	0.0	0.0
C	-0.496248	0.537791	-1.338583
Br	2.010373	0.0	0.0
H	-0.194545	-0.146161	-2.139767
H	-0.273148	0.675539	0.806908
H	-1.597364	0.53386	-1.257518
N	-0.522361	-1.268081	0.2391
H	-0.210591	-1.996155	-0.382158
H	-0.572709	-1.553043	1.199707
C	-0.006722	1.877383	-1.639604
N	0.369227	2.962475	-1.880334
Br	-3.870455	0.0	0.0
