12

C	0.0	0.0	0.0
C	-0.471506	0.21163	-1.447529
Br	1.956686	0.0	0.0
H	-1.570392	0.216749	-1.4041
H	-0.296148	0.858224	0.603224
H	-0.146775	-0.636255	-2.059211
N	-0.505141	-1.185593	0.618048
H	-1.513422	-1.036981	0.730569
H	-0.379919	-1.974173	-0.008345
C	0.002642	1.448574	-2.057581
N	0.370545	2.447963	-2.552121
Br	-3.701837	0.0	0.0
