18

C	0.0	0.0	0.0
C	-0.259393	0.033467	-1.577904
Br	1.94401	0.0	0.0
H	0.500059	0.694862	-1.981976
N	-0.55849	1.230505	0.580437
O	-0.550117	2.243176	-0.163864
O	-0.61439	1.298153	1.826024
C	-0.288774	-1.225056	0.873594
H	-1.36039	-1.356591	0.992635
H	0.18115	-1.062693	1.844216
H	0.14008	-2.113141	0.415031
N	-1.508357	0.395999	-2.181046
H	-2.233303	0.00861	-1.567173
H	-1.571739	1.398267	-2.047133
N	0.074576	-1.323123	-2.149832
O	-0.694676	-2.24503	-1.882703
O	1.045195	-1.41606	-2.898708
H	-2.194077	0.0	0.0
