18

C	0.0	0.0	0.0
C	-0.719528	0.11101	-1.327452
Br	1.932572	0.0	0.0
H	-1.814372	0.220955	-0.977221
N	-0.381129	1.21992	0.869015
O	-0.134202	1.141839	2.067736
O	-0.900008	2.177268	0.311672
C	-0.512716	-1.220215	0.730141
H	-1.612773	-1.122209	0.734158
H	-0.212128	-2.12715	0.206359
H	-0.117864	-1.237978	1.744353
N	-0.609717	-1.038153	-2.172888
H	-1.390947	-1.658438	-2.001612
H	0.268831	-1.52539	-2.048923
N	-0.38821	1.313096	-2.162188
O	-1.216852	1.590931	-3.023979
O	0.665921	1.923565	-1.981018
H	-3.115743	0.0	0.0
