18

C	0.0	0.0	0.0
C	-0.287471	-0.111107	-1.527169
Br	1.93803	0.0	0.0
H	0.396839	-0.884607	-1.89281
N	-0.671888	1.119725	0.695461
O	-0.7079	2.246375	0.12241
O	-0.683502	1.026455	1.946407
C	-0.267978	-1.305061	0.772255
H	0.226562	-1.230588	1.739033
H	0.140703	-2.145099	0.210072
H	-1.335635	-1.458581	0.920447
N	-0.113864	1.09556	-2.241025
H	-0.50951	1.008062	-3.166509
H	-0.558591	1.846196	-1.723469
N	-1.640714	-0.810833	-1.870589
O	-2.449908	-0.20159	-2.569699
O	-1.705894	-2.018097	-1.626018
H	-2.005339	0.0	0.0
