19

C	-0.009158	-0.021968	0.02285
C	-0.572453	0.131293	-1.420492
Cl	1.737213	0.544564	-0.024054
H	0.245381	-0.166964	-2.092225
C	-0.756743	0.81702	1.039103
H	-1.836342	0.711629	0.859599
H	-0.519805	1.869583	0.88587
H	-0.476182	0.529465	2.057884
C	0.051921	-1.48102	0.449159
H	-0.960852	-1.846771	0.631155
H	0.527978	-2.1005	-0.317351
H	0.624378	-1.578799	1.37445
N	-0.897036	1.530808	-1.64864
H	-1.820473	1.639881	-1.194576
H	-1.082058	1.61081	-2.644055
N	-1.739408	-0.695692	-1.710162
H	-2.528596	-0.261735	-1.192043
H	-1.600172	-1.656883	-1.424114
F	-3.312823	0.987184	-0.358371
