19

C	-0.015471	0.007851	0.017446
C	-0.548589	-0.506857	-1.367995
Cl	1.8303	-0.027739	-0.061204
H	0.321375	-0.734628	-1.990763
C	-0.411179	1.442552	0.319367
H	0.03607	1.753301	1.268514
H	-1.50115	1.443963	0.3974
H	-0.099835	2.117613	-0.475345
C	-0.418539	-0.875825	1.184878
H	0.027566	-0.489939	2.106594
H	-1.508608	-0.821735	1.241243
H	-0.110179	-1.907598	1.028123
N	-1.299817	0.560238	-2.036561
H	-1.53552	0.207185	-2.96012
H	-2.177323	0.589372	-1.490359
N	-1.292096	-1.756345	-1.177839
H	-2.16965	-1.427687	-0.741242
H	-1.530183	-2.09053	-2.107799
F	-3.09016	-0.036274	-0.089077
