19

C	-0.018	-0.000115	0.019494
C	-0.554583	0.116453	-1.452568
Cl	1.827645	-0.005032	-0.07194
H	0.313834	0.177943	-2.114863
C	-0.407521	1.176741	0.896647
H	-1.49706	1.14693	0.974158
H	0.044603	1.060666	1.886378
H	-0.097338	2.122311	0.456297
C	-0.422946	-1.290952	0.709436
H	0.023552	-1.327325	1.707844
H	-1.513084	-1.263669	0.782996
H	-0.115534	-2.16235	0.134629
N	-1.312299	1.362232	-1.606659
H	-1.551051	1.43042	-2.592292
H	-2.187418	1.155261	-1.096274
N	-1.292107	-1.100363	-1.806832
H	-2.170021	-0.990763	-1.272238
H	-1.530711	-1.012862	-2.791006
F	-3.090732	-0.007067	-0.088284
