19

C	-0.008443	0.010183	0.011716
C	-0.518449	-0.223235	-1.47134
Cl	1.840502	0.022065	-0.044508
H	0.373472	-0.32284	-2.098181
C	-0.437107	1.339294	0.607295
H	0.00493	1.46006	1.601328
H	-1.526875	1.29223	0.68128
H	-0.145216	2.170086	-0.031872
C	-0.409276	-1.105168	0.95994
H	-0.009795	-0.904089	1.957895
H	-1.502861	-1.092068	0.978748
H	-0.036153	-2.079674	0.637762
N	-1.26224	0.950382	-1.913101
H	-1.543417	0.731942	-2.864819
H	-2.122693	0.89016	-1.347662
N	-1.342174	-1.412645	-1.678309
H	-2.176572	-1.2273	-1.10002
H	-0.868851	-2.237606	-1.326176
F	-3.043738	-0.060213	-0.055814
