19

C	-0.028327	0.003784	-0.036526
C	-0.293417	-0.14665	-1.550695
Cl	1.818888	0.064625	0.140224
H	0.330058	-0.998856	-1.87585
C	-0.60556	1.273061	0.54914
H	-0.279623	2.145384	-0.015252
H	-1.697284	1.148319	0.503708
H	-0.301187	1.370222	1.595943
C	-0.533189	-1.210304	0.716306
H	-0.197418	-2.140317	0.244682
H	-0.17189	-1.194244	1.748285
H	-1.628535	-1.125272	0.707276
N	0.076626	1.085987	-2.251579
H	-0.324691	1.002062	-3.17714
H	1.085411	1.151059	-2.32578
N	-1.674467	-0.445579	-1.874997
H	-2.336396	-0.119374	-1.127338
H	-1.780542	-1.45287	-1.867988
F	-3.242084	-0.015394	0.221079
