14

C	0.0	0.0	0.0
C	-0.539869	-0.051745	-1.447761
Br	1.956468	0.0	0.0
H	-1.649145	-0.077331	-1.304647
N	-0.49954	1.194692	0.604111
H	-1.527045	1.108398	0.570778
H	-0.212207	1.230408	1.576514
C	-0.347667	-1.257041	0.696663
N	-0.557012	-2.228489	1.325693
C	-0.11944	-1.251024	-2.166856
N	0.192477	-2.215981	-2.75862
C	-0.17925	1.155697	-2.189036
N	0.074381	2.111025	-2.823581
Cl	-3.41703	0.0	0.0
