14

C	0.0	0.0	0.0
C	-0.521742	-0.113529	-1.469463
Br	1.953872	0.0	0.0
H	-1.628622	-0.158433	-1.318822
N	-0.479002	1.143346	0.705677
H	-1.502831	1.046805	0.740051
H	-0.238568	1.986881	0.193919
C	-0.380379	-1.229705	0.711833
N	-0.585031	-2.24328	1.270368
C	-0.058661	-1.307398	-2.167683
N	0.29592	-2.273918	-2.734866
C	-0.188319	1.095106	-2.216262
N	0.067159	2.086844	-2.792296
Cl	-3.383325	0.0	0.0
