14

C	0.0	0.0	0.0
C	-0.331889	0.074395	-1.573281
Br	1.976488	0.0	0.0
H	0.555709	-0.303915	-2.092014
N	-0.482545	1.00535	0.863385
H	-0.266896	1.921833	0.482727
H	-1.509018	0.878964	0.879578
C	-0.367069	-1.339149	0.478269
N	-0.527252	-2.449319	0.830311
C	-0.474972	1.479073	-1.950955
N	-0.500753	2.617679	-2.238242
C	-1.423379	-0.753587	-2.106888
N	-2.013004	-1.480078	-2.822212
Cl	-3.229697	0.0	0.0
