14

C	0.0	0.0	0.0
C	-0.435398	-0.056604	-1.545392
Br	1.945264	0.0	0.0
H	0.480288	-0.213853	-2.128272
N	-0.439246	1.102144	0.788391
H	-1.464144	1.01052	0.825546
H	-0.20376	1.973391	0.322856
C	-0.378019	-1.265175	0.642872
N	-0.544808	-2.321565	1.130958
C	-0.959296	1.242375	-1.960737
N	-1.216175	2.32378	-2.337538
C	-1.302016	-1.178188	-1.915323
N	-1.737957	-2.167656	-2.376376
Cl	-3.193292	0.0	0.0
