14

C	0.0	0.0	0.0
C	-0.541471	-0.155983	-1.438808
Br	1.956732	0.0	0.0
H	-1.649715	-0.157092	-1.290625
N	-0.489662	1.240057	0.516088
H	-0.200989	1.345693	1.48274
H	-1.516854	1.165611	0.490865
C	-0.349215	-1.202849	0.784187
N	-0.566948	-2.135828	1.466915
C	-0.13271	-1.4136	-2.05847
N	0.182869	-2.423052	-2.569545
C	-0.155768	0.97928	-2.274125
N	0.144169	1.862572	-2.987431
Cl	-3.411915	0.0	0.0
