15

C	-0.474286	0.009939	-1.416872
C	0.0	0.0	0.0
F	-0.056465	1.03786	-2.131471
H	1.089049	0.0	0.0
H	-0.346321	-0.893951	0.510914
N	-0.003252	-1.27395	-2.116919
O	0.396952	-1.150458	-3.262988
O	-0.118618	-2.305723	-1.470336
N	-1.999874	-0.074538	-1.54107
O	-2.509179	0.513017	-2.482673
O	-2.562867	-0.767116	-0.703719
N	-0.522595	1.167406	0.748084
O	-1.292011	1.935415	0.17026
O	-0.151978	1.272821	1.90829
Br	3.37265	0.0	0.0
