15

C	-0.504086	0.006065	-1.416014
C	0.0	0.0	0.0
F	0.04414	1.036362	-2.068714
H	1.091493	0.0	0.0
H	-0.358802	0.897744	0.501846
N	-0.18978	-1.251667	-2.227496
O	-1.133254	-1.96493	-2.544747
O	0.988932	-1.38823	-2.503546
N	-2.017066	0.171389	-1.509574
O	-2.66944	-0.263543	-0.56828
O	-2.443743	0.713397	-2.519881
N	-0.449988	-1.163852	0.792181
O	-0.410576	-2.262496	0.243881
O	-0.771917	-0.953538	1.956719
Br	3.380883	0.0	0.0
