15

C	-0.450526	0.083028	-1.430108
C	0.0	0.0	0.0
F	-0.006984	1.231194	-1.95536
H	1.093971	0.0	0.0
H	-0.366393	0.89552	0.505926
N	0.055465	-1.062104	-2.28091
O	0.126071	-2.147247	-1.718235
O	0.30997	-0.800452	-3.447762
N	-1.970833	0.112821	-1.614215
O	-2.495074	-0.762337	-2.288049
O	-2.512945	1.071286	-1.082679
N	-0.562238	-1.161446	0.736607
O	-1.75011	-1.422773	0.530094
O	0.163078	-1.728961	1.53959
Br	3.405036	0.0	0.0
