15

C	-0.463784	0.013057	-1.427209
C	0.0	0.0	0.0
F	-0.175926	-1.174815	-1.981388
H	1.086839	0.0	0.0
H	-0.353111	-0.924462	0.458353
N	-1.975443	0.179081	-1.594721
O	-2.392495	1.053179	-2.338806
O	-2.630049	-0.651997	-0.979971
N	0.186109	1.094475	-2.265653
O	0.45715	2.133114	-1.680717
O	0.343251	0.832002	-3.449545
N	-0.520908	1.110807	0.834015
O	-1.45311	1.787045	0.398224
O	-0.004863	1.234989	1.936979
Br	3.370897	0.0	0.0
