18

C	0.0	0.0	0.0
C	-0.193938	0.104634	-1.552147
F	1.371419	0.0	0.0
H	0.33801	-0.755956	-1.950627
C	-0.626234	1.046558	0.84466
H	-1.715343	0.917286	0.795025
H	-0.289975	0.954295	1.876144
H	-0.357808	2.030183	0.456273
N	-0.324099	-1.405343	0.508866
O	-0.112052	-2.331095	-0.269755
O	-0.6454	-1.518945	1.685574
N	0.364376	1.32987	-2.082163
H	1.211353	1.565032	-1.587205
H	-0.317852	2.069586	-1.974528
N	-1.57417	-0.013673	-2.138332
O	-2.1723	1.028945	-2.373742
O	-1.948967	-1.147616	-2.406546
Br	-4.072565	0.0	0.0
