12

C	0.0	0.0	0.0
C	-0.533325	0.063456	-1.414902
Cl	1.782365	0.0	0.0
H	-1.635695	0.065439	-1.341309
H	-0.349056	0.865307	0.561853
H	-0.164208	-0.749351	-2.036806
C	-0.418728	-1.237262	0.659491
N	-0.626358	-2.236731	1.239471
N	-0.123104	1.328562	-2.072962
O	-0.070252	2.343888	-1.382375
O	0.090358	1.28431	-3.283507
Br	-3.576596	0.0	0.0
