12

C	0.0	0.0	0.0
C	-0.540262	-0.123778	-1.410342
Cl	1.769905	0.0	0.0
H	-1.637059	-0.212701	-1.332907
H	-0.35135	0.958688	0.385183
H	-0.263589	0.745116	-2.004206
C	-0.429894	-1.045313	0.934648
N	-0.623225	-1.851494	1.765897
N	-0.017928	-1.306063	-2.138416
O	0.132713	-2.350699	-1.510703
O	0.18674	-1.166031	-3.34478
Br	-3.578629	0.0	0.0
