14

C	-0.452766	0.044859	-1.477732
C	0.0	0.0	0.0
Cl	0.409719	1.369827	-2.317486
H	1.094468	0.0	0.0
C	-0.146432	-1.212775	-2.165021
N	0.06207	-2.212772	-2.744084
C	-1.891962	0.30932	-1.574891
N	-3.048094	0.524046	-1.599397
C	-0.530357	-1.201229	0.627141
N	-0.979115	-2.142185	1.175178
N	-0.401614	1.22766	0.664396
H	-1.192035	1.097565	1.283315
H	0.402084	1.558855	1.187622
F	2.496863	0.0	0.0
