14

C	-0.369661	0.022622	-1.478633
C	0.0	0.0	0.0
Cl	-2.169382	0.174474	-1.738849
H	1.096041	0.0	0.0
C	0.256845	1.183256	-2.116902
N	0.747246	2.111097	-2.643596
C	0.060271	-1.204702	-2.1533
N	0.383521	-2.189024	-2.706895
C	-0.532374	-1.185488	0.648224
N	-0.966303	-2.111954	1.23027
N	-0.379424	1.25567	0.619995
H	0.403249	1.556247	1.187037
H	-1.210269	1.177777	1.190253
F	2.480933	0.0	0.0
