14

C	-0.364128	0.020954	-1.480105
C	0.0	0.0	0.0
Cl	-2.163249	0.159466	-1.748869
H	1.096027	0.0	0.0
C	0.256906	1.187178	-2.114514
N	0.736651	2.121236	-2.640037
C	0.080146	-1.202675	-2.153235
N	0.41367	-2.185131	-2.704631
C	-0.530851	-1.187142	0.646685
N	-0.960032	-2.116258	1.228044
N	-0.384076	1.254454	0.618724
H	0.396871	1.560363	1.184687
H	-1.214385	1.174226	1.189042
F	2.480905	0.0	0.0
