14

C	-0.363732	0.031342	-1.479348
C	0.0	0.0	0.0
Cl	-2.168157	0.08177	-1.751056
H	1.098948	0.0	0.0
C	0.193301	1.241809	-2.090778
N	0.594776	2.205599	-2.628389
C	0.147816	-1.152967	-2.174676
N	0.539294	-2.101977	-2.746055
C	-0.513871	-1.201644	0.633865
N	-0.931458	-2.142968	1.203959
N	-0.3987	1.241639	0.633977
H	-1.227036	1.143488	1.205409
H	0.379137	1.552624	1.202914
F	2.480909	0.0	0.0
