14

C	-0.211689	-0.002991	-1.52002
C	0.0	0.0	0.0
Cl	-1.970293	0.164395	-1.988217
H	1.096737	0.0	0.0
C	0.48237	1.149715	-2.100997
N	1.009374	2.073363	-2.598723
C	0.286759	-1.235648	-2.129634
N	0.654448	-2.224303	-2.647356
C	-0.592451	-1.185651	0.593181
N	-1.065562	-2.144485	1.082885
N	-0.402413	1.214926	0.664717
H	0.360365	1.877177	0.602939
H	-1.254909	1.617702	0.29545
F	2.481299	0.0	0.0
