14

C	-0.32419	-0.018409	-1.526518
C	0.0	0.0	0.0
Cl	0.502253	1.3663	-2.315776
H	1.095804	0.0	0.0
C	0.143707	-1.25589	-2.1519
N	0.490029	-2.248161	-2.678026
C	-1.762552	0.142799	-1.765245
N	-2.923031	0.300873	-1.874544
C	-0.571862	-1.200933	0.590383
N	-1.0369	-2.171903	1.065268
N	-0.429969	1.184476	0.694688
H	0.273927	1.898905	0.568788
H	-1.342625	1.524163	0.412755
F	2.495918	0.0	0.0
