14

C	-0.458889	0.059257	-1.473762
C	0.0	0.0	0.0
Cl	0.401901	1.390605	-2.303772
H	1.094421	0.0	0.0
C	-0.160976	-1.191909	-2.177029
N	0.048313	-2.189635	-2.76116
C	-1.899426	0.328725	-1.563177
N	-3.054152	0.547619	-1.587605
C	-0.526942	-1.206859	0.61834
N	-0.970119	-2.154235	1.159042
N	-0.398565	1.221943	0.67663
H	0.409473	1.553825	1.188111
H	-1.17574	1.087699	1.309408
F	2.498491	0.0	0.0
