16

C	-0.646258	-0.031568	-1.364584
C	0.0	0.0	0.0
Cl	-0.020906	-1.496434	-2.187874
H	1.089521	0.0	0.0
H	-0.29472	-0.898657	0.545103
C	-2.158758	-0.089842	-1.362305
H	-2.558037	0.835188	-0.945502
H	-2.546113	-0.216463	-2.371129
H	-2.467081	-0.936727	-0.745862
N	-0.181914	1.137565	-2.240032
O	0.978561	1.492336	-2.131575
O	-1.008884	1.599573	-3.026347
N	-0.484897	1.131269	0.78828
O	-0.805104	2.169344	0.191645
O	-0.49773	1.012215	2.014773
F	2.496614	0.0	0.0
