16

C	-0.527452	-0.083799	-1.418486
C	0.0	0.0	0.0
Cl	0.328271	-1.293935	-2.375689
H	1.086052	0.0	0.0
H	-0.342303	0.925994	0.457512
C	-2.027378	-0.280848	-1.569169
H	-2.313935	-0.193431	-2.620023
H	-2.289523	-1.273615	-1.210258
H	-2.550534	0.477765	-0.984425
N	-0.244372	1.309238	-2.029791
O	-0.766513	2.246134	-1.427539
O	0.393452	1.406373	-3.067332
N	-0.481997	-1.073665	0.867554
O	-0.755446	-2.178795	0.38671
O	-0.531004	-0.823771	2.074832
F	2.503792	0.0	0.0
