16

C	-0.271695	0.085484	-1.484792
C	0.0	0.0	0.0
Cl	-2.000112	0.41673	-1.893002
H	1.088915	0.0	0.0
H	-0.429323	-0.883166	0.456061
C	0.667661	1.029867	-2.188933
H	1.664498	0.775588	-1.807581
H	0.592355	0.931489	-3.27009
H	0.425536	2.042147	-1.87689
N	-0.054484	-1.334143	-2.052151
O	-0.247396	-2.293729	-1.312615
O	0.252688	-1.414949	-3.236222
N	-0.479002	1.153414	0.766433
O	-0.486018	2.273338	0.251961
O	-0.812437	0.934865	1.934316
F	2.565018	0.0	0.0
