16

C	-0.542234	-0.07847	-1.411727
C	0.0	0.0	0.0
Cl	0.345324	-1.243092	-2.396411
H	1.086048	0.0	0.0
H	-0.34355	0.917527	0.471594
C	-2.036163	-0.327032	-1.551178
H	-2.335099	-0.224983	-2.597191
H	-2.258389	-1.336263	-1.213162
H	-2.58063	0.398005	-0.943135
N	-0.325281	1.332432	-2.011207
O	0.232372	1.45742	-3.09142
O	-0.824773	2.249244	-1.361493
N	-0.456559	-1.087895	0.864212
O	-0.729927	-2.190155	0.376611
O	-0.476431	-0.853261	2.074985
F	2.504938	0.0	0.0
