16

C	-0.51741	-0.048507	-1.428115
C	0.0	0.0	0.0
Cl	0.238901	-1.322778	-2.384311
H	1.088457	0.0	0.0
H	-0.389875	0.909599	0.454987
C	-2.026458	-0.149968	-1.553357
H	-2.327814	-0.066514	-2.599531
H	-2.348164	-1.11828	-1.174041
H	-2.493012	0.641557	-0.968187
N	-0.126282	1.312423	-2.037953
O	-0.665777	2.280827	-1.507776
O	0.630919	1.364834	-2.994635
N	-0.58293	-1.100467	0.778132
O	-1.352126	-0.801691	1.703781
O	-0.288472	-2.258853	0.483008
F	2.524053	0.0	0.0
