16

C	-0.313742	-0.016248	-1.470437
C	0.0	0.0	0.0
Cl	0.224319	1.471941	-2.264218
H	1.088315	0.0	0.0
H	-0.335051	-0.928446	0.463288
C	0.469926	-1.180547	-2.060227
H	0.076253	-2.120908	-1.666641
H	1.499203	-1.035698	-1.712321
H	0.408772	-1.177407	-3.149898
N	-1.801123	-0.23448	-1.76131
O	-2.337005	-1.08531	-1.052937
O	-2.344011	0.354179	-2.686396
N	-0.63522	1.084249	0.75998
O	-0.307841	1.193108	1.94025
O	-1.479552	1.792362	0.2024
F	2.573281	0.0	0.0
