18

C	-0.205315	-0.065075	-1.507102
C	0.0	0.0	0.0
F	0.077051	1.163466	-2.037286
H	1.097088	0.0	0.0
C	0.696454	-1.083194	-2.151903
H	0.710942	-0.922404	-3.231718
H	1.678989	-0.897645	-1.703604
H	0.363739	-2.0955	-1.93715
N	-1.667001	-0.317019	-1.863365
O	-2.068528	-1.473127	-1.731576
O	-2.358168	0.636394	-2.204168
C	-0.415606	-1.251311	0.770873
H	-1.483583	-1.470429	0.712596
H	0.147035	-2.106762	0.397324
H	-0.137301	-1.115957	1.817186
C	-0.59199	1.197288	0.561488
N	-1.091293	2.133107	1.068946
F	2.585511	0.0	0.0
