18

C	-0.412091	0.041075	-1.457134
C	0.0	0.0	0.0
F	-1.778135	0.173988	-1.614131
H	1.094414	0.0	0.0
C	0.316666	1.117134	-2.21768
H	0.15022	1.018022	-3.292882
H	-0.069818	2.082136	-1.883402
H	1.37387	1.030658	-1.96039
N	-0.075881	-1.317574	-2.063259
O	1.089714	-1.497022	-2.395756
O	-0.982623	-2.142883	-2.148763
C	-0.483543	-1.234645	0.759862
H	-0.207999	-1.128507	1.810975
H	-1.563492	-1.390015	0.68482
H	0.034966	-2.116682	0.379191
C	-0.472883	1.220957	0.628782
N	-0.847864	2.203078	1.156986
F	2.55642	0.0	0.0
