18

C	-0.412297	0.039947	-1.457175
C	0.0	0.0	0.0
F	-1.777923	0.17413	-1.614164
H	1.094351	0.0	0.0
C	0.317708	1.114251	-2.218793
H	0.151005	1.014337	-3.293838
H	-0.067583	2.080039	-1.885396
H	1.374615	1.02681	-1.961308
N	-0.077517	-1.319853	-2.061743
O	-0.98532	-2.144284	-2.146168
O	1.087793	-1.500955	-2.394315
C	-0.483191	-1.234183	0.760896
H	-1.562813	-1.391022	0.684531
H	0.037061	-2.115978	0.382084
H	-0.209317	-1.126347	1.812256
C	-0.473015	1.221391	0.627907
N	-0.848181	2.203875	1.15529
F	2.556962	0.0	0.0
