18

C	-0.40055	0.034368	-1.468175
C	0.0	0.0	0.0
F	-0.185926	-1.201039	-2.018019
H	1.095971	0.0	0.0
C	-1.813202	0.46098	-1.800205
H	-2.511761	-0.211676	-1.298167
H	-1.991217	1.480354	-1.461976
H	-1.969389	0.393978	-2.880324
N	0.533941	0.992066	-2.205108
O	1.175961	0.568873	-3.155627
O	0.505929	2.150238	-1.803673
C	-0.404128	-1.313769	0.672538
H	-1.479228	-1.525241	0.631643
H	0.147471	-2.127144	0.202934
H	-0.097938	-1.266567	1.719271
C	-0.541943	1.12999	0.724037
N	-1.011621	2.003669	1.357996
F	2.52326	0.0	0.0
