17

C	-0.454599	0.007271	-1.455845
C	0.0	0.0	0.0
Br	0.357597	1.560812	-2.300993
H	1.09367	0.0	0.0
C	-0.094346	-1.223661	-2.262342
H	-0.363094	-1.049265	-3.306961
H	0.97812	-1.404207	-2.172879
H	-0.634743	-2.090388	-1.880338
N	-1.97808	0.162257	-1.587555
O	-2.628222	-0.341103	-0.673983
O	-2.430896	0.671288	-2.603614
N	-0.371541	-1.262354	0.730914
O	-0.929738	-1.155626	1.839085
O	0.164019	-2.2792	0.292197
C	-0.498539	1.153441	0.72405
N	-0.866407	2.110566	1.300117
H	2.478968	0.0	0.0
