17

C	-0.466462	0.005042	-1.441719
C	0.0	0.0	0.0
Br	0.16148	1.648596	-2.285245
H	1.092222	0.0	0.0
C	0.079418	-1.181684	-2.197297
H	1.167047	-1.169659	-2.070605
H	-0.192524	-1.118293	-3.252249
H	-0.326687	-2.10888	-1.792628
N	-2.002824	0.048824	-1.527106
O	-2.566215	1.036249	-1.071462
O	-2.557774	-0.915055	-2.051349
N	-0.433319	-1.304139	0.630813
O	0.422416	-2.174553	0.765034
O	-1.627585	-1.416754	0.923654
C	-0.497088	1.073204	0.832254
N	-0.829227	1.91707	1.582471
H	2.656914	0.0	0.0
