17

C	0.0	0.0	0.0
C	-0.228627	-0.007873	-1.550178
F	1.3816	0.0	0.0
H	0.484287	-0.784285	-1.852212
N	-0.441114	1.228704	0.595484
H	-1.462155	1.21108	0.522219
H	-0.212904	1.205216	1.584537
N	-0.440065	-1.249164	0.563922
H	-1.462428	-1.240048	0.497607
H	-0.208235	-1.243278	1.553063
C	0.211293	1.320016	-2.183429
H	1.217423	1.572258	-1.845475
H	-0.46205	2.1267	-1.899753
H	0.214919	1.217183	-3.272404
C	-1.470549	-0.464261	-2.189789
N	-2.202618	-0.871127	-3.016096
Br	-3.672203	0.0	0.0
