17

C	0.0	0.0	0.0
C	-0.450236	0.591142	-1.353443
F	1.407372	0.0	0.0
H	-1.543424	0.679251	-1.26006
N	-0.456928	0.839734	1.045416
H	-0.245896	0.405526	1.933571
H	-0.033894	1.755699	0.986995
N	-0.465986	-1.318506	0.276845
H	-0.19482	-1.953189	-0.462651
H	-1.48809	-1.255876	0.31398
C	-0.085278	-0.292623	-2.546286
H	0.980338	-0.534576	-2.538429
H	-0.322132	0.214855	-3.482947
H	-0.670953	-1.21257	-2.515054
C	0.121207	1.926398	-1.524629
N	0.598423	2.990021	-1.674304
Br	-3.831976	0.0	0.0
