17

C	0.0	0.0	0.0
C	-0.258605	-0.090844	-1.535253
F	1.431707	0.0	0.0
H	0.645406	-0.588528	-1.903909
N	-0.510637	1.182132	0.580025
H	-1.529571	1.137665	0.436411
H	-0.359655	1.141602	1.582926
N	-0.41049	-1.205753	0.63625
H	0.215239	-1.970718	0.428349
H	-0.547414	-1.099713	1.629352
C	-0.338453	1.282592	-2.199579
H	-0.350988	1.167178	-3.286932
H	0.531411	1.874729	-1.90728
H	-1.244008	1.803555	-1.887898
C	-1.336771	-0.963496	-2.010772
N	-1.983576	-1.682777	-2.679
Br	-3.719988	0.0	0.0
