17

C	0.0	0.0	0.0
C	-0.452636	-0.183842	-1.464315
F	1.407434	0.0	0.0
H	-1.546668	-0.070159	-1.420863
N	-0.455561	1.258649	0.468713
H	0.010857	2.013316	-0.015813
H	-0.287851	1.317438	1.463902
N	-0.468979	-0.992196	0.910096
H	-0.206464	-1.916197	0.593387
H	-1.490629	-0.915292	0.913606
C	-0.075792	-1.547512	-2.044103
H	-0.644011	-2.331135	-1.540145
H	-0.325914	-1.593371	-3.105771
H	0.993916	-1.736848	-1.92748
C	0.103788	0.886681	-2.290774
N	0.572143	1.735657	-2.95466
Br	-3.824911	0.0	0.0
