17

C	0.0	0.0	0.0
C	-0.445884	-0.183198	-1.465685
F	1.4059	0.0	0.0
H	-1.539547	-0.070548	-1.428313
N	-0.466524	1.201326	0.615057
H	-1.488468	1.131975	0.638928
H	-0.214888	1.997396	0.040011
N	-0.459736	-1.102831	0.771141
H	-0.461845	-0.834218	1.746702
H	0.151586	-1.89621	0.633561
C	-0.094629	-1.552913	-2.047258
H	-0.371425	-1.604524	-3.102451
H	0.976234	-1.751723	-1.958908
H	-0.662277	-2.314583	-1.511608
C	0.124187	0.888503	-2.282012
N	0.595775	1.740875	-2.938877
Br	-3.833271	0.0	0.0
