17

C	0.0	0.0	0.0
C	-0.448215	0.31408	-1.448587
F	1.407851	0.0	0.0
H	-1.548582	0.309055	-1.391178
N	-0.499439	0.999091	0.860554
H	-0.351644	0.730413	1.821827
H	-0.131301	1.915674	0.651556
N	-0.447912	-1.256186	0.510226
H	-0.122381	-2.015602	-0.075766
H	-1.472177	-1.229459	0.506565
C	0.052252	-0.702245	-2.474646
H	-0.316979	-1.69918	-2.224669
H	1.143962	-0.719785	-2.505384
H	-0.322598	-0.452853	-3.469788
C	-0.005237	1.656844	-1.819595
N	0.376926	2.734017	-2.087002
Br	-3.804369	0.0	0.0
