13

C	-0.540833	-0.033176	-1.41473
C	0.0	0.0	0.0
F	-0.108777	-1.169975	-2.084709
H	1.093739	0.0	0.0
H	-1.637804	-0.083521	-1.401454
H	-0.33175	0.940426	0.455695
C	-0.167205	1.149604	-2.212661
N	0.12089	2.095119	-2.843091
C	-0.505531	-1.195955	0.798492
H	-0.171811	-2.124517	0.332113
H	-1.598862	-1.213687	0.873705
H	-0.08968	-1.168974	1.80742
Br	3.656498	0.0	0.0
