13

C	-0.449624	-0.000254	-1.447544
C	0.0	0.0	0.0
F	-0.190202	1.22473	-2.049694
H	1.094198	0.0	0.0
H	0.096642	-0.760251	-2.013351
H	-0.314608	-0.954744	0.438023
C	-1.900809	-0.25417	-1.580874
N	-3.051122	-0.473223	-1.663012
C	-0.558541	1.172254	0.793272
H	-1.652787	1.16249	0.833146
H	-0.175938	1.138043	1.815036
H	-0.234198	2.114837	0.351384
Br	3.660691	0.0	0.0
