13

C	-0.450576	0.060654	-1.440918
C	0.0	0.0	0.0
F	-1.813782	0.387121	-1.523515
H	1.09485	0.0	0.0
H	0.097317	0.840463	-1.975805
H	-0.312716	0.948836	0.450267
C	-0.280203	-1.215493	-2.157977
N	-0.188811	-2.238175	-2.725879
C	-0.568032	-1.181543	0.771905
H	-0.264455	-1.119607	1.818816
H	-1.66071	-1.204683	0.728968
H	-0.183694	-2.124124	0.375941
Br	3.635528	0.0	0.0
