13

C	-0.450348	0.041462	-1.441515
C	0.0	0.0	0.0
F	-1.814382	0.364379	-1.52846
H	1.094746	0.0	0.0
H	0.09642	0.815198	-1.986475
H	-0.313054	0.954249	0.438331
C	-0.277055	-1.242651	-2.143895
N	-0.177355	-2.260848	-2.718713
C	-0.567579	-1.17223	0.786357
H	-0.183013	-2.119379	0.401558
H	-1.660277	-1.196212	0.744057
H	-0.263661	-1.097864	1.832372
Br	3.634856	0.0	0.0
