16
Coordinates from ORCA-job run
  C   0.82203154444280      0.56953776016811     -0.21150672073437
  C   -0.65230514853953      0.17366452318965     -0.18641667786262
  F   0.92738515112418      1.89374305434302     -0.46428310057124
  H   -1.06018567319279      0.39661161450047     -1.17507461327358
  N   1.42772409749409     -0.17259081784670     -1.42202757140277
  O   1.33650755790209      0.40775010996106     -2.49172531247914
  O   1.88476969836979     -1.28618557044299     -1.20103809128944
  C   1.59770004414879      0.20676977626745      0.97165901835607
  N   2.24333337888803     -0.09217284751150      1.90671156776197
  N   -1.36795385061477      1.10929669941541      0.74799357692603
  O   -2.42833658553992      1.57368278081254      0.34438409270356
  O   -0.85696953039439      1.29140625402941      1.84847405331873
  C   -0.91464126366701     -1.25366844385321      0.25284515957170
  H   -1.99083572937818     -1.43470946229382      0.25144021447274
  H   -0.52483916346932     -1.42067346762226      1.25832936835725
  H   -0.44438452757386     -1.96146196311664     -0.42976496385489
