16
Coordinates from ORCA-job run
  C   0.82522690696478     -0.13177745351346     -0.43960052422425
  C   -0.52605567210607      0.25584037222694      0.16170186999449
  F   0.89162922340933     -1.42373748146681     -0.81020736875998
  H   -0.57608193850510      1.34173668470017      0.23883098625167
  N   1.93974964555969      0.13858600262320      0.58593036529031
  O   2.76615562637153     -0.73684039984500      0.75904553718441
  O   1.87538713260055      1.24586929423947      1.10450100811940
  C   1.10529055579043      0.71730257490073     -1.60438286530421
  N   1.29526815887233      1.34531743043878     -2.57884512781614
  N   -0.62511202450731     -0.24109160400454      1.57404123178423
  O   -0.11660421245610     -1.33246957506867      1.82040184933445
  O   -1.25933440429213      0.46347098079565      2.35131522232799
  C   -1.68276927131169     -0.31170818660739     -0.64427397567250
  H   -2.62206914707512     -0.04592681096366     -0.15697802347216
  H   -1.68478933128515      0.11401748678928     -1.64988941137006
  H   -1.60489124802997     -1.39658931524470     -0.71159077366766
