16
Coordinates from ORCA-job run
  C   0.85284613761633     -0.10724077163355     -0.37814968175824
  C   -0.52771101819446      0.21312719187802      0.18547981095464
  F   0.95829215487619     -1.38594400327843     -0.78705613482758
  H   -0.57143075160889      1.27900854314562      0.41298331533350
  N   1.94365628592317      0.16094872821151      0.67785500316617
  O   2.83359443366552     -0.66023345475939      0.77587459392637
  O   1.80397996953080      1.21616167628238      1.28063886247931
  C   1.14103528832539      0.79997456909160     -1.49606802290892
  N   1.33701470971636      1.53029028996325     -2.39564810475633
  N   -0.73693486274193     -0.47737789038435      1.50800045046229
  O   -1.75056776677690     -0.14799730803576      2.11129093716409
  O   0.08731410515240     -1.31434573916920      1.86482690700479
  C   -1.63688491758370     -0.20381029577925     -0.76650497446486
  H   -1.60744959316961     -1.28042772313067     -0.93767950184200
  H   -1.52878950485391      0.31140824086047     -1.72258493419272
  H   -2.59896466987678      0.06645794673775     -0.33325852574051
