13
Coordinates from ORCA-job run
  C   -0.47305692784496     -0.09950303600441      0.48475755655843
  C   0.80545633210581      0.10714880748255     -0.31323338256741
  Cl  -0.43341634517404      0.90563471256375      1.96741768711199
  H   0.94183595446746      1.18138647329462     -0.46498988794538
  H   -0.51530557711516     -1.13425250427627      0.83602146103875
  H   0.64592816556779     -0.34495491856087     -1.30531483043531
  C   -1.71569075536409      0.23828356590446     -0.31756879208823
  H   -2.61631868031152      0.10493134552737      0.28253231406488
  H   -1.78479765070570     -0.41113024527852     -1.19488966518041
  H   -1.68144465038220      1.27703477728986     -0.65354379567821
  N   1.96691475424320     -0.41793250920128      0.39088738572479
  H   2.81498789065589      0.00855040915431      0.04400456764191
  H   2.04390748985753     -1.41619687789557      0.24491938175420
