13
Coordinates from ORCA-job run
  C   -0.48043123430907     -0.20075520014565      0.40825100246772
  C   0.79400274156729      0.01465853507758     -0.38500852809559
  Cl  -0.33202051046906      0.64316520916882      1.99492456432187
  H   0.92883892513421      1.09693953483483     -0.53515792689037
  H   -0.56035081247200     -1.26143082075945      0.65222357673946
  H   0.64100676596168     -0.44075396276264     -1.36939964871338
  C   -1.71717059104962      0.30255533483688     -0.30797066207540
  H   -1.62785704963792      1.36810861701664     -0.52948997679121
  H   -1.84563504060832     -0.24189057512154     -1.24779567674654
  H   -2.60961233632431      0.15341013991468      0.30088073047369
  N   1.92249092014737     -0.65518219229905      0.24937136225343
  H   2.15031635362985     -0.18268745693567      1.11558534308820
  H   2.73642186842992     -0.59713716282543     -0.34941416003188
