13
Coordinates from ORCA-job run
  C   -0.55972249090449     -0.45138787585775      0.50066454094944
  C   0.93301424791017     -0.16133385556589      0.42946490506838
  Cl  -1.06554165912632     -0.38938454025106      2.22468277393837
  H   1.45890715302175     -0.90241053839410      1.03577425336839
  H   -0.73392027680786     -1.47614252439181      0.16896411815662
  H   1.12228045549466      0.82128101805960      0.88406713812365
  C   -1.39326890016850      0.51695639271684     -0.31160173955662
  H   -2.45698040955322      0.29720048306142     -0.21192529576552
  H   -1.22365318697567      1.54371426302429      0.02336193224175
  H   -1.12154040452923      0.42960151747539     -1.36582009708103
  N   1.37800271925410     -0.27529183499156     -0.95877751768739
  H   2.34325603841146     -0.57298848125709     -0.99552832109517
  H   1.32116671397313      0.62118597637173     -1.42332669066087
