13
Coordinates from ORCA-job run
  C   -0.59153548733835     -0.46120650452795      0.51677774178881
  C   0.83417885275526     -0.62359915059884      0.00320983514202
  Cl  -0.55166484952423      0.14576233341832      2.20491840216989
  H   0.77366255453958     -1.19198129321834     -0.93556478036776
  H   -1.05826592876915     -1.44838612835903      0.57471011631550
  H   1.38676539761612     -1.24239055050561      0.71457252722048
  C   -1.42026514738949      0.47341459545780     -0.33899967452819
  H   -0.96212317810844      1.46212550031970     -0.34989199817717
  H   -1.46916117923504      0.08982735631719     -1.36338843663949
  H   -2.43720046543723      0.55962738795878      0.04533341810766
  N   1.49228031397969      0.66560263750528     -0.17486172226293
  H   1.60127605953211      0.89130135476910     -1.15219344118241
  H   2.40305305737919      0.67890246146359      0.25737801241358
