19

C	-0.355108	0.070285	-1.486279
C	0.0	0.0	0.0
Cl	0.036846	-1.627154	-2.184858
H	1.090199	0.0	0.0
N	-1.700969	0.431327	-1.765017
H	-1.865241	0.42083	-2.764643
H	-2.321853	-0.228449	-1.311069
C	0.655117	0.994439	-2.149668
H	1.642895	0.74832	-1.741522
H	0.629324	0.878793	-3.23636
H	0.400387	2.028668	-1.901711
N	-0.594319	-1.187822	0.662077
O	-1.789493	-1.434278	0.440823
O	0.095165	-1.830248	1.44657
C	-0.476992	1.21791	0.779101
H	-0.154539	1.109041	1.818334
H	-1.560271	1.350786	0.734762
H	0.014085	2.105674	0.379258
F	2.644707	0.0	0.0
