19

C	-0.052337	0.038306	-1.543983
C	0.0	0.0	0.0
Cl	-1.727811	0.414683	-2.162514
H	1.093285	0.0	0.0
N	0.855087	1.076164	-2.011974
H	0.518088	1.976253	-1.686783
H	1.729911	0.874959	-1.493854
C	0.422021	-1.263778	-2.158184
H	-0.250381	-2.094904	-1.955399
H	0.51434	-1.110764	-3.233846
H	1.401721	-1.465498	-1.718087
N	-0.56758	-1.241804	0.565928
O	-1.677599	-1.183839	1.11228
O	0.086614	-2.282533	0.469601
C	-0.568756	1.205324	0.71059
H	-0.39816	1.105937	1.785044
H	-0.035047	2.097767	0.381222
H	-1.638165	1.330458	0.537695
F	2.649301	0.0	0.0
