19

C	-0.377544	0.108774	-1.493322
C	0.0	0.0	0.0
Cl	-0.069186	-1.525388	-2.229074
H	1.089773	0.0	0.0
N	-1.740308	0.45582	-1.838572
H	-2.362512	-0.100385	-1.260314
H	-1.88592	1.431126	-1.600881
C	0.622216	1.068597	-2.120831
H	1.61544	0.81237	-1.733827
H	0.381727	2.095315	-1.82216
H	0.568384	1.003808	-3.208579
N	-0.602184	-1.211618	0.607228
O	-1.84177	-1.285422	0.601714
O	0.126187	-2.068574	1.098311
C	-0.472644	1.196153	0.810252
H	0.042911	2.089825	0.454445
H	-0.173805	1.053187	1.852064
H	-1.555368	1.344008	0.77174
F	2.644972	0.0	0.0
