19

C	-0.284628	-0.05379	-1.502074
C	0.0	0.0	0.0
Cl	-2.05817	-0.729638	-1.78879
H	1.092385	0.0	0.0
N	-0.211002	1.260638	-2.032926
H	-0.31649	1.230398	-3.038881
H	-0.92613	1.86124	-1.642418
C	0.689917	-0.952077	-2.24219
H	0.486516	-2.00054	-2.045099
H	1.6762	-0.692175	-1.831654
H	0.634896	-0.766533	-3.319845
N	-0.434514	-1.243515	0.673252
O	-1.142862	-1.157914	1.681899
O	-0.046711	-2.315535	0.21405
C	-0.531368	1.21791	0.716026
H	-0.306313	1.139402	1.778088
H	-0.00111	2.088649	0.330196
H	-1.613638	1.344523	0.60797
F	2.595741	0.0	0.0
