17

C	-0.308846	-0.025209	-1.497136
C	-0.029976	-0.162936	0.008817
Cl	0.067784	-1.628918	-2.290149
H	1.024411	-0.493466	0.068536
C	-1.724472	0.240123	-1.762696
N	-2.847634	0.46759	-2.021527
C	0.594805	1.047114	-2.097919
H	0.153384	2.017412	-1.867544
H	0.669488	0.923342	-3.180326
H	1.564276	1.018233	-1.579779
N	-0.991296	-1.082374	0.617959
H	-0.682363	-1.242334	1.572029
H	-0.924494	-1.977687	0.145496
N	-0.136898	1.164956	0.573377
H	-0.547443	1.102971	1.496681
H	0.866613	1.460434	0.615279
F	2.437256	1.21948	0.159151
