13
Coordinates from ORCA-job run
  C   -0.07075910015363      0.25924022006946     -0.07434952957316
  C   1.39480919173923     -0.12931093354376     -0.06379542857437
  Cl  -0.25420504780103      1.53286087392326     -1.42609781256095
  H   1.69988187922636     -0.51352590168517     -1.03707677014910
  H   2.02069388284645      0.73387057228515      0.17279392762067
  H   1.54991143551904     -0.89710256290859      0.69769792844991
  N   -0.44886058223110      0.78225059783567      1.19115973974174
  H   -1.41766890431279      1.07646477334885      1.19339047541344
  H   0.12892690655656      1.57219430238112      1.45059409235442
  C   -0.98093602802841     -0.89083316919193     -0.45888949694799
  H   -0.88887037024285     -1.67883405564490      0.29211679047970
  H   -0.71135669978346     -1.28642512947903     -1.43807469775843
  H   -2.02156656333439     -0.56184958739012     -0.49946921849588
