13
Coordinates from ORCA-job run
  C   -0.04583531204136      0.34673323209180     -0.16172667547313
  C   1.41368880201608     -0.06513063191726     -0.11098988763121
  Cl  -0.25952445013721      1.47557170026286     -1.56029544078586
  H   1.57174233607198     -0.75718164478752      0.72278917846793
  H   2.03802094032673      0.81556994209473      0.03804196971387
  H   1.70809004692767     -0.56438635765198     -1.03461910706697
  N   -0.35823169727235      1.10810164658392      1.03065424961508
  H   -0.17053526446145      0.53649765342834      1.84735394288745
  H   -1.34036962245929      1.35984404214819      1.03769203616080
  C   -0.96614963114431     -0.84179838521648     -0.41216167468600
  H   -2.00551986051381     -0.51204085267859     -0.47229475835159
  H   -0.87236280707984     -1.54948805515090      0.41752405464376
  H   -0.71401348023284     -1.35529228920713     -1.34196788749413
