13
Coordinates from ORCA-job run
  C   -0.15081228325965      0.30819526581508     -0.17608988971921
  C   1.34206163637493      0.01157393793592     -0.10087692480376
  Cl  -0.39015237321878      1.42735591297081     -1.57828018410599
  H   1.70350039347900     -0.46164321940307     -1.01587090798649
  H   1.90573856186145      0.93383509933686      0.05516820363701
  H   1.53252727905818     -0.66027068188787      0.74194401112369
  N   -0.68816789621426      0.98657018090990      0.98583683352412
  H   -0.65050631433958      0.35962877351960      1.78238293693598
  H   -0.13214498969610      1.80684691976865      1.20032137636266
  C   -0.96723852095225     -0.94489343314587     -0.43229210242976
  H   -0.83478235214876     -1.64629364984754      0.39812753031959
  H   -2.02274431303400     -0.68507013877880     -0.50996932780449
  H   -0.64727882791016     -1.43483496719368     -1.35240155505333
