15

C	0.0	0.0	0.0
C	-0.419157	0.389677	-1.423721
Cl	1.850227	0.0	0.0
H	0.051049	1.358938	-1.632193
H	-1.504767	0.501777	-1.309237
N	-0.535729	0.832825	1.027339
H	-1.571652	0.630273	0.858572
H	-0.366343	1.79443	0.740678
C	-0.36173	-1.400688	0.285149
N	-0.535527	-2.538584	0.515781
C	-0.086462	-0.624692	-2.50813
H	-0.648981	-1.546333	-2.342723
H	-0.373114	-0.233407	-3.489006
H	0.978226	-0.869251	-2.5382
F	-2.750512	0.0	0.0
