15

C	0.0	0.0	0.0
C	-0.465993	-0.076385	-1.460061
Cl	1.798917	0.0	0.0
H	0.024675	-0.933952	-1.931666
H	-1.544228	-0.24961	-1.35857
N	-0.581684	1.132884	0.638669
H	-1.618767	0.892549	0.485303
H	-0.389401	1.080236	1.63476
C	-0.334598	-1.286077	0.665614
N	-0.535529	-2.315927	1.195374
C	-0.196279	1.206739	-2.232799
H	-0.73844	2.034303	-1.775849
H	-0.541559	1.093568	-3.265809
H	0.867523	1.460713	-2.25351
F	-2.806393	0.0	0.0
