15

C	0.0	0.0	0.0
C	-0.446419	-0.300378	-1.439757
Cl	1.802209	0.0	0.0
H	-1.535952	-0.194019	-1.35415
H	-0.030814	0.502187	-2.06313
N	-0.546932	1.21124	0.539066
H	-0.368634	1.939271	-0.149522
H	-1.580098	0.959138	0.471661
C	-0.381026	-1.116642	0.887945
N	-0.560205	-2.041984	1.587695
C	-0.057091	-1.666912	-1.984086
H	1.025106	-1.81897	-1.995199
H	-0.51092	-2.458211	-1.382175
H	-0.425634	-1.779711	-3.008618
F	-2.774404	0.0	0.0
