15

C	0.0	0.0	0.0
C	-0.44921	-0.036869	-1.466092
Cl	1.798548	0.0	0.0
H	-1.531788	-0.187494	-1.384067
H	0.029834	-0.894641	-1.948385
N	-0.561888	1.135213	0.655563
H	-1.59977	0.904169	0.516777
H	-0.341998	1.084086	1.646381
C	-0.344826	-1.29455	0.641051
N	-0.526008	-2.327229	1.170278
C	-0.127395	1.255026	-2.206606
H	-0.446647	1.173849	-3.25023
H	-0.654579	2.089219	-1.745679
H	0.942606	1.478715	-2.19497
F	-2.779815	0.0	0.0
