15

C	0.0	0.0	0.0
C	-0.197701	0.061041	-1.565254
Cl	1.805827	0.0	0.0
H	0.368737	0.951853	-1.863111
H	0.356003	-0.791024	-1.976254
N	-0.615622	1.017962	0.768603
H	-0.446305	1.898712	0.290203
H	-1.652863	0.743149	0.615301
C	-0.403662	-1.318695	0.514359
N	-0.617762	-2.393122	0.935494
C	-1.573135	0.118576	-2.211213
H	-1.414499	0.050937	-3.297979
H	-2.22128	-0.676948	-1.858772
H	-2.098347	1.039438	-1.971301
F	-2.832313	0.0	0.0
