15

C	-0.27247	0.104463	-1.507693
C	0.0	0.0	0.0
Cl	-2.012558	0.460537	-1.853363
H	1.105351	0.0	0.0
N	0.52883	1.200852	-1.98993
H	1.497245	1.0391	-1.697306
H	0.487741	1.252302	-2.999869
C	0.005916	-1.178652	-2.176939
N	0.264522	-2.177095	-2.74172
C	-0.552207	-1.221541	0.575548
N	-0.98201	-2.202604	1.057374
N	-0.519035	1.182057	0.697208
H	0.058486	1.292854	1.525863
H	-0.300521	1.972116	0.096759
Br	3.419943	0.0	0.0
