15

C	-0.347649	0.063585	-1.502325
C	0.0	0.0	0.0
Cl	-2.142746	0.294061	-1.667591
H	1.094886	0.0	0.0
N	0.318382	1.155627	-2.157163
H	0.167925	1.960507	-1.551884
H	1.320514	0.950267	-2.122026
C	-0.02136	-1.200732	-2.169819
N	0.210991	-2.208439	-2.727215
C	-0.537198	-1.191893	0.656755
N	-1.02497	-2.098147	1.225447
N	-0.384975	1.25361	0.630531
H	0.296663	1.473435	1.345972
H	-1.304726	1.193957	1.046816
Br	3.381898	0.0	0.0
