15

C	-0.534059	0.025343	-1.442455
C	0.0	0.0	0.0
Cl	-0.05174	-1.467999	-2.296743
H	1.098416	0.0	0.0
N	-1.973739	0.109137	-1.407882
H	-2.190791	0.917795	-0.830414
H	-2.334616	0.26244	-2.342874
C	0.073792	1.161789	-2.163264
N	0.420895	2.105457	-2.772183
C	-0.501748	-1.180641	0.698597
N	-0.919119	-2.077493	1.331703
N	-0.465131	1.238179	0.655604
H	-0.874053	1.027218	1.556956
H	0.356117	1.811692	0.820375
Br	3.404018	0.0	0.0
