15

C	-0.537693	-0.297932	-1.409691
C	0.0	0.0	0.0
Cl	0.003356	-1.917321	-1.936567
H	1.106209	0.0	0.0
N	-1.97795	-0.262256	-1.377619
H	-2.35064	-0.291501	-2.319664
H	-2.225716	0.622503	-0.941833
C	0.026164	0.685874	-2.355599
N	0.342784	1.503501	-3.138883
C	-0.500957	-0.997443	0.941722
N	-0.905371	-1.741912	1.75489
N	-0.487578	1.346573	0.368541
H	0.29547	1.980924	0.239369
H	-0.718231	1.365041	1.354703
Br	3.414588	0.0	0.0
