15

C	-0.532961	-0.072667	-1.440764
C	0.0	0.0	0.0
Cl	-0.090586	-1.637909	-2.180565
H	1.102649	0.0	0.0
N	-1.971097	0.046986	-1.414764
H	-2.16767	0.917692	-0.927804
H	-2.328205	0.112686	-2.361545
C	0.099049	0.990356	-2.246933
N	0.467753	1.874475	-2.928456
C	-0.499567	-1.129586	0.780595
N	-0.910631	-1.982353	1.476185
N	-0.449676	1.283989	0.566314
H	-0.967498	1.138199	1.423291
H	0.380499	1.822492	0.789194
Br	3.401088	0.0	0.0
