15

C	-0.324848	-0.2361	-1.488822
C	0.0	0.0	0.0
Cl	0.073882	1.343466	-2.380278
H	1.106548	0.0	0.0
N	0.449262	-1.331032	-1.923211
H	0.362604	-1.493083	-2.917915
H	1.427849	-1.193677	-1.663097
C	-1.753278	-0.451779	-1.740997
N	-2.890227	-0.651642	-1.957057
C	-0.475186	-1.151911	0.765391
N	-0.87934	-2.031707	1.430158
N	-0.613684	1.219689	0.515564
H	-0.616981	1.166573	1.527957
H	-0.001632	1.989718	0.267481
Br	3.442861	0.0	0.0
