15

C	-0.573234	0.022604	-1.438791
C	0.0	0.0	0.0
Cl	0.018457	-1.414989	-2.31711
H	1.095731	0.0	0.0
N	-2.020404	0.041024	-1.504005
H	-2.31465	0.801111	-0.894454
H	-2.363314	-0.831358	-1.112409
C	-0.076907	1.229921	-2.113948
N	0.263872	2.218288	-2.648161
C	-0.509028	-1.185155	0.683802
N	-0.994909	-2.092237	1.251417
N	-0.488854	1.2248	0.661625
H	-0.819183	1.015915	1.595159
H	0.310459	1.843273	0.758119
Br	3.407691	0.0	0.0
