15

C	-0.5774	-0.120309	-1.419702
C	0.0	0.0	0.0
Cl	0.232211	-1.528063	-2.248788
H	1.102918	0.0	0.0
N	-2.002125	-0.258409	-1.35556
H	-2.404429	-0.255998	-2.28477
H	-2.234061	-1.135548	-0.902156
C	-0.271598	1.0825	-2.200444
N	-0.125923	2.021557	-2.890289
C	-0.462097	-1.164449	0.776075
N	-0.915961	-2.046095	1.408187
N	-0.418644	1.27101	0.556131
H	0.271839	1.579473	1.228545
H	-1.332963	1.223263	0.98328
Br	3.416506	0.0	0.0
