15

C	-0.482324	-0.239804	-1.449924
C	0.0	0.0	0.0
Cl	0.240532	-1.797554	-2.058512
H	1.102448	0.0	0.0
N	-1.914588	-0.232317	-1.498873
H	-2.271548	-0.989082	-0.925256
H	-2.240598	-0.36147	-2.44859
C	0.018089	0.833687	-2.316257
N	0.362113	1.705727	-3.024652
C	-0.539133	-1.082179	0.832134
N	-1.053352	-1.932651	1.459254
N	-0.424728	1.288828	0.514264
H	-1.304054	1.572249	0.10022
H	0.297456	1.968465	0.310871
Br	3.405733	0.0	0.0
