15

C	-0.509236	0.021359	-1.444993
C	0.0	0.0	0.0
Cl	-2.420035	-0.006121	-1.325048
H	1.103464	0.0	0.0
N	-0.034087	1.156397	-2.089572
H	-0.432679	1.310289	-3.003687
H	-0.108817	1.956515	-1.472422
C	-0.207099	-1.202432	-2.186051
N	0.006413	-2.172267	-2.813738
C	-0.470337	-1.187364	0.718206
N	-0.852678	-2.097491	1.355876
N	-0.365181	1.260546	0.637024
H	-1.249864	1.189942	1.122952
H	0.36828	1.504004	1.291722
Br	3.385915	0.0	0.0
