15

C	-0.326413	0.02936	-1.5087
C	0.0	0.0	0.0
Cl	-2.112743	0.2958	-1.710046
H	1.106688	0.0	0.0
N	0.3764	1.087422	-2.182121
H	1.370803	0.858027	-2.124363
H	0.241541	1.911882	-1.599792
C	-0.018528	-1.259688	-2.135962
N	0.210806	-2.291922	-2.647591
C	-0.549682	-1.173235	0.678184
N	-1.038503	-2.073666	1.255019
N	-0.382807	1.272012	0.592046
H	0.282043	1.502717	1.320214
H	-1.315934	1.234831	0.981377
Br	3.386301	0.0	0.0
