14

C	-0.001696	0.027917	0.014151
C	-0.535918	0.096296	-1.409548
F	1.383643	-0.185629	-0.065266
H	-0.354772	-0.863034	-1.890932
H	-1.630801	0.255566	-1.321203
C	-0.184412	1.284906	0.776241
N	-0.281674	2.248886	1.437858
N	-0.615903	-1.031956	0.742559
H	-1.664159	-0.885749	0.588807
H	-0.399014	-1.89221	0.242406
N	0.105152	1.118925	-2.261561
O	0.54636	0.756125	-3.355748
O	0.134908	2.278054	-1.84698
H	-3.025934	-0.500095	-0.148276
