15

C	-0.383042	0.017858	-1.495283
C	0.0	0.0	0.0
Br	0.400513	-1.571511	-2.350957
H	1.096534	0.0	0.0
C	-1.886002	0.001357	-1.749999
H	-2.098872	0.005799	-2.820002
H	-2.317029	-0.896692	-1.303353
H	-2.336551	0.885057	-1.289367
C	0.227601	1.187945	-2.127492
N	0.624687	2.160279	-2.654258
C	-0.521122	-1.176756	0.667271
N	-0.932674	-2.136268	1.210207
C	-0.482082	1.210386	0.640623
N	-0.862519	2.205292	1.141689
F	2.430111	0.0	0.0
