15

C	-0.189114	0.032333	-1.525008
C	0.0	0.0	0.0
Br	-2.096591	0.248963	-2.052964
H	1.099345	0.0	0.0
C	0.645279	1.168312	-2.105162
H	0.243004	2.126451	-1.771276
H	1.650194	1.021664	-1.691627
H	0.644039	1.133792	-3.195601
C	0.236851	-1.247727	-2.087033
N	0.585964	-2.272324	-2.544903
C	-0.559469	-1.175364	0.63456
N	-0.997316	-2.136077	1.152571
C	-0.466262	1.225122	0.620855
N	-0.816467	2.234002	1.113308
F	2.479296	0.0	0.0
