15

C	-0.389672	0.019842	-1.496346
C	0.0	0.0	0.0
Br	0.425265	-1.546172	-2.366118
H	1.096509	0.0	0.0
C	-1.893269	-0.024486	-1.7482
H	-2.359588	0.848017	-1.281053
H	-2.106494	-0.014541	-2.819566
H	-2.310182	-0.93301	-1.308535
C	0.187079	1.206932	-2.127446
N	0.554353	2.189054	-2.658136
C	-0.514408	-1.186336	0.658099
N	-0.920971	-2.150936	1.195427
C	-0.515555	1.197316	0.642037
N	-0.924915	2.178469	1.147301
F	2.431889	0.0	0.0
