15

C	-0.249388	-0.029072	-1.530782
C	0.0	0.0	0.0
Br	0.313452	1.706285	-2.266133
H	1.09739	0.0	0.0
C	0.635801	-1.116632	-2.134788
H	0.621326	-1.068849	-3.22431
H	0.271973	-2.096052	-1.811198
H	1.638034	-0.94307	-1.72826
C	-1.659179	-0.187124	-1.879425
N	-2.788948	-0.3595	-2.159005
C	-0.461939	-1.246206	0.591158
N	-0.816384	-2.270487	1.048479
C	-0.577794	1.142594	0.679772
N	-1.032106	2.061107	1.256851
F	2.493239	0.0	0.0
