15

C	-0.248283	-0.051061	-1.530613
C	0.0	0.0	0.0
Br	0.30112	1.678641	-2.288103
H	1.097283	0.0	0.0
C	0.647385	-1.139248	-2.120351
H	0.292545	-2.117851	-1.783571
H	1.648853	-0.951464	-1.716726
H	0.630578	-1.106622	-3.210472
C	-1.655794	-0.226006	-1.878789
N	-2.78162	-0.412858	-2.163396
C	-0.459836	-1.239336	0.607214
N	-0.817137	-2.257428	1.075876
C	-0.580696	1.150127	0.66406
N	-1.036067	2.076106	1.22836
F	2.493845	0.0	0.0
