12
Coordinates from ORCA-job run
  C   -0.59485875070340     -0.00195416830456      0.34489639701971
  C   0.53610561045118      0.02546198991464     -0.42938293259308
  C   -0.97708543015795      1.20462161949652      1.00783697893155
  N   -1.23748808532566      2.20859577035950      1.56698036460447
  N   -1.48437397475478     -1.07598632646329      0.44257167178616
  H   -1.13527317331739     -1.92566695773964      0.01809077597544
  H   -1.80883818216507     -1.24085937495476      1.38543633054575
  N   1.24024480454453      1.17682516916888     -0.79469842077923
  H   0.94328430640272      2.00425873462285     -0.29375716885006
  H   2.24342907044289      1.06071456811260     -0.75313712559623
  C   0.96538059760849     -1.19968427211172     -1.02624468694501
  N   1.31047320697442     -2.23632675210100     -1.46759218409947
