12
Coordinates from ORCA-job run
  C   0.51991307412412     -0.01661820177584     -0.44940864323691
  C   -0.57915008104858      0.04613314993460      0.36745137407869
  C   0.82105141188909     -1.26928182918802     -1.06702996611213
  N   1.05992213057508     -2.32724772620139     -1.52757983974543
  N   1.30472417661698      1.07343016779347     -0.83709687831575
  H   2.29517490236035      0.87237441246278     -0.83742513750130
  H   1.09948144832780      1.91949228476073     -0.32115951572036
  N   -1.55188411205374     -0.94980021070453      0.49532931233379
  H   -1.29310632577021     -1.82279147366877      0.05403902086695
  H   -1.85318718541900     -1.09347758618604      1.44939628747728
  C   -0.83392441829559      1.27561396846841      1.04917921078515
  N   -0.99001502130632      2.29217304430459      1.62430477509004
