12
Coordinates from ORCA-job run
  C   -0.60783588941870      0.02140939665223      0.34562597565584
  C   0.42921100846849      0.07020632685618     -0.54192813292454
  C   -1.94127168526868      0.33406922134508     -0.04620867555697
  N   -3.05798042920597      0.57550221774731     -0.33470213014211
  N   -0.36755770931339     -0.43847293793288      1.64638744855228
  H   0.47498163424163     -0.02761116165511      2.03431424993017
  H   -1.15435256662132     -0.32514292884923      2.26754069407187
  N   1.71502327502182     -0.29267423042837     -0.11219890608574
  H   2.39097863553746     -0.33878062690280     -0.86335654054695
  H   1.69925224873699     -1.15285374922213      0.42192005546763
  C   0.25740627129604      0.57346548046674     -1.86100151906773
  N   0.16114520652564      1.00088299192298     -2.95639251935376
