12
Coordinates from ORCA-job run
  C   -0.58468847379770      0.01496099380081      0.40016776711470
  C   0.54167402373445      0.04643994180849     -0.37374349809341
  C   -0.98185278343946      1.20933524656846      1.09190056076861
  N   -1.36245921278757      2.13955975957009      1.70302049319860
  N   -1.44946887995147     -1.05010120675194      0.50867123270787
  H   -1.10084290041482     -1.93813061210020      0.17606577774770
  H   -1.97317427499171     -1.10679028464299      1.36774494417961
  N   1.26934854061191      1.25896328089666     -0.52065737959379
  H   1.17770558017374      1.63595858037264     -1.45636063970248
  H   2.25278857901672      1.12122534992024     -0.32454989149209
  C   0.94281477564092     -1.16086229264331     -1.02632457758300
  N   1.26815502620501     -2.16955875679896     -1.54393478925231
