12
Coordinates from ORCA-job run
  C   0.57927048626651     -0.01401371414142     -0.36622185368132
  C   -0.58045104971794      0.01489619550928      0.36525472160253
  C   0.93464497304983     -1.24494606871863     -0.99610918589806
  N   1.17731221249669     -2.27749434846998     -1.50925074670317
  N   1.50514788485040      1.02917688241422     -0.46919881620470
  H   1.16311246435276      1.90706108477105     -0.10032563049612
  H   1.87271530358312      1.14318828643287     -1.40367364973528
  N   -1.50521608149008     -1.02944484287503      0.46812358126930
  H   -1.87552231802635     -1.14245886504623      1.40161513289823
  H   -1.15981066678784     -1.90767257170288      0.10341250269568
  C   -0.93484690671919      1.24519587495233      0.99683165523478
  N   -1.17535630185791      2.27751208687441      1.51154228901815
