12
Coordinates from ORCA-job run
  C   -0.51874059116699     -0.07464109194244      0.41458646848787
  C   0.64316377364474     -0.00467712397102     -0.30708124425897
  C   -0.97124539008565      1.11360959882268      1.06238364471591
  N   -1.31634539272224      2.10771460725644      1.59469795703667
  N   -1.24332621597132     -1.27844836602055      0.55315678967307
  H   -1.91097431811457     -1.23888615131451      1.30818731871664
  H   -1.69572036873720     -1.57568034077314     -0.30091878698935
  N   1.45517072926635      1.11430271061848     -0.42202200908986
  H   1.02891446246019      1.97961430003624     -0.11989732896076
  H   1.93211421582020      1.20163703512519     -1.30639910422696
  C   1.10744864688580     -1.19187938677216     -0.95691803587293
  N   1.48954044872068     -2.15266579106521     -1.51977566923132
