12
Coordinates from ORCA-job run
  C   -0.48774091595087      0.06510828444039      0.55079652058805
  C   0.56414955616055     -0.12423033310740     -0.30173841539363
  C   -0.33150128178024     -0.12840798740643      1.96028886995764
  N   -0.24056181407839     -0.29543753875826      3.12206413922208
  N   -1.70102724144242      0.54625221449439      0.10839106030750
  H   -2.49778622659737      0.29423433684908      0.67313295800716
  H   -1.82282778799746      0.39888641269104     -0.88677276347183
  N   0.33637812792374      0.12407239927245     -1.68490135703528
  H   0.91268102042181     -0.47043376673310     -2.26590902876616
  H   0.52333878801881      1.09202686057769     -1.92493786726282
  C   1.83703884530879     -0.56129665925444      0.16560735677795
  N   2.90685893001307     -0.94077422306542      0.48397852706934
