12
Coordinates from ORCA-job run
  C   -0.57135220272411      0.02728376054388      0.41631651312693
  C   0.53783919769398      0.03366197569422     -0.38268313107937
  C   -0.89042984976984      1.20952826774654      1.16703307658554
  N   -1.21005452028585      2.12771823501657      1.82907710005079
  N   -1.48927601697921     -0.99482515400988      0.50054743438228
  H   -1.99408724786068     -1.06215030676974      1.36998017573576
  H   -1.19495609520668     -1.88399253241084      0.12220938359952
  N   1.32227822977154      1.21343941645229     -0.50044028626119
  H   2.30475887826575      1.01389129165561     -0.36117028567709
  H   1.20777156203653      1.64632422926741     -1.40913115202852
  C   0.85992440533155     -1.16426718130163     -1.09351980697089
  N   1.11758365972702     -2.16661200188444     -1.65921902146376
