12
Coordinates from ORCA-job run
  C   0.55913485151277     -0.18407949237568     -0.27975479205287
  C   -0.48563416933656      0.15522834855868      0.53428392536401
  C   1.80925407502181     -0.61700987833550      0.24886877992248
  N   2.85885031868596     -1.00364570186354      0.62122648544167
  N   0.34645543371667     -0.09714745996479     -1.68496002205182
  H   0.88909683126639     -0.79030040659354     -2.18329891769722
  H   0.58862506024590      0.82142368939129     -2.04146820547341
  N   -1.67452853951357      0.63180853314729      0.02736211997623
  H   -1.79957282413878      0.37477246922319     -0.94471618310873
  H   -2.48393565796649      0.48794050705179      0.61150639174203
  C   -0.34300765540943      0.12691714902416      1.95830826720813
  N   -0.26573772408468      0.09509224273664      3.13264215072950
