12
Coordinates from ORCA-job run
  C   -0.57676057087342      0.20268080894166      0.41393783306181
  C   0.57159669716667      0.04263687928022     -0.31073952811421
  C   -0.87874604069317      1.45352832133139      1.04089361174906
  N   -1.14929012645407      2.46136147561959      1.58589769177242
  N   -1.53254219883283     -0.78721286802980      0.48537361010041
  H   -2.11911845570077     -0.76393467971505      1.30544463142979
  H   -1.14648377758176     -1.69781952209917      0.26455488960732
  N   0.78058266558893     -1.22116294994375     -0.93232969846754
  H   0.38824902335504     -1.24454523623378     -1.86777498293922
  H   1.76532697947689     -1.44500918000654     -0.99008086080947
  C   1.52897494928888      1.09041003087041     -0.43548094903152
  N   2.36821085525961      1.90906691998482     -0.55869624835885
