12
Coordinates from ORCA-job run
  C   0.52790487909506      0.06359095375773     -0.39101674612544
  C   -0.54758043138802     -0.01529768073517      0.44906100056314
  C   0.89602569036444     -1.10706854490962     -1.12479608885533
  N   1.17991606791816     -2.07652621577089     -1.73374756923551
  N   1.25310948158843      1.28116375721077     -0.50324830409601
  H   2.17372976619669      1.20498580287044     -0.08759516578944
  H   1.35959966042611      1.55535667370014     -1.47175972774791
  N   -1.24077715809444     -1.16429365768826      0.75439722668422
  H   -1.08756121338555     -1.94815509407300      0.13582404663044
  H   -2.20133961329330     -1.03801191553941      1.03122050225811
  C   -0.95161205120297      1.16168069447951      1.16655202908082
  N   -1.36041507822462      2.08157522669775      1.77510879663291
