12
Coordinates from ORCA-job run
  C   -0.53325783810015      0.01185543335859      0.46544379761217
  C   0.52845475025646      0.02607701535321     -0.39550603862542
  C   -0.65859498224528      1.07150425046213      1.42670385762519
  N   -0.84503979764001      1.91269946972367      2.22748217782612
  N   -1.46736972641157     -0.99394638384592      0.56420089225057
  H   -1.50118789617454     -1.64061720058714     -0.21124768754977
  H   -2.37224343083771     -0.72175112128945      0.91400976008690
  N   1.50999591873508      1.04958521209822     -0.29654546202092
  H   2.39176108815024      0.68652469800861      0.04514526901988
  H   1.67002470396907      1.49107174113831     -1.19322946680051
  C   0.61570208451542     -1.01640565658665     -1.37035662803029
  N   0.66175512578299     -1.87559745783358     -2.17710047139393
