12
Coordinates from ORCA-job run
  C   0.65722916553984     -0.00765366280156     -0.33781980786014
  C   -0.49710261334352      0.21985760696664      0.35868513843471
  C   1.70166805096324      0.97108170968629     -0.36295739396950
  N   2.57186560831716      1.76171776272239     -0.42080955233464
  N   0.90502022874986     -1.21208049226489     -0.95779085152557
  H   1.54319845716843     -1.17633968679637     -1.73754161692125
  H   0.05233310593850     -1.73271911115702     -1.12642464001766
  N   -1.47435655404630     -0.81728768829573      0.35564592950580
  H   -2.41095979924219     -0.43734556858853      0.40328846426592
  H   -1.34495922474675     -1.44892794944441      1.13914875709158
  C   -0.72383948760081      1.44253571748415      1.05421313049728
  N   -0.98109693769745      2.43716136248904      1.63236244283347
