12
Coordinates from ORCA-job run
  C   0.52611486199581      0.07138329669885     -0.39282840263365
  C   -0.54430318229207     -0.02207582593368      0.45229782456123
  C   0.90699852938206     -1.09569259596278     -1.12588491470395
  N   1.19781951178813     -2.06365719362828     -1.73383804449899
  N   1.23323067230905      1.29883064022735     -0.51116400735399
  H   1.33506058589873      1.57157399590558     -1.48045880648836
  H   2.15428292318181      1.23920903734887     -0.09401513043614
  N   -1.21847686499322     -1.18142323995381      0.76145314410498
  H   -2.17948530943140     -1.07078808276822      1.04332876840057
  H   -1.05530925922068     -1.96409469985456      0.14385162618134
  C   -0.96651927389251      1.15021729166300      1.16647286241590
  N   -1.38941319472570      2.06651737625768      1.77078508045106
