12
Coordinates from ORCA-job run
  C   -0.45900798475616     -0.06720255769038      0.52985077505586
  C   0.62165627926839      0.06585261199415     -0.29756948071553
  C   -0.30379159747470     -0.24367675796181      1.93359637646987
  N   -0.21857090867346     -0.39159389447868      3.09952827307183
  N   -1.73885930750992     -0.14214551568783     -0.02648037710950
  H   -2.48173063707173     -0.07349981948049      0.65332582008814
  H   -1.85635403596843      0.52613479229817     -0.78085494143076
  N   0.39959507827585      0.18383673118588     -1.67810315985025
  H   1.25098033712833      0.22870091118599     -2.21837647724089
  H   -0.21314560645211     -0.54844473627326     -2.02184841846054
  C   1.94401699435111      0.17848336420306      0.21413583074510
  N   3.05521138888285      0.28255487070521      0.59279577937668
