12
Coordinates from ORCA-job run
  C   0.62437500059956     -0.11114222163937     -0.28267718324785
  C   -0.47572431656481      0.04235834980024      0.51494256190780
  C   1.87485115703792     -0.53745871686961      0.24450876939794
  N   2.92794153970682     -0.89465675374637      0.63477166919253
  N   0.48344475956959      0.06746748534507     -1.66619239945979
  H   -0.00837723221673      0.92794049045897     -1.88367041704076
  H   1.35591358870773      0.00842265461973     -2.17007080172813
  N   -1.68777159169566      0.43052823253548     -0.06529171634725
  H   -2.47381724621337      0.37803435830247      0.56570250638238
  H   -1.86644329610654     -0.07452884788773     -0.92709720686627
  C   -0.39120049983000     -0.07661718071162      1.93053499457376
  N   -0.36319186299452     -0.16134785020725      3.10553922323565
