12
Coordinates from ORCA-job run
  C   0.58631518575835     -0.11199484973630     -0.25725307361626
  C   -0.52956268388936      0.06677389699602      0.51229980740702
  C   1.84069205881251     -0.46934676633909      0.31633374381188
  N   2.91026888548255     -0.74151090603320      0.73106377634589
  N   0.44914923957961      0.08551926077830     -1.66145338165775
  H   1.30009815973988      0.45594334053719     -2.06438424320893
  H   0.21784096085305     -0.78076403231199     -2.13651112866619
  N   -1.75688387082542      0.35214397592894     -0.04380605839984
  H   -1.66641345330355      0.73713649406806     -0.97673373802624
  H   -2.40140044036896      0.84242501661247      0.55728884170415
  C   -0.48205130538816     -0.14349070413036      1.92760242625624
  N   -0.46705273645050     -0.28983472637006      3.09555302805003
