12
Coordinates from ORCA-job run
  C   -0.52398341621166      0.01686020061265      0.52091827292324
  C   0.58087863102771     -0.10438739092830     -0.27530592657559
  C   -0.46977126738553     -0.34089730261626      1.90570500675884
  N   -0.46078305692153     -0.64502796116113      3.04292407442285
  N   -1.69327650233834      0.57912378561473      0.05666002333971
  H   -2.53259601143213      0.28764981645689      0.53389130909423
  H   -1.74810791695292      0.55006167538663     -0.95482882997633
  N   0.45539211133226      0.30539470689604     -1.63306756352393
  H   0.68090043333083      1.28819285748510     -1.74699568799660
  H   1.05842695022124     -0.23617239475049     -2.23834150003901
  C   1.80864320773381     -0.62770561318057      0.22310647807664
  N   2.84527683759627     -1.07209237981529      0.56633434349594
