12
Coordinates from ORCA-job run
  C   0.47925786060719      0.00787394073520     -0.49223600621386
  C   -0.54024452476154      0.03997020038154      0.42367457226997
  C   0.58771579452323     -1.14533592102460     -1.32882009160470
  N   0.66673699324639     -2.12870213670697     -1.97325721585577
  N   1.34929258972406      1.06562891347460     -0.77379800884080
  H   1.27956937275738      1.82929511646336     -0.11364287007824
  H   2.30842154388492      0.77097765369832     -0.89584231179436
  N   -1.60613548496920     -0.86252832484320      0.48157071086092
  H   -1.84760517611620     -1.13593192154577      1.42409689324087
  H   -1.48221055549241     -1.66924268009554     -0.11665376365078
  C   -0.60106745830300      1.15619331040362      1.31340808440379
  N   -0.59373095510080      2.07380184905943      2.05250000726295
