12
Coordinates from ORCA-job run
  C   0.66172939706698     -0.04559945336546     -0.32868067524259
  C   -0.44002005649728      0.06291676791904      0.47368957588090
  C   1.97787609024117     -0.04711055792965      0.23467419724268
  N   3.07110202557353     -0.03602592913756      0.67103989256091
  N   0.55381954629466     -0.26155061838135     -1.68463254720742
  H   1.33461825766514      0.05592935015138     -2.23832983457019
  H   -0.35708808331096      0.00718440843491     -2.03765749172287
  N   -1.71560350629291      0.02117681961586     -0.15993255691468
  H   -2.38697318266088      0.59743849040556      0.33095291456640
  H   -2.07584129088507     -0.92662857583796     -0.20232179346664
  C   -0.32478969635786      0.21481182990705      1.88569607094163
  N   -0.29782950083653      0.35945746821818      3.05550224793187
