12
Coordinates from ORCA-job run
  C   0.63629757760723     -0.11954967182253     -0.25594136572720
  C   -0.49905512467909      0.03722521508050      0.49001553134872
  C   1.83929688887158     -0.62185941594555      0.31350097263303
  N   2.85487145806774     -1.04033433574264      0.74059723992700
  N   0.57834901036622      0.12938233267717     -1.63364428424285
  H   0.11398244824023      1.00872372952683     -1.83522476517969
  H   1.47637046842602      0.07572429513986     -2.09096241808277
  N   -1.66360519494911      0.49754892203729     -0.13494193440343
  H   -2.48100844089646      0.45899707427533      0.45588870740459
  H   -1.82204132218533      0.02679383258040     -1.01991847775496
  C   -0.49640881801862     -0.15427460766272      1.89995516831164
  N   -0.53804895085040     -0.29937737014394      3.06867562576592
