12
Coordinates from ORCA-job run
  C   -0.50145500615133      0.04449364901385      0.49409477029297
  C   0.62856555575290     -0.13118863236255     -0.25554952602688
  C   -0.49245460804351     -0.13308328353871      1.90651262484454
  N   -0.52870231100177     -0.27048695668472      3.07620270114688
  N   -1.66328188702157      0.51787613999710     -0.12031940647274
  H   -1.80487512337322      0.08863927526325     -1.02883032970247
  H   -2.48659700413973      0.44797117157721      0.45932134138511
  N   0.56183468764681      0.11271370769257     -1.63648666003443
  H   1.44674236890522     -0.00739128714461     -2.10688247476944
  H   0.16452871684007      1.02471893830692     -1.83684570907108
  C   1.83078642995712     -0.63648534852993      0.31210381134426
  N   2.84590818062902     -1.06077737359038      0.73467885706327
