12
Coordinates from ORCA-job run
  C   -0.48687840221613      0.10919268804976      0.55856268269618
  C   0.57396301445909     -0.12942465299872     -0.27522337882217
  C   -0.48253615549819     -0.35915821793434      1.91253547254562
  N   -0.50946705724562     -0.76062276932120      3.01845664582713
  N   -1.56302021367954      0.86860465975323      0.17092535031773
  H   -2.46134711141625      0.60032195276908      0.54154580273351
  H   -1.53367784009915      1.10729614086252     -0.81062399285121
  N   0.43935875217021      0.32685828586383     -1.62951956672606
  H   1.31479687031991      0.68737120854816     -1.99170144246348
  H   0.16348162381002     -0.44543961336415     -2.23065111749623
  C   1.76965884917816     -0.74847947727483      0.19381461807384
  N   2.77466767021748     -1.25752020495334      0.53987892616515
