12
Coordinates from ORCA-job run
  C   0.58840493733808     -0.25128621143807     -0.29004854243501
  C   -0.45431515186719      0.13045039290884      0.50849898740750
  C   1.75353091648765     -0.86391789557221      0.25073100143376
  N   2.73738423093509     -1.36697164675566      0.65984924050672
  N   0.55542258732795      0.06597969324900     -1.65159354653610
  H   -0.36121772618332     -0.10285026929079     -2.05217342233275
  H   1.28378812112708     -0.38031355070144     -2.18920103195623
  N   -1.54991647669941      0.77942723811017     -0.07883223846821
  H   -2.23735224354691      1.09196730742709      0.59064253058085
  H   -1.25353252760566      1.54012062336704     -0.68130499721587
  C   -0.49165339938659     -0.19461099701270      1.89266100001248
  N   -0.56954326792677     -0.44899468429128      3.04077101900286
