12
Coordinates from ORCA-job run
  C   -0.47869502928714      0.02899557434279      0.51300631953833
  C   0.63396191160484     -0.05447631613333     -0.27746837831520
  C   -0.38277354965835      0.05951390660168      1.93265279206411
  N   -0.34857108799226      0.08698562041967      3.11023956625355
  N   -1.73019114073828      0.19736287230740     -0.08868684104129
  H   -2.50336214035092      0.10506618819839      0.55339451238423
  H   -1.84033703825735     -0.40870626319702     -0.89509437537019
  N   0.47485716244375     -0.03254731814954     -1.67017741948951
  H   1.34937357588179     -0.02727275727874     -2.17416207762916
  H   -0.12373735575742      0.73146592378693     -1.96637513888749
  C   1.92863761712506     -0.25760373369309      0.27558614712959
  N   3.01983707498626     -0.42778369720513      0.68708489336303
