12
Coordinates from ORCA-job run
  C   0.57865008720882      0.02474293617427     -0.29953254173202
  C   -0.49344096175059      0.01974468889579      0.54901511112954
  C   1.90719117215266      0.22458981332353      0.17424310759978
  N   3.02643348414278      0.40516938575138      0.49762016796273
  N   0.31595959544728     -0.16889792659532     -1.68488118507346
  H   0.31504408803882     -1.15374153124228     -1.92921389832483
  H   0.99814365068561      0.30700012640426     -2.26048079579475
  N   -1.77136698789373     -0.23361393010506      0.09880597352722
  H   -1.86158174274648     -0.05593064552891     -0.89476571948899
  H   -2.51267570377024      0.15018560406635      0.66475973993891
  C   -0.30984953416521      0.17082201764441      1.96021963176244
  N   -0.19250714734972      0.31092946121159      3.12321040849344
