12
Coordinates from ORCA-job run
  C   -0.52529735941274     -0.01541971183183      0.44220707693091
  C   0.58406359846979     -0.01223779587272     -0.36312639701185
  C   -0.88261081708457      1.20697406710807      1.09001260570251
  N   -1.16722179835623      2.24021024482449      1.57972787741076
  N   -1.26879717982893     -1.14616786080977      0.79276212712392
  H   -1.02205742137457     -1.96964542948963      0.25889522449092
  H   -2.26684703179546     -0.98619811563738      0.78281118395774
  N   1.51902341120350      1.02335783123959     -0.45078237271625
  H   1.82079018173469      1.20888865540036     -1.39762662041043
  H   1.22228350967293      1.87129257343848      0.01504151076331
  C   0.89355272012266     -1.21192408129478     -1.07490890674966
  N   1.09411818664893     -2.20713037707488     -1.67301330949186
