12
Coordinates from ORCA-job run
  C   -0.46025939660457      0.07028632456349      0.51690584613094
  C   0.63400074659961     -0.05947133299277     -0.29279543300156
  C   -0.33158396421060      0.24951193958910      1.92219594635014
  N   -0.27350383561192      0.40637954672896      3.08877463923098
  N   -1.73163626768575      0.12428543902077     -0.07106263538389
  H   -2.48459474267084      0.13478914508409      0.60101681959165
  H   -1.85858823502281     -0.61627144724581     -0.75314889334128
  N   0.44597446669112     -0.19537209830307     -1.67256327670110
  H   -0.24372340645016      0.46203695127697     -2.02142703712507
  H   1.30291124778024     -0.15019365797973     -2.20374556823021
  C   1.94823608148308     -0.16637766902703      0.24243326589607
  N   3.05276730570260     -0.25960314071497      0.64241632658334
