12
Coordinates from ORCA-job run
  C   0.29301453162933      0.01675816219365     -0.67946460104090
  C   -0.45222048891749      0.01632905355293      0.46680640762728
  C   -0.33719542353458      0.12210885698274     -1.96036873676945
  N   -0.82563203181678      0.22691270746973     -3.02636125951222
  N   1.65536015037670     -0.18693981901705     -0.65844690279479
  H   2.05126712492392      0.01050494888179      0.25306389348621
  H   2.16429532894263      0.20604284191257     -1.43529146150432
  N   0.24592042181467     -0.12910378742175      1.69963854077416
  H   0.33727631556917     -1.10514199994564      1.96166341513767
  H   -0.22477849576588      0.36198903332083      2.44844846209370
  C   -1.86924222385933      0.16163767393467      0.43927859008845
  N   -3.03906520936237      0.29890232813553      0.49103365241420
