12
Coordinates from ORCA-job run
  C   -0.42421633462966      0.16696099641510      0.52866955622324
  C   0.59815731796831     -0.18853526619021     -0.30717077755197
  C   -0.25688397926834      0.19154292932252      1.94138087593802
  N   -0.16206242525166      0.21869529989308      3.11572646652991
  N   -1.69023549691810      0.41313977568684     -0.01711480667713
  H   -1.63308304650343      1.00520531031564     -0.83927725582262
  H   -2.35364733061814      0.77573318823572      0.65161496578557
  N   0.36000849008425     -0.23501794323787     -1.68631902782782
  H   1.13248345257522     -0.61003017943791     -2.21662969483905
  H   -0.50536734674943     -0.72028934263250     -1.89919059923881
  C   1.91553941374184     -0.41184638669207      0.18169981635313
  N   3.01930728556914     -0.60455838167833      0.54661048112752
