12
Coordinates from ORCA-job run
  C   0.66670854312783     -0.04284882767557     -0.31533015110797
  C   -0.45280432728237     -0.00409499280331      0.46853344105029
  C   1.94786358090637     -0.33248660303257      0.25313811125650
  N   3.01761718639552     -0.54926442779636      0.69414679005890
  N   0.59634606793928      0.09020419714378     -1.68535236012337
  H   1.43358481858396      0.43523440018474     -2.12948081945512
  H   -0.25782505811460      0.55302769421953     -1.97380040533684
  N   -1.69417406062819      0.25547922817259     -0.17831220883972
  H   -2.33468904943720      0.74220768324769      0.43491483739074
  H   -2.13541609677838     -0.60225967108673     -0.49339737581386
  C   -0.38734518351867     -0.20467309634369      1.87746507204508
  N   -0.39986642119357     -0.34052558423011      3.04847506887536
