12
Coordinates from ORCA-job run
  C   0.63699614211164     -0.04866434211782     -0.27819181975714
  C   -0.47397806868428      0.09070203946752      0.50687703357362
  C   1.94821958609989     -0.01900078750024      0.27293838025008
  N   3.05145813299235     -0.00762283285383      0.68706619239649
  N   0.46965860499942     -0.32646521140784     -1.64134371823979
  H   1.33414393966673     -0.32050302114015     -2.16233424024171
  H   -0.22028822877821      0.28556714027887     -2.06457326581700
  N   -1.73856070469447      0.01121592416910     -0.08769951222177
  H   -1.79770013142090     -0.76871039777463     -0.73417557658084
  H   -2.49760889555255     -0.00118873617124      0.57736831790864
  C   -0.37455062910359      0.41617232996762      1.88843841500184
  N   -0.33878974763605      0.68749789508264      3.03462979372758
