12
Coordinates from ORCA-job run
  C   0.64123277371664      0.06577730369767     -0.26512275415686
  C   -0.48137735275955     -0.13829267035680      0.48861886343958
  C   1.94515161002575     -0.05915590290534      0.28999129595769
  N   3.04307734680280     -0.14511779830116      0.70942468910258
  N   0.49576462174211      0.50534860403097     -1.58753954349839
  H   -0.20416602830669     -0.03518458659341     -2.08518810325375
  H   1.36553913905831      0.53859738620487     -2.09860499343220
  N   -1.73704822999718      0.04037556958939     -0.10347222543163
  H   -1.77172131733323      0.89272440902519     -0.65302368196625
  H   -2.50319709972409     -0.00861109114983      0.55168805292209
  C   -0.40492698083964     -0.62549626612155      1.82326332429529
  N   -0.38832848238522     -1.02996495712000      2.92996507602185
