12
Coordinates from ORCA-job run
  C   -0.50131955203089     -0.14538806101767      0.39025076696304
  C   0.69009166368098      0.00460722656464     -0.26350063234316
  C   -0.61663413523286     -0.94808428421853      1.56147883341009
  N   -0.78480929577901     -1.61402098075442      2.51969423103124
  N   -1.63343768506066      0.52495580749723     -0.15305776607990
  H   -1.72109056472171      1.46611878142536      0.21584737889394
  H   -2.48874296560530      0.02052304462146      0.03991371574238
  N   0.81405762887647      0.82766903057908     -1.36220757482683
  H   -0.08003032650143      0.99282777835226     -1.80984601746482
  H   1.56497031010324      0.59454260582860     -1.99389483148465
  C   1.88158931344450     -0.60875659205251      0.23847299115555
  N   2.87435560882669     -1.11599435682550      0.61684890500310
