12
Coordinates from ORCA-job run
  C   0.64180012958938     -0.06048053993811     -0.26714592041360
  C   -0.48751755142096      0.01167980681320      0.50053842219461
  C   1.90449491264660     -0.39873975038873      0.29433819478397
  N   2.96845213610738     -0.68197278937950      0.71467464271167
  N   0.52880193317326      0.10139246833806     -1.65364349899402
  H   1.41816634386760      0.13734830832526     -2.12963210175106
  H   -0.05075607563942      0.89985115372694     -1.89093524770736
  N   -1.70913482054686      0.30448010454066     -0.11829369334655
  H   -1.84017461430302     -0.24501853040564     -0.96134103738444
  H   -2.50313923511654      0.22500121378404      0.49986268161192
  C   -0.43412984625741     -0.10377564929389      1.91757542552344
  N   -0.43686331209999     -0.18876579612231      3.09300213277142
