12
Coordinates from ORCA-job run
  C   -0.50917974335181      0.05840528700131      0.46604498569295
  C   0.42623168611864      0.16060159368660     -0.52444698041658
  C   -1.65726664727523      0.90526904614008      0.45352460707072
  N   -2.65143451030107      1.53489051262055      0.48456252571614
  N   -0.50122947204134     -0.93588076095693      1.45235825187676
  H   0.41881406839762     -1.30324988758964      1.65279342502069
  H   -0.94233799716544     -0.63299908560856      2.30771670639020
  N   1.56458686181494     -0.65953701222249     -0.61827296642130
  H   1.86013705982741     -0.75397617185054     -1.58387618832048
  H   1.40625620902793     -1.58604971775161     -0.24681480199027
  C   0.31569462928658      1.19961109895634     -1.49564747340088
  N   0.26872785566177      2.01391509757490     -2.34594209121795
