12
Coordinates from ORCA-job run
  C   -0.57457968743107      0.00478002386485      0.41336708168825
  C   0.53112699417204      0.05518151187078     -0.38886290703563
  C   -0.94447062557767      1.17803554127601      1.15478536910863
  N   -1.30120788941813      2.08601839161178      1.81211427620102
  N   -1.44215956492388     -1.05870267684149      0.51261886579972
  H   -1.10458436648095     -1.93819971559222      0.14774845837177
  H   -1.94486257904860     -1.13724153282581      1.38236554625477
  N   1.26074123985772      1.26864511820631     -0.51539659192421
  H   2.24771200773038      1.12262731319500     -0.34493940373610
  H   1.14864359777296      1.67606509615069     -1.43571335182773
  C   0.90865745680903     -1.13262589482945     -1.08960345107761
  N   1.21498341653818     -2.12558317608647     -1.64748389182289
