13

C	-0.432559	-0.155386	-1.441872
C	0.0	0.0	0.0
Cl	-0.067248	1.426978	-2.338742
H	1.098141	0.0	0.0
H	0.208302	-0.884456	-1.939581
H	-0.434511	0.916144	0.420215
N	-1.806328	-0.52683	-1.5989
H	-2.394753	0.181013	-1.173014
H	-2.053121	-0.600414	-2.577597
N	-0.380585	-1.180078	0.794068
H	-1.134943	-1.686226	0.348298
H	0.437928	-1.775054	0.815965
F	2.701284	0.0	0.0
