13

C	-0.517423	0.081226	-1.415114
C	0.0	0.0	0.0
Cl	-0.201503	1.678723	-2.174749
H	1.093117	0.0	0.0
H	0.071863	-0.618087	-2.020458
H	-0.297992	-1.011263	0.347644
N	-1.957353	-0.148389	-1.491609
H	-2.240723	-0.206649	-2.464673
H	-2.1335	-1.052084	-1.064857
N	-0.500732	1.06821	0.854828
H	0.215756	1.258624	1.542157
H	-1.355622	0.80812	1.329036
F	2.716909	0.0	0.0
