13

C	-0.45411	-0.059778	-1.440569
C	0.0	0.0	0.0
Cl	-0.012408	1.537967	-2.264389
H	1.091347	0.0	0.0
H	0.132491	-0.802468	-1.983207
H	-0.422867	0.893667	0.477838
N	-1.853899	-0.340469	-1.58817
H	-2.38204	0.383078	-1.109573
H	-2.120206	-0.332419	-2.564996
N	-0.393061	-1.220461	0.723764
H	0.417989	-1.82648	0.71333
H	-1.159173	-1.682942	0.250688
F	2.70155	0.0	0.0
