13

C	-0.589436	-0.011098	-1.388628
C	0.0	0.0	0.0
Cl	0.038935	1.489795	-2.312515
H	1.096188	0.0	0.0
H	-0.185146	-0.832824	-1.978701
H	-0.364219	-0.924196	0.467372
N	-2.010496	-0.035093	-1.350768
H	-2.288455	0.669732	-0.6741
H	-2.412048	0.179302	-2.254469
N	-0.577386	1.147111	0.74591
H	-0.474144	0.939359	1.732729
H	0.053781	1.923129	0.572282
F	2.734811	0.0	0.0
