17

C	0.0	0.0	0.0
C	-0.399072	0.204102	-1.447745
F	1.373083	0.0	0.0
H	0.068148	-0.634076	-1.976736
H	0.107055	1.110979	-1.784305
N	-0.309212	1.251975	0.840769
O	-0.228032	1.122052	2.059475
O	-0.501885	2.311944	0.253624
C	-0.582939	-1.200583	0.679855
H	-0.132584	-1.33023	1.662789
H	-1.663174	-1.072806	0.78715
H	-0.389435	-2.083245	0.067389
C	-1.886764	0.26602	-1.734769
H	-2.421613	-0.622999	-1.410811
H	-2.374662	1.093301	-1.225546
H	-2.057135	0.38417	-2.80717
Cl	-4.735174	0.0	0.0
