16

C	0.0	0.0	0.0
C	-0.497361	-0.12884	-1.442293
F	1.393997	0.0	0.0
H	-1.554011	-0.404163	-1.403532
H	-0.332433	0.98007	0.355368
C	-0.470867	-1.090223	0.928972
H	-0.148848	-2.067302	0.566082
H	-0.051931	-0.919983	1.924228
H	-1.56011	-1.052535	0.972637
N	0.237728	-1.280167	-2.068652
O	1.281128	-1.037139	-2.668391
O	-0.234031	-2.404013	-1.898998
N	-0.316474	1.031045	-2.26959
H	0.55435	1.494622	-2.042292
H	-1.094036	1.656654	-2.09825
Br	-3.800819	0.0	0.0
