16

C	0.0	0.0	0.0
C	-0.51408	-0.125201	-1.434317
F	1.394083	0.0	0.0
H	-1.574805	-0.385715	-1.380638
H	-0.334443	0.977293	0.359661
C	-0.456527	-1.094404	0.93503
H	-0.050071	-0.903769	1.931315
H	-0.096105	-2.062844	0.586084
H	-1.546149	-1.102382	0.976464
N	0.202067	-1.28764	-2.072479
O	1.236495	-1.052164	-2.688301
O	-0.274517	-2.408808	-1.894208
N	-0.330099	1.030055	-2.266224
H	0.552276	1.480122	-2.057181
H	-1.09397	1.669449	-2.086953
Br	-3.814501	0.0	0.0
