16

C	0.0	0.0	0.0
C	-0.392651	-0.184143	-1.491011
F	1.397349	0.0	0.0
H	0.479907	-0.672498	-1.93917
H	-0.327584	0.970694	0.37832
C	-0.506027	-1.120212	0.870393
H	-0.155099	-2.0862	0.496153
H	-0.12903	-0.988143	1.88736
H	-1.597729	-1.102818	0.887188
N	-0.390558	1.202144	-2.144143
O	0.555055	1.932481	-1.844176
O	-1.288598	1.498069	-2.919126
N	-1.570192	-0.874823	-1.871641
H	-2.404928	-0.541385	-1.379268
H	-1.462429	-1.86326	-1.691707
Br	-4.216958	0.0	0.0
