14

C	-0.524149	0.08684	-1.423399
C	0.0	0.0	0.0
Cl	-0.011373	1.614289	-2.212493
H	1.092496	0.0	0.0
H	-0.337031	-0.983701	0.376715
C	0.054242	-1.009384	-2.227287
N	0.405105	-1.947275	-2.84224
N	-1.981117	0.053547	-1.471644
H	-2.277793	-0.815294	-1.037534
H	-2.29042	0.039779	-2.439
N	-0.464999	1.124324	0.794685
H	0.300746	1.393146	1.395524
H	-1.272636	0.899644	1.355963
F	2.64561	0.0	0.0
