14

C	-0.619368	0.097604	-1.396607
C	0.0	0.0	0.0
Cl	0.232345	1.406338	-2.306147
H	1.091825	0.0	0.0
H	-0.393677	-0.924	0.44465
C	-0.427047	-1.154993	-2.135387
N	-0.336113	-2.186105	-2.690225
N	-2.037633	0.427527	-1.408545
H	-2.112815	1.128122	-0.669411
H	-2.539769	-0.398543	-1.090884
N	-0.468771	1.176993	0.767036
H	0.357179	1.757165	0.88171
H	-0.730765	0.877433	1.698351
F	2.653284	0.0	0.0
