14

C	-0.10912	0.044794	-1.534162
C	0.0	0.0	0.0
Cl	-0.133752	-1.792041	-2.122656
H	1.102201	0.0	0.0
H	-0.486976	-0.880363	0.411915
C	-1.367475	0.557671	-2.087691
N	-2.378032	0.970479	-2.520584
N	1.008793	0.744064	-1.985531
H	1.860254	0.488681	-1.422798
H	1.131846	0.745745	-2.98714
N	-0.5693	1.234022	0.564476
H	-0.641814	1.101975	1.567417
H	0.135089	1.953144	0.430242
F	2.755437	0.0	0.0
