14

C	-0.166755	-0.009217	-1.528479
C	0.0	0.0	0.0
Cl	-0.009914	-1.730344	-2.090545
H	1.099051	0.0	0.0
H	-0.475888	-0.858971	0.482511
C	-1.497921	0.445725	-1.953403
N	-2.582238	0.810386	-2.223623
N	0.881443	0.765802	-2.157947
H	0.672667	1.73412	-1.926468
H	1.731851	0.528748	-1.609595
N	-0.415787	1.313684	0.486652
H	-1.314861	1.284398	0.948055
H	0.282818	1.645689	1.138999
F	2.695838	0.0	0.0
