19
Coordinates from ORCA-job run
  C   -0.83751019864208     -0.35409376524840      0.28972309195082
  C   0.68915953932201     -0.44587861597106      0.17061460606321
  Cl  -1.38513604368960     -1.21404551062918      1.75557445370633
  H   0.93110805623601     -1.50285878185280      0.32075886516101
  C   -1.41739535635989      1.04074239623592      0.29958235690444
  H   -2.50567637638076      0.99566940424351      0.28995911421022
  H   -1.08978596108026      1.60646085092648     -0.57203571312448
  H   -1.09852360356467      1.55214027946474      1.20742004287376
  N   -1.39537965081433     -1.14345494205237     -0.89578465141525
  O   -2.02198501132046     -0.51512824273185     -1.74494696100138
  O   -1.10665957514616     -2.33222731195786     -0.95085526334699
  C   1.38583080548338      0.38482281690131      1.24492403261237
  H   1.26701461070321      1.45486700933925      1.05762131429615
  H   1.01004175794519      0.16043704285724      2.24435402178321
  H   2.45610981200102      0.16619051104748      1.23346607265630
  C   1.17194997989313     -0.04047596547278     -1.22347154619312
  H   2.26134508716066     -0.11546081756735     -1.25678354758145
  H   0.90605340815443      0.99196879099684     -1.46282283571555
  H   0.77743872009917     -0.69067514852911     -2.00629745383959
