19
Coordinates from ORCA-job run
  C   -0.85974738947688      0.01439631044409      0.41136638423168
  C   0.65989245780461      0.27448424785852      0.38971459945972
  Cl  -1.40728094602239     -0.10674627075001      2.09922333714291
  H   0.79676471851281      1.09780421800701      1.10078636045786
  C   -1.69821016131671      1.06527088268010     -0.28749739652648
  H   -1.46503215334349      1.10323416638772     -1.34877201856761
  H   -2.75838696698961      0.83735819176822     -0.16621002002075
  H   -1.49843965613659      2.03686935175534      0.16784219141394
  N   -1.10160047521839     -1.33637068589773     -0.26776203365140
  O   -1.10281468987618     -1.29851723523498     -1.49767030816665
  O   -1.19952646692172     -2.34688162615792      0.41366952639892
  C   1.17679234435360      0.73393272717371     -0.97380821792745
  H   0.73186114114761      1.67843722457249     -1.29003370903704
  H   2.25676097318323      0.88633349769622     -0.90635471530804
  H   0.98939649838315     -0.01403233348585     -1.74604426276846
  C   1.45849307414578     -0.92988441572376      0.88650570092636
  H   1.44973333027552     -1.73612038796556      0.14816135577046
  H   1.07175082340652     -1.32387683542414      1.82646171228371
  H   2.49859354408913     -0.63469102770347      1.04142151388832
