19
Coordinates from ORCA-job run
  C   -0.79375319494348      0.00759329807306      0.29351536374106
  C   0.63748017051659     -0.06008485173482     -0.26034772156940
  Cl  -0.80737274184149      0.46312470401745      2.00583585125638
  H   0.50664624283246     -0.33560878232790     -1.31320473594681
  C   -1.72339433759390      0.93121654848158     -0.47314881917172
  H   -1.42917173212033      1.96765238196766     -0.31462996602677
  H   -1.68728471579952      0.69605891754572     -1.53692627631208
  H   -2.74737361462752      0.81065437944295     -0.11431877222855
  N   -1.36144669760005     -1.41175835634125      0.15618932981712
  O   -1.50662723300629     -1.77202339612949     -1.00997657881794
  O   -1.58878542664971     -2.08639401526622      1.14912689733256
  C   1.47118041603244     -1.14506189541391      0.41746524179637
  H   1.03906942232880     -2.13941319472735      0.28759968693856
  H   2.47062213150251     -1.16221673235817     -0.02314719170918
  H   1.57536016190677     -0.95301802112755      1.48723690373627
  C   1.34062666269890      1.29319214228493     -0.19618803834005
  H   2.32063730980535      1.21030651931296     -0.67201054438774
  H   0.78834619372665      2.07574333504587     -0.71927901202023
  H   1.49524098283182      1.60903701925449      0.83720838191214
