19
Coordinates from ORCA-job run
  C   -0.83881623904508     -0.34726964688554      0.29354483234959
  C   0.69125386655910     -0.42431346300182      0.21248433343014
  Cl  -1.40630988172367     -1.12224577875698      1.79873475523788
  H   0.94334766378815     -1.46624697625417      0.43418345931830
  C   -1.43684407399562      1.03697301025194      0.20448427236912
  H   -2.52410392852018      0.97572111553109      0.17815995273570
  H   -1.10063778467069      1.55135089071198     -0.69521548579331
  H   -1.14214228310648      1.60902666375250      1.08382702544121
  N   -1.36061319992988     -1.21697319319619     -0.85184317163272
  O   -1.05559998150832     -2.40249832776945     -0.82643643950802
  O   -1.97712691268091     -0.65122566484507     -1.75077073146490
  C   1.35354986517241      0.48213012314324      1.24652391720899
  H   2.42631400532931      0.27737141551795      1.27232376585442
  H   1.22653692831491      1.53641265909349      0.98851156133036
  H   0.95792668215688      0.31703770379620      2.24985471402280
  C   1.19895973642455     -0.10050609956622     -1.19393025802251
  H   0.83416479223762     -0.80745445162002     -1.94117607928012
  H   0.92013861970714      0.90896366104573     -1.50578335849397
  H   2.29000212549076     -0.15625364094863     -1.19847706510298
