19

C	0.0	0.0	0.0
C	-0.562132	-0.222558	-1.427305
F	1.364768	0.0	0.0
H	-1.332837	0.533216	-1.539593
C	-0.447376	1.318616	0.570031
H	0.04642	1.491223	1.526821
H	-1.536215	1.245169	0.654827
H	-0.14866	2.091011	-0.143456
N	-0.331494	-1.133916	0.963432
O	-0.062655	-2.270661	0.579299
O	-0.692123	-0.844893	2.095995
C	-1.179436	-1.546627	-1.820978
H	-2.041843	-1.634401	-1.159118
H	-0.494214	-2.384153	-1.741393
H	-1.534236	-1.458494	-2.853664
N	0.558634	0.141689	-2.365373
O	0.685972	1.335381	-2.647075
O	1.288247	-0.753076	-2.788632
F	-2.698636	0.0	0.0
