19

C	0.0	0.0	0.0
C	-0.5684	-0.373693	-1.391138
F	1.364667	0.0	0.0
H	-1.351452	0.355068	-1.566688
C	-0.45182	1.365502	0.439311
H	-0.159866	2.064059	-0.348516
H	0.050233	1.634106	1.371429
H	-1.539562	1.298732	0.537527
N	-0.332328	-1.036655	1.066078
O	-0.834837	-0.670789	2.118945
O	0.058308	-2.179281	0.831417
C	-1.185519	-1.736059	-1.624575
H	-2.05659	-1.732711	-0.964053
H	-0.506721	-2.560929	-1.436553
H	-1.528232	-1.776813	-2.662338
N	0.537362	-0.098703	-2.373881
O	1.230802	-1.035385	-2.760569
O	0.688485	1.073812	-2.728399
F	-2.722267	0.0	0.0
