19

C	0.0	0.0	0.0
C	-0.576639	-0.279453	-1.407352
F	1.36476	0.0	0.0
H	-1.405112	0.418396	-1.501105
C	-0.453649	1.334121	0.528464
H	-1.541493	1.252987	0.621966
H	-0.168325	2.084722	-0.212936
H	0.044389	1.544392	1.475703
N	-0.327286	-1.102207	1.005445
O	0.004325	-2.242147	0.68354
O	-0.757849	-0.783293	2.104639
C	-1.115406	-1.648648	-1.757673
H	-1.972818	-1.775551	-1.098036
H	-1.472976	-1.614968	-2.791655
H	-0.384178	-2.443868	-1.653719
N	0.500623	0.129851	-2.374503
O	1.242571	-0.737834	-2.832657
O	0.586836	1.329652	-2.64902
F	-2.72016	0.0	0.0
