19

C	0.0	0.0	0.0
C	-0.351877	0.091795	-1.498403
F	1.369091	0.0	0.0
H	0.375151	-0.570795	-1.977339
C	-0.445662	1.091824	0.931913
H	-1.54076	1.054503	0.920362
H	-0.043096	2.042227	0.575966
H	-0.031933	0.885795	1.920179
N	-0.308004	-1.382367	0.566348
O	0.110963	-2.321869	-0.107642
O	-0.797849	-1.476711	1.682881
C	-0.172364	1.518076	-1.97849
H	-0.189884	1.558024	-3.067466
H	0.786325	1.905342	-1.626905
H	-0.988335	2.130333	-1.59934
N	-1.668179	-0.45598	-2.020317
O	-2.370585	0.307366	-2.675073
O	-1.813227	-1.66963	-1.973369
F	-2.576194	0.0	0.0
