15

C	-0.352023	0.052363	-1.461928
C	0.0	0.0	0.0
Br	-2.320831	0.272441	-1.808569
H	1.098137	0.0	0.0
H	0.08694	0.95236	-1.889886
C	0.061467	-1.125023	-2.216057
N	0.361479	-2.083254	-2.826151
C	-0.520118	-1.227312	0.721323
H	-1.615939	-1.229004	0.801005
H	-0.095572	-1.241782	1.728864
H	-0.206618	-2.147615	0.220383
N	-0.377712	1.275257	0.609533
H	-1.23952	1.183255	1.137404
H	0.371561	1.5257	1.245658
F	2.606362	0.0	0.0
