15

C	-0.433117	-0.065797	-1.457377
C	0.0	0.0	0.0
Br	0.145401	1.522063	-2.461485
H	1.10197	0.0	0.0
H	0.088609	-0.893459	-1.942875
C	-1.874183	-0.208118	-1.644818
N	-3.028019	-0.386537	-1.779537
C	-0.482643	-1.252602	0.713216
H	-0.010522	-1.289692	1.699579
H	-0.167057	-2.15254	0.177769
H	-1.572823	-1.271904	0.835335
N	-0.584993	1.196471	0.628937
H	-0.626992	1.02368	1.628666
H	0.09938	1.939641	0.513271
F	2.663341	0.0	0.0
