15

C	-0.182732	-0.011723	-1.502362
C	0.0	0.0	0.0
Br	-2.062994	0.387482	-2.131083
H	1.098431	0.0	0.0
H	0.407211	0.799393	-1.931128
C	0.194037	-1.269745	-2.135449
N	0.456522	-2.295805	-2.643549
C	-0.62936	-1.175166	0.711165
H	-1.725365	-1.151587	0.653124
H	-0.342484	-1.125561	1.762669
H	-0.276239	-2.125649	0.303212
N	-0.381503	1.267537	0.60941
H	0.38458	1.918077	0.471783
H	-1.223322	1.649187	0.188192
F	2.599335	0.0	0.0
