15

C	-0.589762	0.030931	-1.408655
C	0.0	0.0	0.0
Br	-0.180414	-1.580542	-2.470244
H	1.100314	0.0	0.0
H	-1.683804	0.065762	-1.363735
C	-0.134888	1.188693	-2.175576
N	0.167825	2.118311	-2.827478
C	-0.519678	-1.16794	0.812869
H	-0.045781	-1.133984	1.797902
H	-1.612068	-1.128954	0.945689
H	-0.259275	-2.124936	0.358457
N	-0.422217	1.295554	0.578187
H	0.439576	1.784195	0.807503
H	-0.9376	1.148487	1.440733
F	2.641052	0.0	0.0
