10
Coordinates from ORCA-job run
  C   0.29259229100128     -0.00938903675258      0.37764977920379
  C   -1.14336288634697      0.19102945274298     -0.13720198173040
  H   0.30878340019624      0.11323336453287      1.46673145362651
  H   -1.17572739139825      0.07693916796551     -1.22056847339848
  H   -1.49101317640738      1.19072745400118      0.12542791652905
  H   -1.80352941148070     -0.54799935501013      0.31800227559739
  C   1.20358396547292      0.99085914357219     -0.19437755098693
  N   1.90115587985584      1.81535162297750     -0.65351995692673
  C   0.77839960905906     -1.36282512557738      0.07780615633706
  N   1.12811772004797     -2.45792668845214     -0.15794961825126
