10
Coordinates from ORCA-job run
  C   0.27697196138372      0.02636937261594      0.38913400381072
  C   -1.14227971513989      0.13326473329225     -0.19542567491162
  H   0.24111568223686      0.21847429840863      1.46770443008468
  H   -1.12191014932183     -0.03813806977548     -1.27138979221223
  H   -1.78882371365164     -0.61076408695231      0.27067020103821
  H   -1.54462630525729      1.12797793259441     -0.00170086465505
  C   1.17075129669800      1.02665828477611     -0.20922912896747
  N   1.85081565898021      1.85124587788556     -0.69375556735250
  C   0.82835382592927     -1.32145937189890      0.19738466288357
  N   1.23063145814260     -2.41362897094622      0.04760773028170
