16

C	-0.539967	-0.016067	-1.432834
C	0.0	0.0	0.0
Br	0.070965	1.543801	-2.440355
H	1.099777	0.0	0.0
H	-0.096107	-0.865364	-1.960057
N	-1.988242	-0.099316	-1.555858
H	-2.38631	0.783352	-1.251428
H	-2.256844	-0.803103	-0.870085
N	-0.492938	-1.273626	0.586833
H	0.177398	-1.993837	0.330826
H	-0.422612	-1.1947	1.596397
C	-0.514105	1.157216	0.834759
H	-0.038783	1.129758	1.819142
H	-0.261307	2.11385	0.376891
H	-1.598746	1.096419	0.974331
Cl	3.543934	0.0	0.0
