16

C	-0.404583	0.150037	-1.466818
C	0.0	0.0	0.0
Br	-0.393801	-1.625721	-2.395444
H	1.104368	0.0	0.0
H	-1.448483	0.461498	-1.562722
N	0.449562	1.032769	-2.201648
H	0.150994	1.991682	-2.090263
H	1.408493	0.929994	-1.875684
N	-0.624627	-1.148564	0.65719
H	-0.293001	-1.149815	1.617115
H	-0.247417	-1.990247	0.235019
C	-0.442602	1.2622	0.736263
H	-0.027731	2.159849	0.274772
H	-0.072005	1.234204	1.764956
H	-1.535673	1.325665	0.76156
Cl	3.516373	0.0	0.0
