16

C	-0.218171	0.011002	-1.51587
C	0.0	0.0	0.0
Br	-2.164995	-0.086762	-1.962431
H	1.101197	0.0	0.0
H	0.088726	0.976804	-1.921951
N	0.471614	-1.022762	-2.241753
H	0.27984	-1.911461	-1.792378
H	1.468465	-0.841115	-2.112216
N	-0.43935	-1.204327	0.689478
H	-1.384339	-1.449617	0.4053
H	0.184347	-1.977823	0.486143
C	-0.542382	1.232164	0.694868
H	-0.227008	2.146664	0.184236
H	-1.636146	1.212297	0.72859
H	-0.162496	1.256432	1.717233
Cl	3.483529	0.0	0.0
