16

C	-0.538053	-0.047031	-1.434242
C	0.0	0.0	0.0
Br	0.015426	1.525121	-2.453506
H	1.095097	0.0	0.0
H	-0.060358	-0.881836	-1.953135
N	-1.981168	-0.188919	-1.555948
H	-2.414977	0.677218	-1.255386
H	-2.219026	-0.898238	-0.864641
N	-0.478269	-1.272957	0.604556
H	-0.442293	-1.16701	1.613667
H	0.21944	-1.979648	0.386709
C	-0.527758	1.16277	0.817442
H	-0.282748	2.115979	0.34878
H	-0.057515	1.151943	1.804364
H	-1.612649	1.093747	0.951921
Cl	3.526315	0.0	0.0
