16

C	-0.468045	-0.008638	-1.465585
C	0.0	0.0	0.0
Br	0.122349	1.623134	-2.398157
H	1.094978	0.0	0.0
H	0.054143	-0.815023	-1.98461
N	-1.888761	-0.154956	-1.716746
H	-2.180475	-1.096464	-1.484555
H	-2.410408	0.50255	-1.149606
N	-0.374983	-1.259792	0.656334
H	0.252495	-1.996501	0.355566
H	-1.32854	-1.524187	0.436273
C	-0.535229	1.160417	0.82079
H	-1.629502	1.127702	0.905599
H	-0.123739	1.077164	1.826833
H	-0.242617	2.122225	0.399366
Cl	3.521807	0.0	0.0
