14

C	0.0	0.0	0.0
C	-0.502414	0.298911	-1.404071
Br	1.915655	0.0	0.0
H	-1.601365	0.261973	-1.276663
H	-0.347372	0.786483	0.685802
N	-0.617273	-1.233367	0.532344
O	-1.760456	-1.452212	-0.047359
O	-0.387667	-1.444833	1.747435
N	-0.067057	-0.701884	-2.365508
H	0.819976	-0.442434	-2.77805
H	-0.760713	-0.787	-3.096034
C	-0.152247	1.673611	-1.799748
N	0.105668	2.751832	-2.192828
H	-2.828132	0.0	0.0
