12

C	0.0	0.0	0.0
C	-0.536067	-0.021797	-1.44107
Cl	1.773222	0.0	0.0
H	-1.650637	0.000662	-1.303132
H	-0.371309	-0.885357	0.516602
C	-0.42806	1.207829	0.711825
N	-0.577699	2.201775	1.319515
C	-0.152894	-1.258589	-2.117537
N	0.133451	-2.258306	-2.663759
C	-0.093106	1.140023	-2.206406
N	0.255705	2.071408	-2.831267
Br	-3.440166	0.0	0.0
