12

C	0.0	0.0	0.0
C	-0.52131	-0.0105	-1.449553
Cl	1.773129	0.0	0.0
H	-1.635785	0.01231	-1.329845
H	-0.372341	-0.890902	0.506622
C	-0.431093	1.202005	0.716804
N	-0.601822	2.185659	1.336058
C	-0.124837	-1.242285	-2.128116
N	0.176697	-2.235415	-2.678097
C	-0.059841	1.155336	-2.198743
N	0.309016	2.089729	-2.807475
Br	-3.431963	0.0	0.0
