12

C	0.0	0.0	0.0
C	-0.44319	0.340347	-1.4698
Cl	1.776666	0.0	0.0
H	0.485099	0.471472	-2.041079
H	-0.365832	-0.984123	0.283891
C	-0.416253	0.997346	0.986413
N	-0.508459	1.823056	1.818556
C	-1.147664	1.615519	-1.62454
N	-1.496492	2.707389	-1.882863
C	-1.123641	-0.783397	-2.120232
N	-1.433085	-1.701041	-2.786655
Br	-3.15328	0.0	0.0
