12

C	0.0	0.0	0.0
C	-0.264662	-0.040014	-1.551717
Cl	1.776525	0.0	0.0
H	0.426185	0.706871	-1.961585
H	-0.395648	-0.87536	0.507943
C	-0.444162	1.248377	0.613814
N	-0.536808	2.303689	1.124671
C	-1.550362	0.24166	-2.219767
N	-2.192774	0.39092	-3.199547
C	0.19682	-1.342105	-2.053417
N	0.574429	-2.370453	-2.473959
Br	-3.171994	0.0	0.0
