12

C	0.0	0.0	0.0
C	-0.43917	-0.016814	-1.510175
Cl	1.776634	0.0	0.0
H	0.490958	0.004796	-2.092345
H	-0.365973	-0.889182	0.507722
C	-0.41776	1.203711	0.717695
N	-0.513133	2.207968	1.322315
C	-1.177257	1.164476	-1.965291
N	-1.533141	2.152077	-2.494213
C	-1.07632	-1.283142	-1.880202
N	-1.361618	-2.346734	-2.288954
Br	-3.148257	0.0	0.0
