12

C	0.0	0.0	0.0
C	-0.440636	-0.258332	-1.48713
Cl	1.776711	0.0	0.0
H	0.488921	-0.328809	-2.067264
H	-0.364643	-0.797335	0.643976
C	-0.418553	1.302442	0.51792
N	-0.513097	2.389848	0.955567
C	-1.179011	0.835791	-2.125172
N	-1.532811	1.717893	-2.816782
C	-1.07792	-1.567584	-1.648116
N	-1.360051	-2.685375	-1.874069
Br	-3.153822	0.0	0.0
