12

C	0.0	0.0	0.0
C	-0.432306	-0.256558	-1.490415
Cl	1.776741	0.0	0.0
H	0.499978	-0.297326	-2.067929
H	-0.369648	-0.790585	0.646864
C	-0.41174	1.310278	0.502975
N	-0.496251	2.404564	0.924221
C	-1.195724	0.822532	-2.120626
N	-1.528995	1.738114	-2.779565
C	-1.027102	-1.584726	-1.657389
N	-1.26622	-2.713379	-1.881446
Br	-3.134954	0.0	0.0
