14

C	-0.379554	-0.058234	-1.463439
C	0.0	0.0	0.0
Cl	0.176858	1.411277	-2.316798
H	1.090285	0.0	0.0
H	0.206506	-0.879531	-1.878217
C	-1.795418	-0.295459	-1.728781
N	-2.919281	-0.517111	-1.988356
N	-0.378082	-1.220695	0.675732
O	-0.324238	-2.247312	-0.027023
O	-0.590237	-1.209288	1.893234
N	-0.508712	1.171573	0.71108
O	-1.461134	1.789051	0.216279
O	0.083567	1.483504	1.745221
H	2.363302	0.0	0.0
