14

C	-0.388237	-0.04697	-1.461179
C	0.0	0.0	0.0
Cl	0.221985	1.393443	-2.32774
H	1.089454	0.0	0.0
H	0.157636	-0.894581	-1.876619
C	-1.814912	-0.226458	-1.711934
N	-2.949396	-0.425117	-1.941114
N	-0.382228	-1.224108	0.670567
O	-0.318626	-2.2487	-0.033649
O	-0.615151	-1.217027	1.884225
N	-0.490645	1.17444	0.716353
O	0.084815	1.449411	1.770725
O	-1.400043	1.839613	0.20138
H	2.358666	0.0	0.0
