14

C	-0.371448	-0.006634	-1.454018
C	0.0	0.0	0.0
Cl	-2.121872	0.257632	-1.774126
H	1.091051	0.0	0.0
H	0.145158	0.850087	-1.889913
C	0.083591	-1.211631	-2.140455
N	0.470584	-2.135542	-2.754066
N	-0.443161	-1.155588	0.754776
O	-0.010969	-1.252916	1.907414
O	-1.1148	-2.019269	0.169093
N	-0.366991	1.266709	0.615786
O	-0.063284	2.260169	-0.061044
O	-0.862427	1.304645	1.743609
H	2.344039	0.0	0.0
