14

C	-0.561813	0.038217	-1.405902
C	0.0	0.0	0.0
Cl	0.036862	-1.390443	-2.316118
H	1.087858	0.0	0.0
H	-1.649253	-0.024909	-1.395383
C	-0.140545	1.231683	-2.139394
N	0.163159	2.134091	-2.827086
N	-0.438954	-1.194536	0.724263
O	-1.429839	-1.809959	0.295663
O	0.221821	-1.510695	1.717325
N	-0.399379	1.154493	0.775072
O	0.049224	1.24842	1.923842
O	-1.090731	2.024884	0.203243
H	2.363826	0.0	0.0
