14

C	-0.374356	-0.062723	-1.465705
C	0.0	0.0	0.0
Cl	0.13667	1.429659	-2.306944
H	1.090499	0.0	0.0
H	0.242542	-0.860367	-1.883363
C	-1.780265	-0.338777	-1.741889
N	-2.900646	-0.552906	-2.024678
N	-0.372864	-1.2185	0.679085
O	-0.578952	-1.199261	1.898431
O	-0.307326	-2.25038	-0.017188
N	-0.524564	1.168617	0.711467
O	0.089936	1.512818	1.720916
O	-1.520212	1.737181	0.250909
H	2.367754	0.0	0.0
