11
Coordinates from ORCA-job run
  C   -0.49756038935522     -0.40483092076968      0.47921898808873
  C   0.97426769695420     -0.34503498323528      0.11297000600139
  Cl  -0.69587039098805     -0.63561151633592      2.21532460821879
  H   1.43959164074706      0.49062275765197      0.63850918855554
  H   -1.04021167100947     -1.19027112148385     -0.04236038620517
  H   1.45750304806502     -1.27074073231104      0.43461992262509
  N   -1.17426993852369      0.88814793342995      0.08590311011418
  O   -0.57329900145262      1.92494914138186      0.34021598622371
  O   -2.27469954450672      0.78086407514648     -0.44388128605393
  C   1.13908785520181     -0.18061083903548     -1.32981576815888
  N   1.24646069486767     -0.05748379443902     -2.49170436940947
