11
Coordinates from ORCA-job run
  C   -0.44742896352261     -0.32198478606468      0.65046164042952
  C   0.53710616684325     -0.77607774614983     -0.42050775715408
  Cl  0.33582369894494      0.00142015804338      2.17905489462875
  H   -0.02303508967985     -1.02217789103911     -1.32597980666918
  H   -1.22388479441001     -1.07180827815578      0.79587594886579
  H   1.04543393099408     -1.67784827910765     -0.07133691497315
  N   -1.18024614818362      0.90044961377800      0.11532464978872
  O   -0.96332159695425      1.99933753479523      0.59761663645020
  O   -1.92730311200785      0.63314134189131     -0.82143917856579
  C   1.52744009396732      0.25457957689336     -0.72259323284013
  N   2.31941581400860      1.08196875511578     -0.97647687996065
