11
Coordinates from ORCA-job run
  C   -0.36246689087490     -0.24635586994455      0.46542178381439
  C   0.67801737670061      0.11807139992978     -0.58169893684842
  Cl  0.27067377972701     -0.08370232848688      2.09982469843579
  H   0.20263017234630      0.13629239163333     -1.56791192863518
  H   -0.75789591807357     -1.25274068923551      0.34506461802839
  H   1.05933653081847      1.11917148450568     -0.37292988163547
  N   -1.54414768986621      0.67921198707051      0.30596956188090
  O   -1.29762805089624      1.87311349971130      0.18012422484169
  O   -2.65134546705249      0.15144149876930      0.31461579309598
  C   1.76722387056032     -0.85290070284874     -0.59019326257265
  N   2.63460228661069     -1.64260267110421     -0.60028667040541
