11
Coordinates from ORCA-job run
  C   -0.52790770193457     -0.39825550763621      0.45320813230406
  C   0.94564799897543     -0.42295236369943      0.09057533056122
  Cl  -0.74892822789622     -0.71873147367253      2.17187963876936
  H   1.35717534686277     -1.40186882623755      0.34816231472932
  H   -1.12325390460335     -1.10988483329938     -0.11488289551936
  H   1.46972422530758      0.33822441821029      0.67129194745346
  N   -1.10889827172488      0.96152048241805      0.13953991697969
  O   -0.43186094945527      1.93480864917068      0.44734374330623
  O   -2.21757675043395      0.96563112565523     -0.38328415843346
  C   1.13068613798155     -0.17214106396134     -1.33740627195115
  N   1.25519209692090      0.02364939305218     -2.48742769819937
