11
Coordinates from ORCA-job run
  C   -0.46907132217947     -0.24716332646285      0.35687561525611
  C   0.76351014816677      0.07547560867526     -0.47296774187788
  Cl  -0.05505660197101     -0.60577992047780      2.02965531061680
  H   1.31729149509998      0.88335764829184      0.00854031048065
  H   -1.04952890839042     -1.07614749585855     -0.04250751059969
  H   0.44801582769610      0.42374596942028     -1.46199864581171
  N   -1.39002437087247      0.94828466230168      0.32824791435330
  O   -0.87797476678527      2.04492735979905      0.52138577653113
  O   -2.57460643336681      0.71530122830159      0.11144540513846
  C   1.60881419241086     -1.10428346619068     -0.62521394035764
  N   2.27863074019173     -2.05871826779981     -0.75346249372952
