11
Coordinates from ORCA-job run
  C   -0.52642076775154     -0.38862834685143      0.45402105610808
  C   0.93684570599336     -0.45094602359025      0.05726869470876
  Cl  -0.72029252293959     -0.74506255276640      2.16996591502690
  H   1.32307787534219     -1.44622855024240      0.29017809122137
  H   -1.15671885832414     -1.06836121913133     -0.11562128284791
  H   1.49810971920289      0.28392922379993      0.63654057768909
  N   -1.07793376518928      0.99413815315239      0.19074592795823
  O   -2.23434055748958      1.04176573740482     -0.21370763769228
  O   -0.33588269697120      1.94099832097864      0.42284920220198
  C   1.09508509655587     -0.18458167151557     -1.37087655311269
  N   1.19747077157102      0.02197692876160     -2.52136399126152
