11
Coordinates from ORCA-job run
  C   -0.47503736799200     -0.26188813086710      0.33795509976746
  C   0.77471327959709      0.09727818685686     -0.45006091636296
  Cl  -0.10217837490089     -0.65002859796044      2.01370269520866
  H   1.30104342563712      0.90442741429496      0.06249631331768
  H   -1.03098315512052     -1.09074727868566     -0.09514382300909
  H   0.48136625000509      0.45991637857609     -1.44072570790023
  N   -1.41383022427308      0.91989301919583      0.30838447218098
  O   -0.92521335007310      2.01960825954356      0.54039378513070
  O   -2.58769060321040      0.67356508550733      0.05190187657641
  C   1.64392438469485     -1.06515567199890     -0.60095878271114
  N   2.33288573563585     -2.00586866446255     -0.72894501219847
