11
Coordinates from ORCA-job run
  C   -0.16612040850684      0.31160134753860      0.53297295613965
  C   0.49861304611513     -0.41382560585163     -0.62633161506975
  Cl  0.34878173276246      1.99152485479840      0.63449286122347
  H   0.04816544704514     -1.40614774781429     -0.73284398982732
  H   0.01127275157538     -0.16511068310309      1.49471680079448
  H   0.31432839085691      0.14100438947730     -1.54794801628857
  N   -1.66097487985181      0.27127571039926      0.32647681131067
  O   -2.07153310079359      0.55001910788397     -0.79419801674082
  O   -2.33505930955854     -0.04010592797959      1.30277342468422
  C   1.93193482473950     -0.55835394411445     -0.39381553711941
  N   3.08159150561625     -0.68188150123448     -0.19629567910662
