11
Coordinates from ORCA-job run
  C   -0.37669566461821     -0.17797751599136      0.48510883172332
  C   0.70105331965372      0.04390183557008     -0.56432512174384
  Cl  0.17280359183591      0.27931099754600      2.09345868402643
  H   0.27234454626419     -0.12226616456245     -1.55807187316906
  H   -0.73581686606311     -1.20439488332626      0.51940995164582
  H   1.04241072500047      1.07928788607057     -0.51299309741357
  N   -1.57624107847689      0.66315118804913      0.12208239913301
  O   -1.35927177283506      1.82715610084579     -0.19449979062443
  O   -2.66669201699453      0.10404905871742      0.17485314270952
  C   1.81786025658533     -0.87332749223551     -0.36232093589821
  N   2.70824495964819     -1.61989101068342     -0.20170219038900
