11
Coordinates from ORCA-job run
  C   -0.50210838585601     -0.36719438330675      0.50536570393401
  C   0.95365186194804     -0.40752797911737      0.07745130623149
  Cl  -0.64168098857296     -0.56521379682851      2.25095396959883
  H   1.38895142220509     -1.35984731530634      0.38966778171805
  H   -1.11628497793813     -1.12068773789582      0.01698134164807
  H   1.49433702686726      0.40081012414051      0.57282181878107
  N   -1.10955104786295      0.96317117223248      0.12253044790514
  O   -2.23539197941136      0.92169883441074     -0.36090815673089
  O   -0.43286542143978      1.96119990212985      0.33845348493829
  C   1.06734123549498     -0.26679861118902     -1.37282757193557
  N   1.13260125456584     -0.16061020926977     -2.53949012608850
