11
Coordinates from ORCA-job run
  C   -0.44717378664998     -0.31036337551373      0.65492120305062
  C   0.52057963531908     -0.78703693615356     -0.42119810671069
  Cl  0.35357322597508      0.00908474681315      2.17510462582368
  H   1.01429692568557     -1.69699720654514     -0.07222479543840
  H   -1.23473011869281     -1.04633689416189      0.81115994873829
  H   -0.05042367943432     -1.02601042031267     -1.32187637432093
  N   -1.16531413874738      0.92069806503990      0.11897635654897
  O   -0.92858316242220      2.01839028029033      0.59465858962904
  O   -1.92342415121827      0.66021685788524     -0.81080931885264
  C   1.52788827189219      0.22371789366305     -0.73462627098328
  N   2.33431097829304      1.03463698899531     -0.99608585748468
