11
Coordinates from ORCA-job run
  C   -0.44984643684058     -0.29993135144654      0.65793094981582
  C   0.55546284215622     -0.78381594601799     -0.37981976567353
  Cl  0.30789371820308      0.10543780244198      2.17971926310899
  H   0.01139412238337     -1.07664050522929     -1.28117249756314
  H   -1.21487893498309     -1.05635154055638      0.82763698642252
  H   1.07228713509602     -1.66213292428768      0.01392485371621
  N   -1.19832377527372      0.88376510906285      0.06049110486530
  O   -1.93054558291020      0.56098886930558     -0.87036475719690
  O   -1.00700730447289      2.00686632001997      0.49521754168020
  C   1.53509540305521      0.24772412135843     -0.71260998205376
  N   2.31846881358659      1.07509004534907     -0.99195369712172
