20
Coordinates from ORCA-job run
  C   0.78018737845608      0.01339251513103      0.40436797243924
  C   -0.73521862098918      0.29465185738106      0.38038127291258
  H   1.02750675261327     -0.24266467359399      1.44461876357726
  H   -0.88851113256889      1.19780015697395      0.98839332276065
  C   1.59657760317970      1.25276870111673      0.03814128698067
  H   2.66413779535996      1.07294901858285      0.19480809120286
  H   1.46322870551522      1.52392772187855     -1.01268492692545
  H   1.30864987225403      2.11355833209670      0.64894204583458
  C   1.19570718671821     -1.16685219856571     -0.47361327461541
  H   2.25849507739781     -1.38479493651456     -0.33468445780682
  H   0.64132399281323     -2.07770848054251     -0.23653413008491
  H   1.04550924067270     -0.94352967070954     -1.53346594530057
  C   -1.53517575707090     -0.83148103554970      1.03503393577336
  H   -2.58825401253066     -0.55195003693611      1.13226363318956
  H   -1.49565446550153     -1.74847855343570      0.44081447170241
  H   -1.15538576116602     -1.05974307765261      2.03533071825713
  C   -1.28061692825720      0.58097434216815     -1.01855791380824
  H   -1.22709635416317     -0.30769155206728     -1.65348146049555
  H   -0.74123955154113      1.38862356069306     -1.51854471198643
  H   -2.33217102119153      0.87624800954564     -0.96052869360690
