20
Coordinates from ORCA-job run
  C   -0.78018021207401     -0.01339294942073     -0.40433393138495
  C   0.73522544443723     -0.29465158330990     -0.38032467418657
  H   -1.02748266489639      0.24265172676292     -1.44459185136585
  H   0.88852575835193     -1.19778483535638     -0.98835629451504
  C   -1.19571692889283      1.16686039727477      0.47362619671893
  H   -2.25850698889940      1.38478705938097      0.33469006405349
  H   -0.64134529478663      2.07772040458295      0.23653444421310
  H   -1.04552093289809      0.94355686409630      1.53348307205800
  C   -1.59657270881317     -1.25276727543242     -0.03810564924651
  H   -2.66412974159970     -1.07295721407562     -0.19480381773422
  H   -1.46324981012513     -1.52390507123281      1.01272919177127
  H   -1.30862431729601     -2.11356721964516     -0.64888190332810
  C   1.28059702004077     -0.58100077519366      1.01862159657288
  H   2.33215950353906     -0.87624664654079      0.96060606670540
  H   0.74122786205082     -1.38867913615253      1.51856862717549
  H   1.22703957494884      0.30765055536122      1.65356118567876
  C   1.53519440290864      0.83149614557619     -1.03493656981635
  H   2.58827032443547      0.55195925902989     -1.13217247907306
  H   1.15540982477854      1.05979612872204     -2.03522672392509
  H   1.49567988479008      1.74847416557275     -0.44068655037158
