20
Coordinates from ORCA-job run
  C   0.72139647973450      0.03379648571526      0.26606709079714
  C   -0.72139647992152     -0.03379649160166     -0.26606708973722
  H   0.65867264382497      0.24963301121618      1.34366746234277
  H   -0.65867264438083     -0.24963302676710     -1.34366745936882
  C   1.52344240668024      1.15481828279192     -0.39673787208522
  H   1.52222473105984      1.03449537766666     -1.48569423950734
  H   1.12635256039799      2.14453868264377     -0.16587215183010
  H   2.56428682057591      1.13370070067732     -0.06214150410116
  C   1.45864087871071     -1.29464954583750      0.09008360071742
  H   2.50252553525673     -1.20026984691943      0.40177938378297
  H   1.01403038448901     -2.09946940997559      0.67754640803275
  H   1.45260170095394     -1.59965725392330     -0.96217046365708
  C   -1.45864087364464      1.29464954453598     -0.09008361258008
  H   -1.45260169284781      1.59965726435349      0.96217044836757
  H   -1.01403037720829      2.09946940036134     -0.67754642963789
  H   -2.50252553106842      1.20026984631176     -0.40177939290664
  C   -1.52344241166354     -1.15481827917624      0.39673788348936
  H   -2.56428682493291     -1.13370069698260      0.06214151355320
  H   -1.52222473753591     -1.03449536215685      1.48569424960800
  H   -1.12635256847998     -2.14453868293343      0.16587217472035
