18

C	0.0	0.0	0.0
C	-0.481658	-0.03082	-1.468622
F	1.368118	0.0	0.0
H	-1.565573	0.136791	-1.484164
N	-0.465722	1.168082	0.683035
H	-0.350016	1.994111	0.108698
H	-1.466969	1.049812	0.839414
C	-0.474957	-1.232634	0.748161
H	-1.554965	-1.347855	0.648397
H	-0.228776	-1.070794	1.799231
H	0.04829	-2.114995	0.386741
N	-0.216417	-1.284511	-2.246843
O	-0.914118	-1.420813	-3.249582
O	0.667778	-2.051185	-1.88057
N	0.200833	1.052282	-2.250066
O	-0.221641	2.191947	-2.070623
O	1.150036	0.744858	-2.966395
Br	-3.773351	0.0	0.0
