18

C	0.0	0.0	0.0
C	-0.498826	-0.077869	-1.454721
F	1.405627	0.0	0.0
H	-1.570186	0.16936	-1.468704
N	-0.502413	1.186344	0.561864
H	-0.451366	1.197594	1.566496
H	-0.14762	2.026273	0.134339
C	-0.487097	-1.194377	0.795806
H	-1.571547	-1.283391	0.691431
H	-0.250556	-1.014789	1.848106
H	0.025039	-2.099208	0.479122
N	-0.334248	-1.415193	-2.101627
O	0.653027	-2.08623	-1.815318
O	-1.200279	-1.718878	-2.918775
N	0.24741	0.884707	-2.343148
O	0.841729	0.446148	-3.320068
O	0.192617	2.064621	-2.016463
Br	-3.94327	0.0	0.0
