13
Coordinates from ORCA-job run
  C   -0.62393860802109      0.04496021036757     -0.13669587780037
  C   0.81238073997418     -0.44818951767063     -0.09306133913551
  F   -0.87319311701195      0.50739919881508     -1.42304245906621
  H   0.85141377407132     -1.31165610866813     -0.77102874120730
  H   1.03206191211183     -0.79574954597562      0.92093256128969
  N   -1.53971771707467     -1.02857764018791      0.10672285509420
  H   -2.49094842680250     -0.68149779515112      0.14286351084208
  H   -1.32858612745010     -1.48611625975603      0.98464790698680
  C   -0.80955749844112      1.21127074678921      0.76446800323516
  N   -1.02605966687578      2.06539819613773      1.54051743122325
  N   1.70052109738899      0.65220953501516     -0.42034216674607
  H   1.63789256884318      0.85939942821735     -1.40822587142665
  H   2.65873106928769      0.41114955206735     -0.20775581328908
