13
Coordinates from ORCA-job run
  C   -0.71226470987944      0.01043244589049     -0.20094850427808
  C   0.70328246468966     -0.21963644897426     -0.70693668513398
  F   -1.58326213601549     -0.40381960783408     -1.22730974386535
  H   0.79883451177992     -1.30344564475613     -0.88680232500411
  H   0.79864809843247      0.28380403579457     -1.67105921536968
  N   -0.92954131076777     -0.70627245180959      1.00335105285792
  H   -1.83613892417925     -0.50266739576983      1.40459591296195
  H   -0.85245334206941     -1.70186031036852      0.83059626382866
  C   -0.98046557095691      1.44282088532430      0.02743865381152
  N   -1.24446850526453      2.57062448315259      0.21289403038738
  N   1.64009650735511      0.35371700846460      0.23761709970841
  H   2.58060120903838      0.33750971302141     -0.13176143867073
  H   1.61713170783727     -0.16120671213556      1.10732489876610
