13
Coordinates from ORCA-job run
  C   -0.66969523492924      0.02660924478185     -0.06794717838278
  C   0.78293280282542     -0.44555110583341     -0.07891567642006
  F   -1.07155286032741      0.20198051117963     -1.39845618075073
  H   1.04137472387035     -0.73204938080044      0.94709271225817
  H   0.80095181554298     -1.34793653868832     -0.69824016821095
  N   -1.49358712282253     -0.89641411401441      0.62519395992728
  H   -2.46161123551432     -0.60062148165052      0.61867710790614
  H   -1.42305668396303     -1.81511278631300      0.20477936474246
  C   -0.76852789119940      1.35117434779204      0.57835900986874
  N   -0.81472404077537      2.39415540956657      1.11343304795720
  N   1.63962810519610      0.56815468555493     -0.66508108313533
  H   2.06781338032054      1.14128494879791      0.04817471914966
  H   2.36905424177590      0.15632625962718     -1.22706963490978
