13
Coordinates from ORCA-job run
  C   -0.72661276616831      0.01495724104758     -0.22092290820870
  C   0.70777282358349     -0.33943826221957     -0.60274999890608
  F   -1.51395341124553     -0.39670945594777     -1.31918458953181
  H   0.93089167585890      0.21150688601728     -1.52653601028221
  H   0.69458950677339     -1.40465126630611     -0.85486086861041
  N   -1.11874891875168     -0.56996068455879      0.99390264078396
  H   -0.78311949412955     -1.51716615309818      1.09211666845161
  H   -2.11507843505527     -0.50416210714027      1.15037349791737
  C   -0.90378553241510      1.48284366183274     -0.13449736092682
  N   -0.99034810683633      2.65135811833157     -0.06513213054044
  N   1.62504734268157     -0.12402878906271      0.50330962178757
  H   2.56550710274260     -0.35768838082815      0.21064583802674
  H   1.62583821296183      0.85313919193238      0.77253560003923
