13
Coordinates from ORCA-job run
  C   -0.61529196287573      0.03170582700061     -0.27950148028021
  C   0.86007501444054      0.40769790003597     -0.23757632786582
  F   -0.92035338715529     -0.58248548587469     -1.47061605584089
  H   1.04853725144056      1.09973173095863     -1.06255582968041
  H   1.02115585920599      0.96306244442110      0.70251749128025
  N   -0.91637463229003     -0.91468380598800      0.76458753837959
  H   -0.82757347856365     -0.47659135208549      1.67401991299655
  H   -1.86864038916395     -1.24598924511936      0.66002170538983
  C   -1.44494517715015      1.26656672423963     -0.21091314806885
  N   -2.08800679133574      2.24199766408720     -0.09023049650262
  N   1.66692352333882     -0.78378846339179     -0.41219342556697
  H   1.43708418086569     -1.45773290534542      0.30586275966528
  H   2.64840998924294     -0.55049103293838     -0.34342264390572
