13
Coordinates from ORCA-job run
  C   -0.67811032954979      0.07561489687795     -0.14261420882882
  C   0.80593617069003      0.42154995814526     -0.22195106467983
  F   -0.92029293258319     -0.83867964052911     -1.20268860387979
  H   1.00105246897705      0.83896922515047     -1.21683917013597
  H   1.01228978790208      1.18890000080510      0.52613290144263
  N   -0.99332440384049     -0.45796136547580      1.11754653119533
  H   -0.30931467791088     -1.16965303469772      1.34785732510841
  H   -1.93718810307611     -0.81803306493627      1.15598241272517
  C   -1.51660503753931      1.25382920126178     -0.43581936836979
  N   -2.15454087442163      2.20855366310360     -0.67724229835627
  N   1.56326747854348     -0.78344147329679      0.09222144980576
  H   2.50066691332313     -0.54623944186065      0.38528358085744
  H   1.62616353948564     -1.37340892454784     -0.72686948688427
