13
Coordinates from ORCA-job run
  C   -0.66981124380110     -0.01137679610032     -0.06797537075651
  C   0.79726017737462     -0.42697945378411      0.02186798303108
  F   -1.07578637189158     -0.16318077950498     -1.39988947685871
  H   1.06340541640989     -0.45910879492096      1.08470148693324
  H   0.84531503176654     -1.44756001773030     -0.37089118054837
  N   -1.46435535634034     -0.77382839231185      0.82619297835977
  H   -1.36619737230509     -1.76206910984422      0.62706361514369
  H   -2.44109957285036     -0.51682511318906      0.75827171706936
  C   -0.81187658392990      1.42319367956531      0.25403006912914
  N   -0.89296681584073      2.55993073508517      0.53249611603894
  N   1.62141434689146      0.44938614773031     -0.78915176248885
  H   2.36419654640086     -0.05833470630790     -1.24532187795432
  H   2.03050179811571      1.18575260131291     -0.23139429709846
