13
Coordinates from ORCA-job run
  C   -0.65362502837831      0.20609899334603     -0.24043563130574
  C   0.85902754633651      0.32273316919016     -0.04852009251194
  F   -0.84434536959925     -0.00787591429393     -1.62817472243685
  H   1.04687518265846      0.72380191658996      0.95031324651800
  H   1.23460222378194      1.03801278992703     -0.79048239467384
  N   -1.20235397834802     -0.83853353865143      0.50702626998942
  H   -2.02902594829686     -0.65657816677705      1.04578272081759
  H   -0.51653114376503     -1.45648192977802      0.91045831051941
  C   -1.30829724890911      1.49474920985524      0.05755395913809
  N   -1.80399279297011      2.52333267023446      0.32941412241561
  N   1.43326736624861     -1.01356686830681     -0.13358191740791
  H   2.40984810377944     -0.99132724913253      0.12859377977730
  H   1.37355108746172     -1.34436508220312     -1.08894765083915
