13
Coordinates from ORCA-job run
  C   -0.81993228254700     -0.01966162656638     -0.28585258027732
  C   0.64449838141518     -0.30809267765537     -0.62444621352167
  F   -1.57525700488304     -0.41688250083665     -1.37275774285827
  H   0.72220092998882     -1.39051939520465     -0.76172800473090
  H   0.88774105082652      0.17393139979662     -1.58030026123050
  N   -1.33547029258337     -0.69028148885851      0.87256544587095
  H   -1.28772992732516     -1.69027787195950      0.70469367400491
  H   -0.72567317356407     -0.47372840769387      1.65421483178524
  C   -0.98294203837536      1.44225773445260     -0.10625064065557
  N   -1.02933529958218      2.60694798319993      0.02938072522614
  N   1.46619009915168      0.10366502999919      0.50646988336974
  H   1.70534235595676      1.08468705354585      0.43169922304719
  H   2.32936720152124     -0.42104523221926      0.53331165997004
