13
Coordinates from ORCA-job run
  C   -0.65504622038467      0.19114683941570     -0.14279970216885
  C   0.85933935035158      0.36458877791036     -0.07152513547120
  F   -0.92067484245453     -0.38049634015422     -1.41588638495684
  H   1.16487487735067      0.99985300481490     -0.91131626353449
  H   1.09415430762164      0.88049666827180      0.86107249168954
  N   -1.10982778531112     -0.60941400356523      0.91759040270271
  H   -0.52221922048140     -1.43322237621097      0.97606063709342
  H   -2.08687837582040     -0.85127576493830      0.82340162139604
  C   -1.34165678201742      1.49716685689206     -0.14348442380261
  N   -1.85662336579373      2.55150523510612     -0.14607851008853
  N   1.46120090346636     -0.96269942182017     -0.06151270386105
  H   2.39662874750267     -0.92503368249396      0.31863790460785
  H   1.51572840597036     -1.32261579322811     -1.00515993360600
