13
Coordinates from ORCA-job run
  C   -0.66340542817629      0.16884606866869     -0.13066717956275
  C   0.84883584369971      0.37255932916143     -0.13221818652286
  F   -0.96539318298637     -0.50152799037193     -1.34638679431653
  H   1.10907479683961      0.96141485937849      0.74903474385281
  H   1.10960723352305      0.94737804667491     -1.02874744090411
  N   -1.06192586390486     -0.55698639318175      1.00340294228045
  H   -2.03689763471695     -0.82147239544684      0.96624693347259
  H   -0.45628204117547     -1.36383720065386      1.10072602379219
  C   -1.37547108664082      1.45924189039518     -0.20238203337923
  N   -1.91118588302877      2.50139656669150     -0.26396396784308
  N   1.47665455595355     -0.93995107429530     -0.04631017369263
  H   1.50252622185325     -1.36923505198007     -0.96169506328771
  H   2.42486246876036     -0.85782665504046      0.29296019611086
