13
Coordinates from ORCA-job run
  C   -0.76311753496142     -0.13569830322674     -0.34368108697837
  C   0.72319009824027     -0.30119404493983     -0.64495585082985
  F   -1.47046737795495     -0.54518705305419     -1.46357695891215
  H   0.94486371561783      0.24723854223010     -1.56829877409354
  H   0.86510409377314     -1.36766656514876     -0.83294226439367
  N   -1.11619764119360     -0.94786798646599      0.76565119674163
  H   -2.00667038195796     -0.68567335975612      1.16719947269983
  H   -0.38089007850888     -0.87370997149323      1.45989649050854
  C   -1.07505154129494      1.30762876793746     -0.15767329358557
  N   -1.26545525956120      2.44815494530974      0.04993526345195
  N   1.49832967457047      0.09643160765391      0.52252598661978
  H   1.63757587618353      1.09943745466937      0.53424990538884
  H   2.40878635704772     -0.34189403371574      0.51166991338257
