13
Coordinates from ORCA-job run
  C   -0.82084617877682     -0.01171915593638     -0.28315889065223
  C   0.63819944925917     -0.32595573280229     -0.62158609511448
  F   -1.58524903296926     -0.41407054709865     -1.36154849334746
  H   0.69948933193555     -1.41116169806847     -0.74417969872864
  H   0.88628812880117      0.13946119533587     -1.58437095105754
  N   -1.34191468986691     -0.65810098424925      0.88678629776158
  H   -0.72187648774337     -0.44466907208112      1.66130191820028
  H   -1.31503471522284     -1.66067141050397      0.73012346173064
  C   -0.96259237972146      1.45490402941910     -0.12431107057806
  N   -0.99246396040786      2.62196980485936     -0.00562986455247
  N   1.46915441171860      0.08853418635869      0.50181499964965
  H   1.71919628397463      1.06593418771858      0.41499947866062
  H   2.32664983901941     -0.44545480295149      0.52975890802811
