13
Coordinates from ORCA-job run
  C   -0.62628925313437      0.00612231606649     -0.13240566620081
  C   0.81698579444919     -0.44966802395809     -0.00191112967941
  F   -0.90061928110082      0.15873381426858     -1.48596865246020
  H   1.05605194989284     -0.55171984985806      1.06087074140135
  H   0.85806893987308     -1.44569854587136     -0.46344867717087
  N   -1.52443064220377     -0.99094953433709      0.36709496513996
  H   -2.47887838698197     -0.65216998939233      0.34151903713073
  H   -1.29278202736848     -1.23505273385416      1.32186933205983
  C   -0.81414623159150      1.34595408375838      0.48116999078059
  N   -1.03045226963661      2.35307940180222      1.04465811406870
  N   1.68507875545875      0.55466871458769     -0.58897615525614
  H   1.60133320206990      0.53118225086658     -1.59640053722725
  H   2.65007945027376      0.37551809592115     -0.34807136258648
