13
Coordinates from ORCA-job run
  C   -0.69145538186540      0.10686451746101     -0.19178199395215
  C   0.82027978587673      0.32660771085110     -0.25909486805899
  F   -1.04094506286079     -0.50314454180105     -1.42349839287993
  H   1.04432584622991      0.81005748886953     -1.21781950117077
  H   1.10325334920452      1.00512194976007      0.54912155686461
  N   -1.05898877561689     -0.69506321814730      0.88885410422284
  H   -0.28822311633502     -1.15708883895215      1.34353655869360
  H   -1.83431874063301     -0.41202858980687      1.45867072498659
  C   -1.39836295604707      1.40226311771301     -0.17609187528909
  N   -1.93238173460892      2.44666409013841     -0.13507000197197
  N   1.47717035738218     -0.95640444438395     -0.04693466910717
  H   1.32797663748704     -1.54844576641902     -0.85490449045491
  H   2.47366979178673     -0.82440347528281      0.06401284811735
