13
Coordinates from ORCA-job run
  C   -0.80290348481775     -0.00650177861649     -0.33109342314935
  C   0.67213045613746     -0.32650580873761     -0.58440977379445
  F   -1.50432969730631     -0.39961128927488     -1.45467007383712
  H   0.97846473871415      0.14197980677051     -1.52880185071333
  H   0.73580398900217     -1.41147948549349     -0.70792726320386
  N   -1.39528381533167     -0.65559137578392      0.80274734545215
  H   -0.82153116557160     -0.44847229776082      1.61377235445845
  H   -1.36377160007064     -1.65762906379270      0.64316425559716
  C   -0.94601362631604      1.46021322766346     -0.17359567144559
  N   -0.97557750284246      2.62691600974397     -0.05150741213482
  N   1.43701633836735      0.07948729760075      0.58791666015741
  H   2.28885367824720     -0.45876469225834      0.66433540762511
  H   1.69614169178814      1.05595944993957      0.52006944498824
