13
Coordinates from ORCA-job run
  C   -0.75067812026550     -0.11497807387815     -0.37777363910769
  C   0.74235049463702     -0.32294658119152     -0.61168164528248
  F   -1.41843586882184     -0.50691304743858     -1.52760526218550
  H   1.02138507617815      0.21774675455902     -1.52399948663217
  H   0.86247961778721     -1.39331167666437     -0.79273259710061
  N   -1.17569261186029     -0.91410003597367      0.71566066804069
  H   -0.46975017479340     -0.85980497191011      1.44151853043369
  H   -2.07502699717267     -0.62579051072636      1.07755700904301
  C   -1.02966445758771      1.33709018196605     -0.20755581264552
  N   -1.19600350297987      2.48316467417909     -0.01032044591039
  N   1.47513712178873      0.05390970074710      0.58985381076697
  H   2.37365549522824     -0.40799550672958      0.61757870269502
  H   1.64024392786193      1.05292909306108      0.60850016788496
