13
Coordinates from ORCA-job run
  C   -0.62287101608488      0.03760536464379     -0.14275547746217
  C   0.81873054054966     -0.43824999680588     -0.08468961901376
  F   -0.86398771749811      0.49757849625601     -1.43163729688262
  H   1.03188613503622     -0.78301138116659      0.93163664217720
  H   0.87458607754896     -1.30118416438220     -0.76215803654352
  N   -1.52821405431815     -1.04642456945149      0.09145665234335
  H   -2.48372624743047     -0.71094144646291      0.12035986802156
  H   -1.31930028134740     -1.50461195603642      0.96948018871690
  C   -0.83204438080165      1.20098088245917      0.75691401725552
  N   -1.06739732452456      2.05171644562088      1.53111473168461
  N   1.69727112970014      0.67264400504513     -0.40270735676751
  H   1.63843577132685      0.88173984177376     -1.39051452298389
  H   2.65663136784342      0.43915847850676     -0.18649979054567
