13
Coordinates from ORCA-job run
  C   -0.65857459287814     -0.12485883056610     -0.20705607096101
  C   0.82002730742356     -0.43764340049379     -0.00494159959674
  F   -0.98473104351433     -0.30982191185031     -1.53202687490984
  H   0.95443064419838     -1.43907730526752     -0.41900499204591
  H   1.01770674039017     -0.49217944690773      1.07550584138415
  N   -1.46785749809732     -1.03376921320239      0.55261812439550
  H   -1.26243851175052     -0.96099564131454      1.54103990875060
  H   -2.45022642424295     -0.83033037941405      0.41013824867308
  C   -0.91058606384389      1.30980715951879      0.09949502131533
  N   -1.08135521409466      2.42201535441101      0.43601982878909
  N   1.63745447949583      0.52219222876334     -0.72139548897115
  H   2.46292697943081      0.08759992004434     -1.10545337361890
  H   1.92222319748306      1.28706146627894     -0.12593857320419
