13
Coordinates from ORCA-job run
  C   -0.67514667839387      0.12040466723897     -0.23754716197237
  C   0.83584688162686      0.34498564518579     -0.16871682581690
  F   -0.92254980704163     -0.39712677347402     -1.53460221948104
  H   1.13187210043626      0.89775962504615     -1.06865102941662
  H   1.04996560583341      0.96215448142865      0.70702257158244
  N   -1.12206464079504     -0.75983733613401      0.74831042146134
  H   -1.93964208818373     -0.51773170903569      1.27646742703254
  H   -0.38590075931431     -1.25271478577918      1.22748850778508
  C   -1.38916481157367      1.41077547176452     -0.18248777740416
  N   -1.93125814080316      2.44905989777787     -0.10701755400550
  N   1.48171074964894     -0.94998612771580     -0.00028841851443
  H   2.46548158250687     -0.82656197641235      0.19861667102247
  H   1.39985000605307     -1.48118107989090     -0.85859461227284
