13
Coordinates from ORCA-job run
  C   -0.80415676146630      0.00327675876236     -0.32773174274200
  C   0.66491692411712     -0.34007266995716     -0.58517692819935
  F   -1.51611861150933     -0.38684766054209     -1.44566218853384
  H   0.97423858526060      0.11772197214368     -1.53383597722881
  H   0.71188957035205     -1.42664247547882     -0.70205115952797
  N   -1.40093520210484     -0.62954902295937      0.81301005274226
  H   -0.81991447109818     -0.42612370444272      1.61980657173651
  H   -1.38546551448741     -1.63295136871474      0.65976662227745
  C   -0.92500512680322      1.47292413884772     -0.17927043626429
  N   -0.93700013962681      2.64068613194708     -0.06458807018021
  N   1.44080006762345      0.06170125395140      0.58121622083736
  H   1.71408852135353      1.03380983280501      0.50669986708584
  H   2.28466215838935     -0.48893318636238      0.65781716799706
