13
Coordinates from ORCA-job run
  C   -0.54604799167518      0.10090679074094     -0.22085264890256
  C   0.94543753153050      0.42474104161779     -0.07721425128776
  F   -0.75537116339030     -0.45442552563231     -1.47275704941374
  H   1.19321063036353      1.19781796776694     -0.80877045946660
  H   1.11049970586800      0.85349130125563      0.91713593903199
  N   -0.93786312062535     -0.89160899059118      0.73980407503879
  H   -0.81381303479804     -0.54049690673205      1.68194596902873
  H   -1.91279243802152     -1.13832087366238      0.61315409462744
  C   -1.35667025872716      1.34358876337462     -0.16651348174842
  N   -1.97424922567303      2.33639442703686     -0.05243570737668
  N   1.81489611788084     -0.71526761082079     -0.27223768741918
  H   1.52128984282608     -1.46696126278110      0.33967000876735
  H   1.71147340444070     -1.05085912157304     -1.22192880087893
