13
Coordinates from ORCA-job run
  C   -0.58655172136453      0.01607224177912      0.01454242342426
  C   0.83788568730783     -0.52078885408249     -0.15405866038492
  F   -0.96124273772173      0.55546883433345     -1.24018694775484
  H   0.77284058945290     -1.35061498046327     -0.86693943503092
  H   1.16012501260282     -0.92992651437256      0.80534281293860
  N   -1.46973191443671     -0.99075882449601      0.45642048628157
  H   -2.41971292251298     -0.65380203287092      0.54284224956680
  H   -1.44378034730650     -1.79060313494522     -0.16316470784668
  C   -0.60331285727646      1.15186488299325      0.95686688713049
  N   -0.56184057923143      2.05409034323861      1.70618091766884
  N   1.81230848921888      0.43187110341030     -0.63406417862762
  H   1.47815664519245      0.87581677856538     -1.47920918194205
  H   1.98585665607545      1.15131015691036      0.05642733457645
