13
Coordinates from ORCA-job run
  C   -0.59122831374056      0.00156978064984     -0.17523699463191
  C   0.85205215021180     -0.50840950881262     -0.15837895000126
  F   -0.82968958070247      0.56363878246790     -1.42409996147431
  H   0.89270252807357     -1.30218424360578     -0.90911719325235
  H   1.05762706580177     -0.95564241465082      0.81921811120349
  N   -1.51440467155524     -1.06995539101070      0.00084303190932
  H   -1.25003967600742     -1.66083047352839      0.77784898702045
  H   -2.45943422002140     -0.73452318898342      0.13814648562665
  C   -0.74271666792844      1.11323683808847      0.80107869789273
  N   -0.83764037873747      1.94057816485353      1.62963164623938
  N   1.86194896840752      0.48358101704038     -0.44805913759259
  H   1.65884355835504      0.93859154049745     -1.32830475435776
  H   1.90097923784331      1.19034909699416      0.27543003141816
