13
Coordinates from ORCA-job run
  C   -0.72685367479474      0.02891635176559     -0.21651815106251
  C   0.70248545185348     -0.32440345560803     -0.61766624647708
  F   -1.52272896976121     -0.33564520312344     -1.32562999860304
  H   0.92614701373415      0.25680031154119     -1.52257663574952
  H   0.67912812765915     -1.38000672666506     -0.90679618660845
  N   -1.11962262822001     -0.59624210511469      0.97789895033421
  H   -0.79545200943713     -1.55071009400343      1.03803844899033
  H   -2.11451607306869     -0.52493225752887      1.14141752145461
  C   -0.89002719540343      1.49406441897461     -0.07586862203252
  N   -0.96500700276627      2.66008307183035      0.03532598685873
  N   1.62682622311356     -0.15546148628908      0.49080247307611
  H   2.56420175060519     -0.38388780750359      0.18452083807371
  H   1.63541898648596      0.81142498172445      0.79505162174542
