13
Coordinates from ORCA-job run
  C   -0.71303600413871      0.02838701040712     -0.23228139187166
  C   0.74504007503148     -0.41553122494957     -0.08006511752155
  F   -0.93716939538528      0.20014151148301     -1.59086560068721
  H   0.90177134865222     -0.68068453513491      0.97300252796582
  H   0.83088941713371     -1.33372458532549     -0.67153473892924
  N   -1.66118539471622     -0.90275919097883      0.28397176333161
  H   -1.30933183989760     -1.84950262646730      0.29409134037954
  H   -2.05368103533907     -0.64882072305659      1.17642853315455
  C   -0.90353207630681      1.33889704054953      0.42121694347972
  N   -1.02174326867702      2.35419775420554      0.99704321911946
  N   1.65566799608764      0.59755699155460     -0.57460511596415
  H   2.36685631024185      0.21069749457784     -1.17468695479191
  H   2.09945386731382      1.10014508313506      0.17928459233502
