13
Coordinates from ORCA-job run
  C   -0.59049021143318      0.24065751749110     -0.07314081801113
  C   0.91180344563317      0.32511074928353     -0.37016628879182
  F   -1.17608651827736     -0.42434087939448     -1.17843746446229
  H   1.37542581102577      0.95575472049700      0.39089941837394
  H   1.01848954742129      0.82471056280850     -1.33603706910865
  N   -0.85212956335744     -0.42927113534039      1.14245481266574
  H   -0.45724655596891     -1.36017636687061      1.11649570600462
  H   -1.84481389860326     -0.49019316949938      1.32921483821114
  C   -1.18856616821941      1.58732946945892     -0.03750595082837
  N   -1.63023158470163      2.67452261667773     -0.02362005062040
  N   1.59575990767896     -0.94864175836108     -0.42019819990794
  H   1.71522343571889     -1.35996425916672      0.49443879473602
  H   1.12286235308311     -1.59649806758412     -1.03539772826087
