13
Coordinates from ORCA-job run
  C   -0.59622239812132     -0.02760053636047     -0.15371591110953
  C   0.86395071301849     -0.48770316556217     -0.16193972142668
  F   -0.89684884601805      0.45613165162604     -1.42150356807198
  H   1.11888295330932     -0.87440778774480      0.82975535127065
  H   0.90633557344343     -1.31903206577369     -0.87081467826287
  N   -1.47431433703962     -1.11821308255905      0.11346951429165
  H   -1.16190507371040     -1.65625066798408      0.91079810735448
  H   -2.42514201156511     -0.80751501567414      0.26805593865466
  C   -0.75370531761666      1.12998442010063      0.76636664444669
  N   -0.85276107854442      1.99711819213362      1.55269064538263
  N   1.82766663515757      0.52029394467479     -0.54024317404283
  H   1.57799909821306      0.92033337728664     -1.43513161561143
  H   1.86706408947372      1.26586073583668      0.14321246712455
