13
Coordinates from ORCA-job run
  C   -0.56434708466756      0.14199983221768     -0.13465656165908
  C   0.95260320434515      0.29796868921668     -0.29107115277577
  F   -1.05506445731476     -0.51377512253888     -1.25250154728008
  H   1.13593774967405      0.95256727240571     -1.14665686763343
  H   1.33970134503828      0.80851005183849      0.59730614678348
  N   -0.86866558866038     -0.68948461864357      0.99570276872415
  H   -1.86962369379834     -0.83135716163505      1.06851291319418
  H   -0.54130834298693     -0.25736413860755      1.85147136822184
  C   -1.22412353571420      1.47156304223448     -0.09878026567166
  N   -1.70894809789900      2.53766995522349     -0.00537807121399
  N   1.65413795534837     -0.95235456631411     -0.48567507940441
  H   1.34751862002231     -1.37125665506121     -1.35497633762435
  H   1.40218192661300     -1.59468658033616      0.25570268633913
