13
Coordinates from ORCA-job run
  C   -0.69035012892046     -0.12125650277554     -0.37394218337299
  C   0.79374694811207     -0.31750144206010     -0.70366676336522
  F   -1.42595823778402     -0.52457406407764     -1.47337236230528
  H   0.98065357788589      0.20334138923508     -1.64618569814771
  H   0.91997885106569     -1.38812086994941     -0.88152541923645
  N   -1.08662520248535     -0.93373159396363      0.73383684527652
  H   -2.03812704318318     -0.72806579324267      1.01441791699866
  H   -0.47600262566345     -0.77246384113608      1.52392565812549
  C   -0.96942274432906      1.32765915793374     -0.17907529961283
  N   -1.12744097311059      2.47059161275946      0.04261893028215
  N   1.74584307937588      0.12607573012835      0.28896717253244
  H   1.63272069292451      1.10159871231212      0.52954992206976
  H   1.74098380611206     -0.44155249516368      1.12345128075544
