13
Coordinates from ORCA-job run
  C   -0.75952697349079     -0.10778122436734     -0.36126441676931
  C   0.72728323493405     -0.31020784468208     -0.63612588172526
  F   -1.45536186162845     -0.47733436592334     -1.50187451418376
  H   0.98333924939017      0.24872065670192     -1.54422687284961
  H   0.84230530532609     -1.37663278480546     -0.84189583965095
  N   -1.15735290229508     -0.92908331208843      0.72614834421871
  H   -2.04769852178044     -0.64851269541997      1.11540589688558
  H   -0.43420977982412     -0.88787734484118      1.43579868671831
  C   -1.03482497118087      1.34024577141628     -0.15498091034598
  N   -1.19693800729847      2.48185631909512      0.06985760179860
  N   1.48955355803993      0.04293482786842      0.55402980459761
  H   1.65494697622569      1.04152767733200      0.58854553775150
  H   2.38848469358229     -0.41885568028594      0.55058256355456
