13
Coordinates from ORCA-job run
  C   -0.58636055172305      0.02143806944031      0.01634431136942
  C   0.83233384095096     -0.51922418256612     -0.18556286674280
  F   -0.95701681986254      0.63754293003423     -1.20356118870097
  H   1.15251941580516     -0.98322875789922      0.74936949345880
  H   0.75802966013192     -1.30851275290746     -0.94231559089608
  N   -1.47923833795901     -1.00070636377766      0.39980964227010
  H   -1.46284766306829     -1.76224796056779     -0.26661839870732
  H   -2.42558277499170     -0.65928420731160      0.50827266760756
  C   -0.59059377970762      1.09939716649594      1.02444189969050
  N   -0.53920758886723      1.95386890640777      1.82723392416700
  N   1.81490726970427      0.44929214357989     -0.61461347457292
  H   2.00068650723533      1.12444785950968      0.11611058892703
  H   1.48137082235181      0.94621714956204     -1.42991100787032
