13
Coordinates from ORCA-job run
  C   -0.67551614782824     -0.00081852967813     -0.22991178533402
  C   0.73335122103386     -0.36973144095621     -0.70714016788365
  F   -1.56221428548554     -0.32585506637026     -1.27278501539732
  H   0.73939390069104     -1.45651684269197     -0.84941133529380
  H   0.88292098720848      0.08352565321725     -1.68902190098899
  N   -0.98765124061985     -0.67338680007614      0.97625941142609
  H   -0.95218632344023     -1.67630836019343      0.83745824179914
  H   -1.89807121680884     -0.41202708157016      1.33307015465637
  C   -0.78254387730611      1.45654669738095     -0.01909501895649
  N   -0.82400682675870      2.62018168684617      0.12756135916869
  N   1.80676827934115      0.01597551813840      0.18050355348362
  H   1.91941525684780      1.02175830075654      0.18887414572694
  H   1.59934027312519     -0.28334373480302      1.12463835759342
