13
Coordinates from ORCA-job run
  C   -0.59496389419751     -0.01040344550003     -0.15948108789340
  C   0.85957102087140     -0.48727943386879     -0.18406280565787
  F   -0.87859341518970      0.55516740626150     -1.39687202579253
  H   1.10101324563427     -0.93696787513476      0.78414854421535
  H   0.89785043206945     -1.27432145459375     -0.94198338820239
  N   -1.48854509187177     -1.10476724113590      0.03120698209851
  H   -2.43737477399028     -0.79161244823919      0.19320734551447
  H   -1.19250134788382     -1.69179994576217      0.79976377382949
  C   -0.74681638366763      1.08926985699809      0.83025711934540
  N   -0.84005389903227      1.90668183877749      1.66881499973113
  N   1.83881725794467      0.52928047861969     -0.49267233911492
  H   1.60410957429627      0.98324987896072     -1.36540065028347
  H   1.87948727501692      1.23350238461711      0.23307353221022
