13
Coordinates from ORCA-job run
  C   -0.75290884066951     -0.11192691965112     -0.37408074474939
  C   0.73986570926765     -0.29911666917256     -0.62775828240874
  F   -1.42796836158208     -0.48180669795714     -1.52689709624629
  H   0.86845946686845     -1.36299865685486     -0.83871869126514
  H   1.00432940763537      0.26825151873340     -1.52811234264711
  N   -1.15915863048015     -0.94279649198285      0.70308054094057
  H   -0.44674257443635     -0.89702456153784      1.42335689910121
  H   -2.05744443679741     -0.67187355597969      1.08091094515681
  C   -1.04471664293615      1.33193640334022     -0.16347604848449
  N   -1.22942671026394      2.46801092811864      0.07173235152061
  N   1.48095686261810      0.05365394971575      0.57596475760753
  H   2.38101172291444     -0.40584733040103      0.58709322798786
  H   1.64274302786156      1.05253808362907      0.61590448348658
