13
Coordinates from ORCA-job run
  C   -0.60317345635966      0.01447767007984     -0.12654562891689
  C   0.83140777813320     -0.50474252850658     -0.25201033352429
  F   -0.93546464692699      0.64005501053984     -1.32237825814637
  H   0.80292844507890     -1.26002809514198     -1.04202749410943
  H   1.11069291577041     -1.00198492751208      0.68216487229079
  N   -1.52021921053529     -1.05877028680059      0.07048819782846
  H   -1.19908396061145     -1.69055141162974      0.79192440850070
  H   -2.44711808458332     -0.72483639625179      0.30242707112178
  C   -0.66464791568479      1.07587792896356      0.91345298938292
  N   -0.68515664929091      1.86037083778296      1.78760866991797
  N   1.82486815752758      0.49400679780791     -0.57332849560092
  H   1.92993692933570      1.16318195096979      0.17873525932228
  H   1.55602969814663      0.99394344969885     -1.41051125806700
