14
Coordinates from ORCA-job run
  C   0.67580256965590     -0.03386789160463     -0.88028669669942
  C   -0.71445758480036      0.07472150892098     -0.27821800780380
  Br  0.81207155473363     -1.46409487074241     -2.15793289559688
  H   -1.46935608961446      0.05269696311046     -1.06380249015301
  H   0.90723483856000      0.89299972558324     -1.40269700646013
  N   1.76637986064741     -0.20083533374261      0.14772796414453
  O   2.78493790276324      0.44508822429168     -0.05139753654005
  O   1.54681611561306     -0.98911972303066      1.05808645011902
  N   -0.86951478257242      1.37878351025620      0.44408798858643
  O   -2.01840312363968      1.79131649459566      0.54363417198625
  O   0.15252274701027      1.89989865051002      0.88052355733117
  N   -1.09335506688819     -1.02136848667362      0.69981710667979
  O   -1.18505738464409     -0.71752135339200      1.87827640036557
  O   -1.29562155682430     -2.10869741808231      0.18218099404052
