18

C	-0.518781	0.030147	-1.424873
C	0.0	0.0	0.0
Br	0.296694	-1.59303	-2.37881
H	1.086855	0.0	0.0
N	-1.902026	0.125334	-1.601587
H	-2.141205	0.099467	-2.584498
H	-2.356664	-0.607135	-1.071898
N	0.09731	1.19487	-2.182584
O	-0.392903	1.432275	-3.287021
O	1.043103	1.780376	-1.666806
N	-0.450279	-1.267854	0.663456
O	-1.63512	-1.615808	0.536492
O	0.360817	-1.867545	1.3577
C	-0.52782	1.149288	0.84379
H	-0.202905	2.091562	0.405466
H	-1.617598	1.132913	0.913532
H	-0.083508	1.07676	1.84
H	2.752137	0.0	0.0
