18

C	-0.347565	0.054045	-1.460824
C	0.0	0.0	0.0
Br	-2.249959	0.548519	-1.819284
H	1.092219	0.0	0.0
N	0.515402	1.005323	-2.039109
H	1.467353	0.841907	-1.671527
H	0.480127	0.987279	-3.050486
N	-0.11513	-1.325424	-2.152108
O	0.841271	-1.952387	-1.716187
O	-0.759983	-1.602693	-3.156859
N	-0.527182	-1.164655	0.708479
O	-1.220472	-1.993165	0.105851
O	-0.23104	-1.249034	1.904653
C	-0.360005	1.262896	0.764478
H	0.246476	1.292966	1.670646
H	-1.420693	1.292203	1.025621
H	-0.113936	2.126297	0.147085
H	2.570536	0.0	0.0
