18

C	-0.38282	0.138411	-1.45659
C	0.0	0.0	0.0
Br	-2.326543	0.491341	-1.688128
H	1.093989	0.0	0.0
N	0.344266	1.191183	-2.106588
H	1.31368	1.107286	-1.778168
H	-0.027966	2.081341	-1.803118
N	-0.039287	-1.129815	-2.272318
O	-0.921714	-1.892621	-2.632967
O	1.156774	-1.237646	-2.502415
N	-0.439008	-1.244262	0.625432
O	-0.179352	-2.297283	0.029664
O	-0.947415	-1.200916	1.755443
C	-0.367069	1.198591	0.84645
H	0.096214	1.073156	1.825358
H	0.060923	2.098391	0.401107
H	-1.443465	1.317501	0.972278
H	2.52145	0.0	0.0
