18

C	-0.268995	0.002568	-1.515255
C	0.0	0.0	0.0
Br	0.028812	1.814893	-2.220375
H	1.091802	0.0	0.0
N	0.531584	-0.874068	-2.290888
H	1.49006	-0.685286	-1.97639
H	0.320637	-1.817132	-1.97912
N	-1.751609	-0.319627	-1.750443
O	-2.004108	-1.456235	-2.148228
O	-2.585215	0.524196	-1.432954
N	-0.400663	-1.302859	0.557764
O	0.067722	-2.330047	0.041951
O	-1.11909	-1.325166	1.569054
C	-0.536276	1.128784	0.844973
H	-1.62266	1.215259	0.798961
H	-0.240067	0.951423	1.879672
H	-0.078566	2.061098	0.518717
H	2.568148	0.0	0.0
