18

C	-0.206742	-0.001609	-1.508553
C	0.0	0.0	0.0
Br	-0.609793	2.052296	-2.172467
H	1.092617	0.0	0.0
N	0.861066	-0.528163	-2.117549
H	0.85411	-0.608761	-3.12171
H	1.75671	-0.381531	-1.603334
N	-1.530401	-0.57811	-2.022135
O	-2.505578	-0.469442	-1.293079
O	-1.509945	-1.09148	-3.134449
N	-0.369834	-1.334438	0.540304
O	-0.404279	-1.455351	1.767238
O	-0.529533	-2.271835	-0.247261
C	-0.535421	1.122709	0.851763
H	0.011828	2.033372	0.61816
H	-0.357139	0.872702	1.895418
H	-1.600075	1.287667	0.686623
H	2.637574	0.0	0.0
