18

C	0.0	0.0	0.0
C	-0.572989	0.160453	-1.418356
Cl	1.794898	0.0	0.0
H	-1.619968	0.466189	-1.268775
C	-0.367394	1.133888	0.862721
N	-0.562359	1.986693	1.646912
C	-0.490062	-1.28688	0.654042
H	-0.138754	-1.318515	1.68665
H	-1.583867	-1.281248	0.634489
H	-0.0943	-2.151368	0.119945
C	-0.510949	-1.089124	-2.264467
H	-0.805045	-0.85028	-3.28635
H	0.489907	-1.523254	-2.28824
H	-1.230593	-1.804578	-1.867537
N	0.117375	1.309386	-2.094919
O	0.821965	1.075961	-3.077718
O	-0.058581	2.422444	-1.605157
Br	-3.799161	0.0	0.0
