17

C	-0.511672	0.001534	-1.44284
C	0.0	0.0	0.0
Cl	0.149842	-1.376365	-2.268658
H	1.096083	0.0	0.0
N	-2.042193	-0.051604	-1.467734
O	-2.593535	-0.628794	-2.390388
O	-2.588433	0.550324	-0.551788
N	-0.13676	1.248122	-2.258795
O	1.050658	1.404912	-2.458035
O	-1.063424	1.950818	-2.639767
N	-0.511127	-1.16233	0.661852
H	-1.076687	-0.869119	1.449007
H	0.273593	-1.700753	1.006662
N	-0.376594	1.277941	0.712232
O	-0.8291	1.194748	1.84959
O	-0.151027	2.321696	0.11174
Br	3.364409	0.0	0.0
