17

C	-0.425866	-0.004544	-1.470756
C	0.0	0.0	0.0
Cl	0.631723	0.833829	-2.572092
H	1.091937	0.0	0.0
N	-0.450658	-1.474188	-1.920201
O	-1.528384	-1.937248	-2.292159
O	0.604609	-2.074582	-1.836211
N	-1.884108	0.464185	-1.654314
O	-2.203378	1.070912	-2.662155
O	-2.626076	0.198563	-0.710935
N	-0.472457	-1.055507	0.797166
H	0.176605	-1.824563	0.853598
H	-1.441243	-1.304858	0.68629
N	-0.428637	1.314083	0.567001
O	-0.413943	2.279748	-0.202859
O	-0.474635	1.437363	1.790001
Br	3.179492	0.0	0.0
