18

C	0.0	0.0	0.0
C	-0.480613	0.007976	-1.470869
F	1.376542	0.0	0.0
H	-1.579176	0.016452	-1.344915
N	-0.549125	0.959798	0.85359
H	-1.588425	0.773172	0.705308
H	-0.338076	1.879219	0.48812
N	-0.33556	-1.375352	0.640638
O	0.104806	-1.524799	1.774674
O	-0.948156	-2.222789	0.003817
C	0.084141	-1.060262	-2.386797
H	-0.101044	-0.789573	-3.427907
H	1.161397	-1.167308	-2.256397
H	-0.40802	-2.004401	-2.177042
N	-0.061598	1.349458	-1.998832
O	-0.759543	2.325811	-1.71701
O	0.967298	1.418419	-2.675497
F	-2.762236	0.0	0.0
