13

C	0.0	0.0	0.0
C	-0.422243	-0.019477	-1.483785
Br	1.953357	0.0	0.0
H	0.216655	0.726228	-1.988434
H	-0.351416	-0.88723	0.521096
H	-0.316784	0.910705	0.504026
N	-1.786521	0.331643	-1.768277
H	-1.885809	1.339785	-1.719518
H	-2.491144	-0.012644	-1.06832
N	-0.18576	-1.373552	-1.994
H	-0.664035	-1.415921	-2.885372
H	0.805332	-1.522706	-2.144165
H	-3.739665	0.0	0.0
