13

C	0.0	0.0	0.0
C	-0.356275	-0.038748	-1.517762
Br	1.944602	0.0	0.0
H	0.468169	0.452137	-2.046614
H	-0.3612	-0.869361	0.542082
H	-0.334202	0.919604	0.474251
N	-1.563835	0.69293	-1.787729
H	-1.887642	0.387058	-2.699546
H	-2.306137	0.435398	-1.091991
N	-0.376923	-1.41217	-2.055137
H	-1.089394	-1.927367	-1.553595
H	0.523091	-1.853283	-1.875704
H	-3.337139	0.0	0.0
