13

C	0.0	0.0	0.0
C	-0.540136	-0.174976	-1.447019
Br	1.945837	0.0	0.0
H	0.320294	-0.268268	-2.118458
H	-0.312499	-0.812062	0.651148
H	-0.313325	0.950838	0.421649
N	-1.263646	1.040941	-1.794177
H	-1.61474	0.8943	-2.737121
H	-2.097901	1.009697	-1.190598
N	-1.383632	-1.353836	-1.634362
H	-0.907582	-2.178823	-1.277637
H	-2.211614	-1.175982	-1.047026
H	-3.265336	0.0	0.0
