13

C	0.0	0.0	0.0
C	-0.620105	0.00039	-1.362623
Br	1.956756	0.0	0.0
H	-1.698682	0.004826	-1.09136
H	-0.304505	-0.891538	0.5397
H	-0.304055	0.892766	0.538464
N	-0.323284	-1.247001	-2.061545
H	0.611552	-1.206345	-2.457824
H	-0.979917	-1.347156	-2.826357
N	-0.320217	1.245101	-2.062846
H	-0.974648	1.349186	-2.829255
H	0.614254	1.196015	-2.45403
H	-3.309878	0.0	0.0
