13

C	-0.462389	0.127104	-1.426446
C	0.0	0.0	0.0
Cl	-0.642809	-1.631375	-2.1704
H	1.089396	0.0	0.0
H	-0.311345	0.908303	0.527388
H	-0.41758	-0.875428	0.493873
N	-1.927619	0.584922	-1.554971
O	-2.210661	1.289399	-2.530647
O	-2.721066	0.204137	-0.693358
N	0.36175	0.961174	-2.139048
H	1.375998	0.835679	-1.957149
H	0.020839	1.346945	-2.983265
H	2.967045	0.0	0.0
