15
Coordinates from ORCA-job run
  C   0.70115600802813     -0.48430814017791     -0.01511348672707
  C   -0.85226137342000     -0.47380983468036      0.04447648581396
  Cl  1.18470349098160     -1.72921216045827     -1.20689558346530
  H   -1.16655010361955     -1.50362932031995      0.23918904337785
  C   1.26445373671519      0.86439677954426     -0.43686548969863
  H   0.88713148948012      1.11007323762925     -1.42974938140242
  H   0.96953365161274      1.63495985074228      0.28063899617294
  H   2.35291543091415      0.81859540930157     -0.47521315669645
  C   1.22428265152544     -0.88787630551337      1.29053828593532
  N   1.63125135356293     -1.19305502262181      2.35002145809237
  N   -1.40775741959224     -0.03830247855855     -1.22182791706431
  H   -1.58215120951289      0.95804093250791     -1.22438728661332
  H   -2.27795516690672     -0.51471695677754     -1.41360542816362
  C   -1.28099317119576      0.36083222085240      1.18191649061991
  N   -1.64575936857316      1.08001178853008      2.03687696981875
