15
Coordinates from ORCA-job run
  C   0.66846060195296     -0.45352768511359     -0.01484085162468
  C   -0.88001603281697     -0.38396865657494      0.08170233599589
  Cl  1.05520675065133     -1.67201483014066     -1.28212719752308
  H   -1.22547484673081     -1.38689266404875      0.37371905153752
  C   1.29440390747361      0.88060014867845     -0.38812489677431
  H   0.85588050727050      1.22976981765724     -1.32131875979224
  H   2.37249196497937      0.76485660735233     -0.50266781350869
  H   1.09816448141908      1.61103515104437      0.40040920346432
  C   1.19788450856529     -0.95375099627830      1.25349109093101
  N   1.61403351862169     -1.33371355787773      2.28485281420102
  N   -1.43784165981609      0.09846017150352     -1.17316394794329
  H   -2.38933266606093      0.41465120341125     -1.03340782676667
  H   -1.44858141305998     -0.65455094871825     -1.85008256894546
  C   -1.23879249790152      0.54357478955639      1.16003063261678
  N   -1.53548712454753      1.29447144954865      2.01252873413188
