15
Coordinates from ORCA-job run
  C   0.65426827531825     -0.15111474248270     -0.26029929764051
  C   -0.84362219840041     -0.02600449152931      0.12622691031931
  Cl  0.82629252741831     -0.11315906456390     -2.03517072687471
  H   -0.85596340302967      0.03610391027827      1.22727896338465
  C   1.48823699711936      0.96822176864219      0.35116254965435
  H   2.53859959768826      0.83371174357756      0.09223642956089
  H   1.15162136750513      1.93046289882124     -0.03839122180411
  H   1.38895372629982      0.96045724386731      1.43985387646140
  C   1.10540436122331     -1.45583083350542      0.22809581998751
  N   1.42866505130288     -2.49159234619091      0.67921291558059
  N   -1.60878762151210     -1.13697564635506     -0.40865795163096
  H   -1.49126770573228     -1.95393338689340      0.17826306119646
  H   -2.59350082675061     -0.91087395545453     -0.45386774580348
  C   -1.37282952490648      1.24484463136161     -0.37631445078095
  N   -1.81607062354377      2.26568227042703     -0.74962913161043
