15
Coordinates from ORCA-job run
  C   0.56642590191977     -0.48411180013232      0.05728410060489
  C   -0.96275354257751     -0.24419853448567     -0.13835942363301
  Cl  0.86619625090196     -2.24784371396794     -0.03111513299664
  H   -1.21217160765291     -0.67460263763153     -1.11530390956528
  C   1.38166194329123      0.20517526773101     -1.03019045215118
  H   1.04719131189693     -0.13959238892198     -2.01132690735171
  H   1.27185387028030      1.28878803906383     -0.96146120795040
  H   2.43787226967145     -0.03932586471605     -0.91578630668312
  C   0.95575188701763      0.00482276643889      1.37884702728025
  N   1.23659775731874      0.46743512219983      2.42211603437529
  N   -1.38466224299278      1.13646903404956     -0.12033196370168
  H   -1.16045007474795      1.59074200955576      0.75645912592303
  H   -1.00274169150575      1.66044241799977     -0.89474219072955
  C   -1.71690796449911     -0.98254270563384      0.88460461868182
  N   -2.32386406832202     -1.54165701154934      1.71930658789728
