15
Coordinates from ORCA-job run
  C   0.62159667436115     -0.26281034556240     -0.20312647761783
  C   -0.82158415315787     -0.00043068639082      0.27860619874404
  Cl  0.58300775146471     -0.61705427756409     -1.96389768384866
  H   -0.75012283985715      0.17544466854025      1.35865911482273
  C   1.53725318568244      0.93013079353565      0.03940524223012
  H   2.54951365573521      0.69379861634331     -0.28911757718759
  H   1.55996327054737      1.16622679149483      1.10673376481586
  H   1.17852368808531      1.79691605236042     -0.51716180544717
  C   1.12658640666945     -1.44515764680677      0.49585925302728
  N   1.58393648413610     -2.34519319971886      1.09614315791264
  N   -1.64911036152261     -1.16917857363958      0.07478579641973
  H   -2.51382661002155     -1.08583701439128      0.59404196532263
  H   -1.87312871173382     -1.28035394173757     -0.90660233792756
  C   -1.33581587541822      1.23962987105679     -0.33802754872120
  N   -1.79579256497052      2.20386889248007     -0.82730106254500
