15
Coordinates from ORCA-job run
  C   0.65908478636383     -0.46709828833082     -0.02342364299479
  C   -0.88464931317242     -0.36460052375163      0.11027339658776
  Cl  0.98985071347283     -1.71612501546728     -1.27668438901109
  H   -1.24255312674298     -1.35499248961080      0.42890961646076
  C   1.30174220726563      0.84707211418921     -0.43681734070513
  H   0.84645137192106      1.18882488680701     -1.36457004032606
  H   2.37396429031705      0.70731638293657     -0.57660900485023
  H   1.14062659844725      1.59489982596531      0.34317159639671
  C   1.20999753362702     -0.95415461568887      1.24089006795590
  N   1.64173989698932     -1.32202589070586      2.27010641108731
  N   -1.46438118567708      0.10710722201661     -1.13882705493595
  H   -1.50509169743989     -0.65665062646284     -1.80245308988938
  H   -2.40640507771217      0.44269168425689     -0.98128460477832
  C   -1.19848091641120      0.58880767483362      1.18020996606024
  N   -1.46289608124823      1.35792765901287      2.02710811294227
