15
Coordinates from ORCA-job run
  C   0.64451479611161     -0.17827762122487     -0.26704621752459
  C   -0.84258286869265      0.00890131668771      0.13595921940059
  Cl  0.79788876500767     -0.14964522321223     -2.04381967838470
  H   -0.84022429574530      0.07364562196579      1.23689357700893
  C   1.53070388392081      0.90647448391738      0.33318353815861
  H   1.22872992452229      1.88150898816778     -0.05258585099948
  H   1.44493782387441      0.90286453859885      1.42294136747047
  H   2.57138794655670      0.72950872266403      0.06133577193898
  C   1.04741473892636     -1.49963352946318      0.21846391398339
  N   1.33421465406575     -2.54663664862265      0.66845421137156
  N   -1.65846599623649     -1.07095733156444     -0.38764320601600
  H   -1.57054178815250     -1.88998166320545      0.20182233252780
  H   -2.63324719373097     -0.80378382803132     -0.42614616702316
  C   -1.32462646063558      1.29927681257061     -0.36438555105547
  N   -1.73010392979212      2.33573536075198     -0.73742726085694
