15
Coordinates from ORCA-job run
  C   0.69811288400928     -0.36845347885263      0.07777120779276
  C   -0.82081846483482     -0.34118146471238     -0.21776550474384
  Cl  1.23816786471221     -2.07633757650685      0.05121915802239
  H   -0.94286511372412     -0.74537694704491     -1.22809899248596
  C   1.47695708124814      0.42094984408616     -0.96565697225893
  H   2.54362900975690      0.37896914234779     -0.74325255114446
  H   1.30534774634540     -0.01942290143882     -1.95016555484318
  H   1.13618581411908      1.45543170098584     -0.96681806086837
  C   0.92239386475437      0.17616575193501      1.41719284194425
  N   1.06472307631073      0.66781467748988      2.47514147407865
  N   -1.28045843522523      1.03738822012632     -0.20776386860578
  H   -2.17620366895392      1.10924128368247     -0.67456667083369
  H   -1.40096364595331      1.36061350837174      0.74630824025118
  C   -1.55704446177057     -1.21515265311508      0.71598796268936
  N   -2.20516355079412     -1.84064910735455      1.47046729100560
