15
Coordinates from ORCA-job run
  C   0.67285176118797     -0.44718631713259     -0.02498364511790
  C   -0.87408646844637     -0.39142402651522      0.10054693888920
  Cl  1.04700308506208     -1.66983055602712     -1.29199855694111
  H   -1.20443255982470     -1.39563763369574      0.40528027137108
  C   1.27929136438606      0.89015370651518     -0.41804035454413
  H   2.35626836853780      0.78378564455201     -0.55075474980683
  H   0.82132559965927      1.22878079877790     -1.34580357604340
  H   1.08974257613124      1.62417219879954      0.36873452129281
  C   1.22984277248100     -0.93493421870299      1.23636886051652
  N   1.66590689802561     -1.30512289666441      2.26301870324085
  N   -1.46023759010352      0.07823795955845     -1.14625705104729
  H   -2.41202732286362      0.38572170003908     -0.99016654033167
  H   -1.47614170310626     -0.67864927587115     -1.81888677362658
  C   -1.22166098029966      0.53976165344826      1.17959061376879
  N   -1.51364580082690      1.29217126291879      2.03235133837966
