15
Coordinates from ORCA-job run
  C   0.70580119301380     -0.47538516668386     -0.02252142835697
  C   -0.84571122587655     -0.48628815191444      0.07101665278880
  Cl  1.18201964491120     -1.73142935458353     -1.20570033532489
  H   -1.14075949004921     -1.51733324419432      0.28789991637144
  C   1.24020740445873      0.87471081133593     -0.47688323743643
  H   0.83917313738484      1.09951298847535     -1.46540550234045
  H   0.94906195543068      1.65213039833028      0.23479830321190
  H   2.32821568552459      0.84361507474641     -0.53711242462006
  C   1.26538872250638     -0.85066295843030      1.27645301850125
  N   1.70924318851803     -1.13321159445752      2.32753346042096
  N   -1.43471872076217     -0.07859793582728     -1.18924756601977
  H   -1.61873107060365      0.91604541131670     -1.20525688517178
  H   -2.30457019760789     -0.56656349053990     -1.35231769381997
  C   -1.26127378616868      0.36022383579746      1.20460169528428
  N   -1.61534644068009      1.09223337662903      2.05314202651169
