15
Coordinates from ORCA-job run
  C   0.66791896677117     -0.14140225819901     -0.22841882679850
  C   -0.84942863158165     -0.03120421204707      0.07873822140601
  Cl  0.93756211242037     -0.04088945930474     -1.98871737168358
  H   -0.92290143692367     -0.00766069699378      1.17889344590348
  C   1.46377373686255      0.95643108312893      0.46704793018762
  H   1.14573786862099      1.93155149275406      0.09461556182098
  H   1.30583138163507      0.90948201923822      1.54770326508685
  H   2.52698292533091      0.83271763181491      0.26083924919983
  C   1.09554766459435     -1.46195134314346      0.23779333510524
  N   1.39868569279143     -2.51247245709182      0.66832718272002
  N   -1.58066859703041     -1.12355171253926     -0.53590985246858
  H   -2.56134803581363     -0.89548409179028     -0.63216880307837
  H   -1.49671551372321     -1.95962128613023      0.02967898395865
  C   -1.35315198192748      1.25605452232363     -0.40808988206874
  N   -1.77782615202680      2.28900076797990     -0.76933243929091
