15
Coordinates from ORCA-job run
  C   0.66199136435425     -0.46360320119014     -0.01857641575938
  C   -0.88212365850644     -0.36719943607733      0.11619974317757
  Cl  0.99695399123799     -1.72799587333491     -1.25521439546671
  H   -1.23410629506833     -1.35613386111992      0.44590491287682
  C   1.29742022985618      0.84784968966776     -0.45128307707276
  H   0.84156163093808      1.17259501976701     -1.38492979761915
  H   2.37067281379100      0.71218874863730     -0.58715865868441
  H   1.13054270023550      1.60696589595299      0.31665068872442
  C   1.21670159474354     -0.93070612025512      1.25157223839099
  N   1.65031764355199     -1.28513142408468      2.28482971958906
  N   -1.46612560726074      0.08742218441637     -1.13713459316403
  H   -1.50450361539017     -0.68429084228655     -1.79158189912835
  H   -2.40939438252839      0.42028022695880     -0.98184726825752
  C   -1.19959542102432      0.59543742894953      1.17671481895086
  N   -1.46831298893013      1.37132156399889      2.01585398344261
