15
Coordinates from ORCA-job run
  C   0.67336980052893     -0.44589373822059     -0.02107629373487
  C   -0.87282066296430     -0.39081906311379      0.11304597034967
  Cl  1.04203358840168     -1.69172397716850     -1.26701657084153
  H   -1.19927926312505     -1.39035459037082      0.43695444169743
  C   1.27441919658054      0.88507778581140     -0.44327814146847
  H   0.80856253295394      1.20598753258926     -1.37333979036271
  H   1.08967803922406      1.63290151607103      0.33163066181939
  H   2.35051416902201      0.77800417686483     -0.58221536077673
  C   1.24029093600307     -0.90803084958938      1.24545812823772
  N   1.68564931926291     -1.25740708807416      2.27545324586042
  N   -1.46746739409784      0.05547241931308     -1.13837686891524
  H   -1.48620898112749     -0.71362512054871     -1.79686081301494
  H   -2.41899056953554      0.36382741781689     -0.98187590941914
  C   -1.21585999498875      0.55763848767484      1.17825158618604
  N   -1.50489071613816      1.32094509094463      2.02224571438295
