15
Coordinates from ORCA-job run
  C   0.63031033768643     -0.19692564110934     -0.28738385203171
  C   -0.83416366239244      0.02102815138612      0.17825582521826
  Cl  0.69353095889008     -0.27715427562863     -2.06811909120512
  H   -0.77547358861002      0.15143575258877      1.27178843243356
  C   1.54729135069577      0.91839090189003      0.19988772203022
  H   1.51609183556010      0.98250316122666      1.29071281803871
  H   2.57278566477757      0.72005207042070     -0.11199116842395
  H   1.22802213026909      1.86918649338699     -0.22999604560714
  C   1.05532618404013     -1.48823983414091      0.25670028937907
  N   1.36308207761803     -2.50680812848959      0.75534547049331
  N   -1.67742459443307     -1.08446369598299     -0.23720389288027
  H   -1.56308947190886     -1.86598857736506      0.39691726764270
  H   -2.65219976516521     -0.81471622869514     -0.24551370606291
  C   -1.33898295941213      1.28105933536572     -0.37423976846888
  N   -1.76510649761546      2.29064051514667     -0.79516030055585
