15
Coordinates from ORCA-job run
  C   0.58233145391746     -0.14009018776667     -0.23851189223008
  C   -0.89791117456333     -0.02220693494373      0.24645073568522
  Cl  0.61038236344849     -0.05570506679881     -2.02909245314210
  H   -0.85403719332635     -0.07972025579024      1.34173915832423
  C   1.47198457992141      0.95489347026005      0.33266632537532
  H   2.50137526598425      0.81537555991682      0.00123403703689
  H   1.44515931794297      0.92058591889627      1.42523286716691
  H   1.12046835157564      1.93000596194795     -0.00700285130981
  C   1.05523524030460     -1.46446110629162      0.16501245263703
  N   1.39458977994334     -2.52524933504557      0.54023187042820
  N   -1.82064041885194     -1.03095946839212     -0.21101327489589
  H   -1.85753265179761     -1.05607236583219     -1.22230895527506
  H   -1.55406069435499     -1.94393378181117      0.13673828403029
  C   -1.40444345813277      1.31268118153336     -0.10013375879441
  N   -1.79190076201117      2.38485641011768     -0.37924254503673
