15
Coordinates from ORCA-job run
  C   0.63780653483574     -0.25094432660909     -0.15868232547830
  C   -0.84076365802033     -0.01445583398701      0.21671520067499
  Cl  0.73725333497061     -0.56970654692541     -1.92426206883297
  H   -0.85356108165979      0.14279503369172      1.30189564701780
  C   1.51711779341470      0.94722155300741      0.17538713646505
  H   1.19121350447253      1.82041941894521     -0.39123861501303
  H   1.45481710010709      1.16319513289386      1.24537281935856
  H   2.55449215446775      0.72863883851363     -0.07855847074453
  C   1.10428390330204     -1.44238997764645      0.55174542587229
  N   1.52928737545880     -2.35175770984446      1.16127825434348
  N   -1.63511931535694     -1.18886003011441     -0.06910124929375
  H   -1.77839756643179     -1.28760808321341     -1.06662920273638
  H   -2.53965547098533     -1.12298766503324      0.38013829741248
  C   -1.32276345681656      1.23039268199122     -0.41625868657466
  N   -1.75701115175852      2.19604751433045     -0.92580216247102
