15
Coordinates from ORCA-job run
  C   0.63426516101247     -0.24828940735245     -0.18084205669688
  C   -0.83805599473200     -0.02122162101743      0.22426216273066
  Cl  0.71055703615903     -0.48094370475726     -1.96039122243294
  H   -0.83679892829772      0.07745060840880      1.31646973166535
  C   1.52614128131850      0.92616664066180      0.20121125749787
  H   1.47858200662550      1.08870212936435      1.28144087185206
  H   2.55875768823485      0.71335266602082     -0.07634529018342
  H   1.19972779403459      1.82878106370892     -0.31700132380192
  C   1.10083911860079     -1.47458735416616      0.46734750109925
  N   1.52595374127744     -2.41081308708742      1.03509642602381
  N   -1.64503934953781     -1.17300604640045     -0.11442996872990
  H   -1.80602524626838     -1.21377986149929     -1.11355415877762
  H   -2.54135712881003     -1.12746744198626      0.35350672267775
  C   -1.31741062560437      1.25947734724990     -0.33481891738056
  N   -1.74813655401288      2.25717806885216     -0.78195173554352
