15
Coordinates from ORCA-job run
  C   0.61261769124380     -0.47669107499334     -0.00228013063390
  C   -0.94729294464582     -0.43626197401380      0.14006097388690
  Cl  0.99021849454844     -1.71815066506404     -1.24615087567420
  H   -1.25601951372232     -1.44204750125491      0.44565266061217
  C   1.20509172579251      0.85700403835500     -0.42980471111320
  H   2.28682039973282      0.76944542469357     -0.53300663171677
  H   0.98172100256099      1.62065068933537      0.31906480666404
  H   0.79208206697820      1.15521968161404     -1.39429008353865
  C   1.19195542680379     -0.92315010907137      1.26283702727639
  N   1.65153430015735     -1.25837706858422      2.29156215629679
  N   -1.70139894735510     -0.07493084506747     -1.03510197995547
  H   -1.51113295755425     -0.71243460611974     -1.79717589379942
  H   -1.51654504003972      0.87534073820800     -1.32772812233286
  C   -1.27511270230453      0.49388912695415      1.22867589934003
  N   -1.50553900219615      1.27149414500877      2.07768490468816
