15
Coordinates from ORCA-job run
  C   0.71493192653077     -0.33972708442632      0.04808537554505
  C   -0.79257462930328     -0.34412007232603     -0.30162910425584
  Cl  1.35202723752047     -1.99195915136249     -0.22357356092636
  H   -0.85854958480542     -0.58967013675273     -1.36670516937152
  C   1.48088027943057      0.64398143492790     -0.82593695006045
  H   1.36483823177324      0.35835982124636     -1.87357940953330
  H   1.08314875099226      1.64695241373133     -0.67751007470128
  H   2.54078255575856      0.62048390037601     -0.57078388731398
  C   0.86426960425657     -0.00403678293369      1.46438449854261
  N   0.94409232799330      0.32074129974704      2.59112589175345
  N   -1.33022791955866      0.99054691008737     -0.09648158339214
  H   -1.49885676505713      1.15324537336431      0.89055148149555
  H   -2.21406407179460      1.08763534514546     -0.58127678376229
  C   -1.50773323835455     -1.39116478177220      0.45330610843044
  N   -2.14396470538209     -2.16126848905231      1.07202316755007
