15
Coordinates from ORCA-job run
  C   0.61035528725730     -0.48055080777535     -0.01822839611571
  C   -0.94414598190912     -0.42609239932857      0.17301038668565
  Cl  0.93857573493475     -1.73265930305366     -1.26535654734226
  H   -1.25101187495944     -1.42739255668077      0.49484373160274
  C   1.20013855926070      0.84511942461776     -0.47312861815745
  H   0.76310964469621      1.13754914392178     -1.42888795770506
  H   1.00246073847720      1.61741357500595      0.27421463407560
  H   2.27803375624483      0.74868615934153     -0.60511121013554
  C   1.22248849218895     -0.92642322025795      1.23112564243877
  N   1.69102563694345     -1.27279779425529      2.25221219753558
  N   -1.73219452390245     -0.06613124514054     -0.97995218563725
  H   -1.54551182228684      0.87898986402532     -1.28815840821186
  H   -1.57527117333513     -0.71331804089642     -1.74156442927521
  C   -1.22941918359118      0.51430135999225      1.26481974689461
  N   -1.42763329001924      1.30230584048397      2.11216141334740
