15
Coordinates from ORCA-job run
  C   0.70327033752418     -0.36403241526344      0.03813452758351
  C   -0.81808290268544     -0.32774120848360     -0.24448283944552
  Cl  1.26466222768745     -2.05386593310839     -0.15630192124652
  H   -0.94183611788278     -0.63093622634543     -1.28946892897611
  C   1.46449488013582      0.53247849932635     -0.92896467550508
  H   1.29588740036031      0.18339814819450     -1.94983728264857
  H   1.10665626249215      1.55649003775582     -0.83183265365723
  H   2.53263684231995      0.48766237545947     -0.71473245789709
  C   0.92962856756957      0.05183904637630      1.42266121674629
  N   1.07211831938557      0.43733814159279      2.52372483788049
  N   -1.29532841232797      1.03644988958682     -0.09440912396491
  H   -2.19380284935449      1.14337424082238     -0.54898342733979
  H   -1.41540754339726      1.26102147370520      0.88758964455296
  C   -1.53682697110985     -1.30174244875675      0.59958717751662
  N   -2.17107004071720     -2.01373362086200      1.28631590640094
