15
Coordinates from ORCA-job run
  C   0.60299137776388     -0.10242554421177     -0.20358645537822
  C   -0.91102376092542     -0.07125786319799      0.18022140880761
  Cl  0.75115633956840      0.08816267936856     -1.98003439146993
  H   -0.94054616268896     -0.19020527438076      1.27111122771481
  C   1.40281046887968      0.99092465064207      0.49032647982896
  H   2.45731425164028      0.91319656156391      0.22438587475030
  H   1.30392424468086      0.88973728026242      1.57443811169973
  H   1.03240771912042      1.96976167518646      0.18343794997777
  C   1.10354569369910     -1.42866967477257      0.15785511188747
  N   1.46165763094966     -2.49569327246381      0.49651213521151
  N   -1.75495325179353     -1.08794676202552     -0.39668914778775
  H   -1.71922694190531     -1.05749075384801     -1.40796247899766
  H   -1.47460932046318     -2.00796633672990     -0.07970109931655
  C   -1.45038170237370      1.25998413877644     -0.12927750636079
  N   -1.86506658615217      2.32888849583048     -0.38003722056727
