15
Coordinates from ORCA-job run
  C   0.60161776936398     -0.10194368551134     -0.20768503370956
  C   -0.91056519947658     -0.07421343851446      0.18241225273465
  Cl  0.74255602500779      0.09895899018378     -1.98361592915107
  H   -0.93550636221876     -0.20419729719600      1.27212406579038
  C   1.40381304104396      0.98803851528704      0.48887496246068
  H   1.03433503253312      1.96853876954706      0.18567427996258
  H   1.30590371966374      0.88359855237548      1.57290592584140
  H   2.45798262222756      0.90944888446562      0.22133083659709
  C   1.10505321762498     -1.42969162110234      0.14444566832824
  N   1.46779993864721     -2.49755040779269      0.47552615891410
  N   -1.75757828963276     -1.08455998333541     -0.40070775387812
  H   -1.47667487905561     -2.00772300942143     -0.09342059618054
  H   -1.72605975845694     -1.04474489467963     -1.41186131035306
  C   -1.45016688317513      1.26089900822213     -0.10886953094217
  N   -1.86350999409657      2.33514161747220     -0.33813399641460
