15
Coordinates from ORCA-job run
  C   0.70735018901868     -0.34243027450448      0.10564206816288
  C   -0.81062098107073     -0.37844343583313     -0.19314175519145
  Cl  1.29320050307756     -2.03260409528345      0.20566226307579
  H   -0.91887241407574     -0.85916815576446     -1.17100440716911
  C   1.46834066951506      0.38857897953795     -0.99213716619045
  H   1.31202521732670     -0.12769621265296     -1.94168857164430
  H   1.10000901547399      1.41061132675205     -1.07011664591285
  H   2.53496020306411      0.39193443237754     -0.76555361746155
  C   0.91256182716958      0.30513192658405      1.40155600522442
  N   1.03775841041263      0.87505284332962      2.42173222871028
  N   -1.30738053983463      0.98430813544507     -0.28563325529055
  H   -1.44094345633599      1.37311996122785      0.64187821610507
  H   -2.20273028386504      0.99711596522009     -0.75854898009469
  C   -1.52625136025776     -1.20046555449835      0.80175300400614
  N   -2.15940699961842     -1.78504584193740      1.60060061367038
