15
Coordinates from ORCA-job run
  C   0.70179575986053     -0.48284269461961     -0.01948535048209
  C   -0.85026291326599     -0.47669592518333      0.07030569641442
  Cl  1.16701019962235     -1.74786332028647     -1.19718071720735
  H   -1.15686782664741     -1.50317506483850      0.29259675579278
  C   1.25142375289983      0.85988334013084     -0.47664726365602
  H   2.33917378241952      0.81807941859915     -0.53391783188464
  H   0.96610877385140      1.64243972859755      0.23163231988012
  H   0.85534837837709      1.08575647552809     -1.46695262725692
  C   1.25177759862253     -0.86014253110199      1.28301362906820
  N   1.68267736740839     -1.14311393067743      2.33922772363027
  N   -1.43201992650484     -0.06936827696957     -1.19357207151751
  H   -2.30543628649920     -0.55077161557137     -1.35710351893420
  H   -1.60768377015739      0.92664757681524     -1.21392996261467
  C   -1.25881083293774      0.38136452745644      1.19789599353053
  N   -1.60523405704907      1.12080229212095      2.04311722523709
