15
Coordinates from ORCA-job run
  C   0.60924051381835     -0.48134257948596     -0.01146901094802
  C   -0.94555855535394     -0.42384929899713      0.17430492012765
  Cl  0.94022542706701     -1.74818169732431     -1.24338164231055
  H   -1.25437948530597     -1.42106260835653      0.50670521496845
  C   1.20119269173645      0.83880481752748     -0.47955945158168
  H   0.76238884214521      1.12486410245021     -1.43631892716334
  H   1.00773525502812      1.61725686213956      0.26234760249405
  H   2.27845207894983      0.73871994278743     -0.61378915426907
  C   1.21910705503069     -0.91211856060864      1.24455529399294
  N   1.68974262569912     -1.24156945536158      2.27012982280080
  N   -1.72977366676551     -0.07661881235894     -0.98517633708811
  H   -1.54432326675983      0.86599846114863     -1.30120804233125
  H   -1.56813649349201     -0.73035927596636     -1.74004482520897
  C   -1.23386926959323      0.52814132532890      1.25523438223392
  N   -1.43304375220430      1.32131677707723      2.09767015428319
