15
Coordinates from ORCA-job run
  C   0.57830824345353     -0.14970416477935     -0.24476372718907
  C   -0.89416548144485     -0.00885982250869      0.25774393033645
  Cl  0.58420961815815     -0.08622295508598     -2.03638227061617
  H   -0.83660054729053     -0.05589441183577      1.35293244629037
  C   1.48791613923570      0.94115084812197      0.30222674935379
  H   1.14428194344147      1.91621442725813     -0.04548185646552
  H   2.51147418901243      0.78482646275172     -0.03960590461902
  H   1.47371329362574      0.92094228661526      1.39538376859879
  C   1.03942304235773     -1.47549566750832      0.16749551272217
  N   1.36295496330119     -2.53979714579941      0.54731254034452
  N   -1.83484705652555     -1.01106186710943     -0.17700486428348
  H   -1.57494349712526     -1.92342734351637      0.17742236806893
  H   -1.88486736572838     -1.04696268339190     -1.18754310531472
  C   -1.38887376138941      1.32867387250249     -0.09505866809123
  N   -1.76598372308196      2.40461816428566     -0.37367691913583
