15
Coordinates from ORCA-job run
  C   0.62259585415897     -0.46435042987088     -0.01777608881816
  C   -0.93266306955086     -0.45237243844150      0.17383009540981
  Cl  0.98459401264325     -1.70961243540169     -1.26263476256178
  H   -1.21180878446394     -1.46095697243682      0.49806639658244
  C   1.17552414491552      0.87631325777518     -0.47531102308438
  H   2.25483773193723      0.80809741282202     -0.61278489534324
  H   0.72619407497262      1.15814318689587     -1.42841672404471
  H   0.96193147200139      1.64235086774186      0.27396875449381
  C   1.24881147696535     -0.88901444720031      1.23232618910826
  N   1.73191990659920     -1.21287126933093      2.25390754599545
  N   -1.73035509870030     -0.11693275723385     -0.98005499451508
  H   -1.57306581439971      0.83376652373397     -1.28712614893548
  H   -1.55170045592617     -0.75810920252902     -1.74191025075196
  C   -1.24369488394867      0.48202305093585      1.26364898319382
  N   -1.46212056720387      1.26352565254027      2.11226692327121
