15
Coordinates from ORCA-job run
  C   0.62774713863756     -0.38317564031533      0.11376265609133
  C   -0.91837961113107     -0.40011446062149     -0.09135834459564
  Cl  1.18673264194107     -2.07909637924717      0.25685306247326
  H   -1.09643231637027     -0.99125176109538     -0.99736350652388
  C   1.33896298102197      0.26721794546709     -1.06682874897491
  H   1.07088692724383      1.32246808599698     -1.14116652467563
  H   1.06461349875436     -0.25064476871109     -1.98876659614594
  H   2.41895454312127      0.19758863569745     -0.93550658938104
  C   0.93503240052922      0.33006236179441      1.35250575856769
  N   1.16624587585822      0.96590325288441      2.31368934932555
  N   -1.53947785647367      0.89332504674683     -0.25401421087627
  H   -1.39319019079600      1.48936306125078      0.55150183729540
  H   -1.23260103718455      1.35929830091931     -1.09599889712282
  C   -1.56090572624803     -1.09548462683452      1.03290799733387
  N   -2.06818926890390     -1.62445905393229      1.94978275720903
