15
Coordinates from ORCA-job run
  C   0.61546499224162     -0.47432300843057     -0.00478759863947
  C   -0.94084298364115     -0.43448998484163      0.17527046059900
  Cl  0.96672474439077     -1.74852386966226     -1.22278341034799
  H   -1.23798724777292     -1.43242228188624      0.51605573321740
  C   1.19217600356543      0.84891454503783     -0.48334249399229
  H   0.98377546377155      1.63231762765014      0.24919594317648
  H   2.27146353173586      0.76228406043317     -0.61019907800232
  H   0.75553878937908      1.11902710104785     -1.44566759653499
  C   1.22602741163750     -0.88441682436431      1.25779645101580
  N   1.69665824452136     -1.19682773256723      2.28867226876572
  N   -1.72504975739826     -0.10832402899419     -0.99037794742064
  H   -1.54889196258428      0.83306585262601     -1.31539970543077
  H   -1.55375244471878     -0.76806544251154     -1.73790728994791
  C   -1.24465386054366      0.52509377497958      1.24507012239660
  N   -1.45665092458413      1.32669021148340      2.07640414114539
