16

C	0.0	0.0	0.0
C	-0.480697	0.094305	-1.447719
Cl	1.805783	0.0	0.0
H	-0.002872	-0.676171	-2.049839
H	-1.571816	0.009811	-1.44426
N	-0.483447	1.132218	0.735334
H	-1.498113	1.156281	0.597262
H	-0.313139	0.977783	1.723192
C	-0.4232	-1.359586	0.550595
H	-1.515389	-1.397649	0.562619
H	-0.019964	-2.178642	-0.051048
H	-0.043384	-1.464535	1.570624
N	-0.13904	1.394176	-2.082624
O	0.897899	1.444751	-2.748685
O	-0.913141	2.331517	-1.911772
Br	-3.826913	0.0	0.0
