16

C	0.0	0.0	0.0
C	-0.472024	0.009179	-1.458794
Cl	1.798893	0.0	0.0
H	-1.559141	-0.130632	-1.44092
H	-0.197622	0.949467	-1.934199
N	-0.48241	1.174311	0.680546
H	-0.30887	2.000169	0.117778
H	-1.496184	1.061817	0.767489
C	-0.451776	-1.225258	0.77238
H	-1.542294	-1.270828	0.734784
H	-0.032003	-2.135048	0.350078
H	-0.122496	-1.109682	1.806277
N	0.1214	-1.05106	-2.31568
O	-0.163933	-2.221317	-2.066247
O	0.864821	-0.692871	-3.231659
Br	-3.81955	0.0	0.0
