16

C	0.0	0.0	0.0
C	-0.490688	-0.128565	-1.442211
Cl	1.793208	0.0	0.0
H	-0.220437	0.770879	-1.988515
H	-1.576788	-0.274894	-1.410132
N	-0.480722	1.295862	0.429484
H	-1.503235	1.246829	0.36354
H	-0.260086	1.403808	1.414687
C	-0.430083	-1.150297	0.90139
H	-0.076597	-0.947384	1.916784
H	-0.020834	-2.103665	0.570508
H	-1.521443	-1.196627	0.900096
N	0.106051	-1.266299	-2.183634
O	0.837073	-1.000569	-3.140015
O	-0.169108	-2.406954	-1.813116
Br	-3.82614	0.0	0.0
