17
Coordinates from ORCA-job run
  C   -0.71104221339368      0.01974737226988      0.34433264987543
  C   0.68800641233988      0.61715302864285      0.18767906839614
  F   -1.60346433894970      1.04224901539617      0.50779119699389
  H   0.85909091622977      1.28873334101949      1.02827970424978
  C   -1.17921629027130     -0.90072992607902     -0.74373032033616
  H   -2.16861866154237     -1.27753786901511     -0.48616716380264
  H   -1.23817073014039     -0.34733727074790     -1.68072706711296
  H   -0.50962406029007     -1.75073033026750     -0.85722100532418
  N   -0.66328492549757     -0.70292149663216      1.69337440919767
  O   -0.42725901122698      0.01251320843380      2.66032665911265
  O   -0.86643443457878     -1.91038360278735      1.70970651962872
  N   0.64968649708712      1.52652927873016     -1.03954375403097
  O   0.35599693476085      2.70252489524980     -0.85551244572389
  O   0.90675726321320      0.99804484035201     -2.12068721062991
  N   1.66153407867647     -0.40857300824336      0.12293047914636
  H   2.58786404240744     -0.05308238340410      0.31528244495974
  H   1.66017852117611     -0.85619909291767     -0.78511416459966
