17
Coordinates from ORCA-job run
  C   -0.61259503752699      0.11291476380213      0.39027080863986
  C   0.62989474463969      0.70944070335099     -0.31800598950386
  F   -0.96527722079825      1.03613503781872      1.33714920787140
  H   0.26799692169673      1.53449259998713     -0.93404251407765
  C   -1.79232035036633     -0.19071771056251     -0.48875369474504
  H   -2.60996937672626     -0.57181648574493      0.12472212883552
  H   -1.54534057492947     -0.92427733216820     -1.25119529820992
  H   -2.11105001461267      0.73523947578090     -0.97023248987527
  N   -0.17351509380278     -1.13002183099668      1.14811534794616
  O   0.37032968960688     -0.94927872518624      2.23305732592058
  O   -0.35621489471335     -2.20779611762941      0.59101093416517
  N   1.14545112325730     -0.32483866980411     -1.28335764791314
  O   1.98608094781904     -1.10420333172396     -0.84774163928563
  O   0.66182231794710     -0.32268045972847     -2.41280294849990
  N   1.70174527754579      1.15206065236382      0.50563507652544
  H   1.43300645379783      1.99414295988786      0.99627381476798
  H   1.97195508716577      0.44820447055296      1.18089757743830
