17
Coordinates from ORCA-job run
  C   -0.37054597462816     -0.23574200536370      0.49708925224519
  C   0.51081041330193      0.29396357519266     -0.63416718551812
  F   0.25587304676049      0.02972552588877      1.68048971224110
  H   0.19060378326994     -0.14854320355049     -1.57774507217324
  C   -1.76364528609236      0.33638181963234      0.50915629780460
  H   -1.70793203791277      1.40942628662448      0.67906176143394
  H   -2.25789095331289      0.14906310162358     -0.44298190507996
  H   -2.32991412093729     -0.13668239237153      1.31407729648126
  N   -0.49994830089170     -1.74870902521240      0.37248813808743
  O   -0.17618086476526     -2.43153479194848      1.33037978941406
  O   -0.98012065449554     -2.13250303473093     -0.68797555895017
  N   1.92528809179865     -0.27580024444952     -0.39506476643862
  O   2.81806991318419      0.52203313718440     -0.13519893080938
  O   2.03702088550588     -1.49328894654260     -0.48652111078270
  N   0.47425534115575      1.70648758767456     -0.67633648831286
  H   0.95633058614491      2.05780548560656     -1.49256200300805
  H   0.91892613191423      2.09691712474232      0.14581077336552
