17
Coordinates from ORCA-job run
  C   -0.38409510547448     -0.26464482223524      0.47128807452317
  C   0.52802659571924      0.33223186671545     -0.60056304166129
  F   0.17582268772419     -0.01265215193157      1.69056531018040
  H   0.27091438248459     -0.09378416994909     -1.57063361645646
  C   -1.79734650996294      0.25445029044531      0.43380538220116
  H   -2.23974923950880      0.07665409818025     -0.54530339391281
  H   -2.38099678510865     -0.26319628686219      1.19784313197695
  H   -1.79097461108236      1.32333980494408      0.63574204434220
  N   -0.44909867122861     -1.77687594627779      0.29683035250889
  O   -0.86205048114113     -2.14535228510840     -0.79689235300093
  O   -0.14704190068117     -2.47630170564894      1.24983340590928
  N   1.95133549017941     -0.19063172238575     -0.30947626521548
  O   2.79919701598670      0.63221746406261      0.01473849640563
  O   2.11445788891711     -1.39992348090592     -0.42875036126660
  N   0.43833663462634      1.74292252993033     -0.60405017581469
  H   0.94498117893782      2.13725168127495     -1.38496919842383
  H   0.82728142961273      2.12429483575192      0.24999220770443
