17
Coordinates from ORCA-job run
  C   -0.64679330203299      0.07126978138658      0.40647776710551
  C   0.60347840101606      0.69354707348593     -0.22870394506861
  F   -1.05490105097732      0.99509251807486      1.33476060524170
  H   0.27744215678980      1.62184811043007     -0.71888207464579
  C   -1.81196250855341     -0.29910090623781     -0.46768676443791
  H   -1.55773710756912     -1.11350138580797     -1.13970038433930
  H   -2.63392043858149     -0.59831533598483      0.18644029643617
  H   -2.12049634370120      0.56651936061579     -1.05420911167915
  N   -0.19044634198716     -1.15955640870309      1.17049516493283
  O   0.27442699455611     -2.04160731946978      0.45749253918489
  O   -0.33224147381594     -1.17948984647139      2.38196160243329
  N   1.13799808935535     -0.13375500712172     -1.37671491097617
  O   2.28210729771535     -0.55904716104750     -1.30081281042752
  O   0.38021712411914     -0.25111700024155     -2.33442549619555
  N   1.60556463635623      0.81163216814984      0.78484832297531
  H   1.29873798254385      1.45891628381409      1.49916744125026
  H   2.48852588476676      1.11566507512849      0.39849175821006
