17
Coordinates from ORCA-job run
  C   -0.64334311263173      0.07027770502178      0.45332360646700
  C   0.80198802993982      0.47183918336895      0.15495279023011
  F   -1.31808134899571      1.17551157411314      0.89112185173440
  H   1.19771136812135      0.97079618914302      1.03889661484315
  C   -1.40605788186791     -0.58953487883130     -0.65706292199044
  H   -1.50108354797751      0.10741865374023     -1.48949036987249
  H   -0.91110059868059     -1.49915292267638     -0.99088228364323
  H   -2.39890939095032     -0.85479723248087     -0.29500053187273
  N   -0.53380816408595     -0.85315448897107      1.66955357118008
  O   -0.05528449589854     -0.33849820450214      2.67394317773895
  O   -0.92735871530208     -2.00725250898274      1.55618988612305
  N   0.74991086927930      1.55787496589601     -0.91860957911897
  O   0.75842576469835      1.17298505786898     -2.08744583112875
  O   0.69337959711541      2.72114872637019     -0.53549840808377
  N   1.57020673677724     -0.66265105071868     -0.20041977971233
  H   1.36551944589987     -0.96113940048196     -1.14585603864491
  H   2.56088544455898     -0.48067136787715     -0.11771575424912
