17
Coordinates from ORCA-job run
  C   -0.65862729475066     -0.03420107998178      0.42572894544007
  C   0.50478782511717      0.77137260550337     -0.20375755263137
  F   -0.99697992782060      0.55744669032157      1.61272427940467
  H   0.08043932211711      1.46239579325307     -0.93791616501629
  C   -1.88964333587012     -0.16167541298896     -0.42251867614009
  H   -2.64779769766294     -0.72172904540507      0.12229639635739
  H   -2.26466652270893      0.84423057233985     -0.62162877825521
  H   -1.66613473421463     -0.66661125305353     -1.35858465730037
  N   -0.12526186919717     -1.40269402739511      0.85115009521869
  O   0.98074049439027     -1.38494467064392      1.38975701285259
  O   -0.83909913839626     -2.38401600731759      0.69697049839174
  N   1.32974055101400     -0.19422048816025     -1.09938629667362
  O   2.54266635159040     -0.03790445616077     -1.10880210389589
  O   0.69748061093998     -1.00114700092566     -1.77586689632301
  N   1.27164751462725      1.47775072701834      0.73629269373748
  H   1.98903904986490      2.02605556853123      0.28343373491747
  H   1.69166880096021      0.84989148506522      1.40810746991575
