17
Coordinates from ORCA-job run
  C   -0.42490608234256     -0.34035669558199      0.37899800659659
  C   0.57986559345047      0.42613186943161     -0.48127280358925
  F   0.06961644046181     -0.40559321518914      1.64962115386279
  H   0.36316016731476      0.24631847552363     -1.53453579645297
  C   -1.80614202203121      0.25968015354842      0.39136558276293
  H   -1.76050215056254      1.25223689230195      0.83420443104900
  H   -2.46128919907921     -0.38072395687905      0.98552845168480
  H   -2.19434179149179      0.33697746958091     -0.62315980163803
  N   -0.55177800931654     -1.76716560707271     -0.14060717346773
  O   -0.34222412525173     -2.68097030839423      0.64023058505730
  O   -0.91492172526236     -1.85282439902676     -1.30817053554075
  N   1.95486856190904     -0.23517480789331     -0.24693658536417
  O   2.81850709646285      0.43844023304396      0.30217806345345
  O   2.06757159467735     -1.39284955570755     -0.63458667265043
  N   0.55881810997521      1.80421654229907     -0.16721100066760
  H   0.91332785565987      1.95936934106682      0.76892122913918
  H   1.13036968542659      2.33228756894838     -0.81256713423512
