17
Coordinates from ORCA-job run
  C   -0.63792944373822      0.06870163013719      0.46213277661358
  C   0.78695904067480      0.50641286533765      0.11943079618442
  F   -1.34463970306267      1.16719533188683      0.86520388467213
  H   1.17893401069981      1.05973945555954      0.97205278464031
  C   -1.39448746139927     -0.66464756729885     -0.60555586332732
  H   -0.87217107280689     -1.56950177351880     -0.90934054816490
  H   -1.52865558327433     -0.00793796405689     -1.46488857270515
  H   -2.37102709916644     -0.94923466635540     -0.21501462321405
  N   -0.47542178279258     -0.79675116464059      1.71460108088722
  O   0.01243674376788     -0.22561174399074      2.68329174315364
  O   -0.84305185005220     -1.96362330546668      1.66279659199991
  N   0.67811721320084      1.53749875339081     -1.00267202571288
  O   0.57447440767692      2.71391254424594     -0.67358265218434
  O   0.69109662377235      1.09858744578458     -2.15222843033026
  N   1.58890151534579     -0.61664510278290     -0.19653262670707
  H   1.38384796480369     -0.96144159452306     -1.12603950545594
  H   2.57361647635052     -0.39765314370864     -0.13465481034930
