17
Coordinates from ORCA-job run
  C   -0.64799667652168      0.05574796280058      0.40648395942993
  C   0.58978833306550      0.70725494267056     -0.22389067901714
  F   -1.07546459792439      0.96473569779136      1.34068607355081
  H   0.24472327179101      1.63126083666278     -0.70911097193625
  C   -1.80458385441601     -0.33196291723664     -0.47160971098817
  H   -2.62193742318851     -0.64946671799405      0.17963963993991
  H   -2.12789961253728      0.52994992566059     -1.05551609033768
  H   -1.53381334643525     -1.13864312538093     -1.14649257954872
  N   -0.16769707930737     -1.17075711947906      1.16278317056452
  O   0.31326839183222     -2.03974568452855      0.44439842914336
  O   -0.30736326693824     -1.20018560148972      2.37436944796877
  N   1.14148126712850     -0.10274101928987     -1.37654415470085
  O   0.38784158327045     -0.22590448688060     -2.33686133309843
  O   2.29257864854243     -0.50859680622271     -1.30086606265579
  N   1.58853161364112      0.83943121901830      0.79077962757132
  H   1.26497277250502      1.46981851460647      1.51278566268310
  H   2.46356997549244      1.17080437929149      0.40896557143130
