17
Coordinates from ORCA-job run
  C   -0.63812245607936      0.11014665913367      0.37066414891758
  C   0.77552035356484      0.53674888008417     -0.05003425495651
  F   -1.38273414408996      1.24249895338677      0.47929108183284
  H   1.18272780670952      1.18417787416692      0.73705633802185
  C   -1.34426044749568     -0.90281825798500     -0.48758484463538
  H   -2.31942517197348     -1.11300866430902     -0.04344205783530
  H   -1.47686707984835     -0.48655494452411     -1.48405724784718
  H   -0.76707802854988     -1.82104145505903     -0.56349557753421
  N   -0.50721942257984     -0.45450289120163      1.78620312915943
  O   -1.03340032075826      0.15695865760222      2.70228592224975
  O   0.12950894425922     -1.50345274578481      1.87508031075519
  N   0.61632418156566      1.50418480244305     -1.21692081131482
  O   0.19223182641039      1.05698258329361     -2.27490174183275
  O   0.94146758861937      2.66756576909815     -0.99373756568536
  N   1.57840152998051     -0.56348448429432     -0.47334291808103
  H   1.50326106378409     -1.32552543111696      0.18826960293311
  H   2.54966377648122     -0.28887530493366     -0.55033351414722
