17
Coordinates from ORCA-job run
  C   -0.60895653800839      0.06172306562420      0.49998692554977
  C   0.82214384411311      0.44546787193816      0.12118760239445
  F   -1.22426157070615      1.15821538603876      1.03660013623240
  H   1.29076009917824      0.89016712622782      0.99837427141153
  C   -1.46186707675828     -0.52487084845664     -0.58568706740513
  H   -2.43488090757181     -0.78418943768081     -0.16955594597682
  H   -1.01446187176511     -1.42820566679118     -0.99507583647741
  H   -1.59408033193738      0.21402027679260     -1.37578641672401
  N   -0.44050266571423     -0.92323033033491      1.65996974780510
  O   -0.87891770363747     -2.05832631602567      1.52266396655638
  O   0.12569447213640     -0.47214834413410      2.64920491734341
  N   0.72480226737066      1.58512301735260     -0.89189766647639
  O   0.64601825636537      1.25950460943762     -2.07597046359859
  O   0.72085198695468      2.72845179086203     -0.44931489125294
  N   1.53387831231341     -0.68708404066457     -0.34231150832436
  H   1.26030083682220     -0.92891129096503     -1.28654313203439
  H   2.53247859084476     -0.53370686922088     -0.31584463902298
