17
Coordinates from ORCA-job run
  C   -0.66907750611468      0.21769978454939      0.31237534601962
  C   0.77122945519736      0.63692775631622     -0.05455189758906
  F   -1.44097834990983      1.34074686463806      0.37257950299425
  H   0.97800805693748      1.55669889356027      0.49351143808100
  C   -1.33566692575438     -0.81074391266183     -0.55573612190063
  H   -0.71488191517552     -1.69300812212728     -0.69547748714639
  H   -2.27568901575623     -1.11434783398403     -0.09449437633531
  H   -1.54531927333297     -0.36365134378388     -1.52726294953743
  N   -0.52939458806623     -0.28210113818728      1.74581154790770
  O   -0.54147256620054     -1.49600663424713      1.92537900307342
  O   -0.34150041075294      0.58096258806932      2.59635624544020
  N   0.73700564635075      1.01837089642851     -1.51324184309753
  O   0.93439572998554      0.11065974181470     -2.31591957364334
  O   0.47078972001618      2.18644383322152     -1.77913286775860
  N   1.80503203262082     -0.31431789619110      0.15291424147694
  H   2.11843468203875     -0.33292763098164      1.11185059973229
  H   1.57708522791642     -1.24140584643381     -0.17496080771712
