17
Coordinates from ORCA-job run
  C   -0.69590399021820      0.05960293164628      0.37024353957732
  C   0.72115969250146      0.58978208647263      0.14647077526586
  F   -1.53508286184349      1.12478376687472      0.54264197772028
  H   0.95332157194309      1.27321005732076      0.96246558721534
  C   -1.24678160450273     -0.86285124450524     -0.67662825969014
  H   -0.61882270035538     -1.74303424932089     -0.79782262171737
  H   -1.32132424752041     -0.32769062425960     -1.62303852735566
  H   -2.23966017376380     -1.19114768353422     -0.37057479986385
  N   -0.62707636191983     -0.63424176913996      1.73334167911464
  O   -0.32486201347555      0.09230568479817      2.67323231970645
  O   -0.87804257783919     -1.83156761797731      1.78606652370125
  N   0.67512050130757      1.47042667796834     -1.10160283151977
  O   0.86596312561716      0.90504562472606     -2.17777969150738
  O   0.44206190689114      2.66273537139454     -0.93673757423019
  N   1.64588679388418     -0.47925362008382      0.07158081684424
  H   1.58959151470996     -0.94911265164454     -0.82329937913738
  H   2.59345142458402     -0.16099274073592      0.22044046587637
