17
Coordinates from ORCA-job run
  C   -0.68353061889554      0.09285849442173      0.45988064558558
  C   0.54173488758845      0.79683758538378     -0.15243036575717
  F   -1.26045388112094      1.00491045896712      1.28932436283978
  H   0.18631529143597      1.78291505693663     -0.45686342525846
  C   -1.73141015648327     -0.47703934529560     -0.45998910327070
  H   -2.54282128139779     -0.85877591912601      0.16325556531789
  H   -1.33086931123472     -1.28224460544956     -1.07208738487392
  H   -2.11629549139735      0.30774123641023     -1.10951057651056
  N   -0.17559275973934     -1.04060785821464      1.33315325833184
  O   0.58460748963578     -1.81561755052941      0.75579449758081
  O   -0.57177715109741     -1.11544376470613      2.48397582843379
  N   0.95596209757806      0.14341458201715     -1.48044919903547
  O   2.02336964498802     -0.45636803561515     -1.51296894574726
  O   0.18766050210083      0.31161748187633     -2.42418988617691
  N   1.59223004409833      0.90944044855392      0.78510076320959
  H   2.11003633937162      0.04203419609606      0.85601396324585
  H   2.22883435456931      1.65432753827354      0.53999000208531
