17
Coordinates from ORCA-job run
  C   -0.64106702545183      0.06726240476474      0.41601471720819
  C   0.59674115789542      0.69723510926926     -0.23598802761326
  F   -1.04034002078878      0.98735325218801      1.35188032724468
  H   0.25829753839681      1.62510489682000     -0.71855887300994
  C   -1.81686496578361     -0.30736945235530     -0.44199357588694
  H   -2.13617672257205      0.55628749927324     -1.02557741492470
  H   -2.62875121919698     -0.60808712662447      0.22395444230472
  H   -1.56955866440112     -1.12203949816169     -1.11627155505015
  N   -0.16746024153934     -1.16253412027809      1.17101246808541
  O   0.29125465868944     -2.04078209649372      0.44933656774798
  O   -0.28955934790317     -1.18455978145827      2.38454276258272
  N   1.11785482979560     -0.12484002874523     -1.39333529943445
  O   2.26409899637202     -0.54719351497762     -1.33456442634067
  O   0.34680544702861     -0.24304849386068     -2.34031691936971
  N   1.61294491391773      0.81848638028902      0.76290448542667
  H   1.31351893558845      1.46351970846898      1.48235045731981
  H   2.48926172995278      1.12620486188181      0.36460986370963
