17
Coordinates from ORCA-job run
  C   -0.52012701164658     -0.24101506970465      0.54473130011368
  C   0.82641358593260      0.40239184466963      0.21037877032318
  F   -1.04924637532637      0.40031571941407      1.62988164278924
  H   1.42593568520973      0.41196718910204      1.11997377836205
  C   -1.53391816702164     -0.30207714179543     -0.55917182040169
  H   -2.42136609991526     -0.81976769801307     -0.19631582916455
  H   -1.14996665828711     -0.84653083200788     -1.41938688065432
  H   -1.80434794249660      0.71191839280794     -0.85307218581809
  N   -0.15484692077268     -1.64469983304776      1.03477136751241
  O   0.55572779932667     -1.68002582947753      2.03287716836181
  O   -0.59287456976733     -2.60524186505961      0.41442332218503
  N   0.55288934136372      1.87497149731844     -0.09386833045688
  O   0.60793126250565      2.66032526320081      0.84590694873946
  O   0.28732728732071      2.15176034342057     -1.26306405902383
  N   1.46665471050270     -0.30004520770673     -0.83846461140049
  H   1.04705212752684     -0.08308080252767     -1.73379507785378
  H   2.45476194554494     -0.09116597059318     -0.87580550361324
