17
Coordinates from ORCA-job run
  C   -0.66567376805963      0.03499080153945      0.46143611109591
  C   0.48494936994708      0.82345906191820     -0.19369154521522
  F   -1.12170903426211      0.77285325674358      1.50702633842970
  H   0.04579366000769      1.63787010085592     -0.77365573135312
  C   -1.81570597589630     -0.31985546118461     -0.44083857292733
  H   -2.25715662574034      0.60692021322701     -0.81064457262796
  H   -2.56361725668906     -0.85958780507024      0.14162496991456
  H   -1.50352844239107     -0.93137622652388     -1.28145302635678
  N   -0.05889344894320     -1.23448686584557      1.06385979564801
  O   -0.10224896835260     -2.24590266518454      0.37143616480732
  O   0.45301099090091     -1.12771497080871      2.17308663588619
  N   1.10067443305218     -0.09511080230761     -1.27336707939727
  O   0.54737186766938     -0.10910071017795     -2.36963623453360
  O   2.10168541158224     -0.72734228821814     -0.95199664295418
  N   1.40701871566977      1.31110128253137      0.74700022854598
  H   2.12354677033534      1.87895983993724      0.31816793240465
  H   1.82348230116972      0.58332323856848      1.31064522863316
