17
Coordinates from ORCA-job run
  C   -0.56017688894871      0.24010695091717      0.46984100815133
  C   0.88303667919213      0.47158133225428     -0.02791146444772
  F   -1.04552985564858      1.42294942320902      0.94498958140759
  H   1.35764523333010      1.14122710687690      0.69007128997789
  C   -1.54079271508547     -0.35978300435835     -0.49685079928860
  H   -2.46183373442750     -0.60553322353137      0.03208756314848
  H   -1.76102794332013      0.37573770039455     -1.27031926749711
  H   -1.15514936424078     -1.26343636061223     -0.96371825096883
  N   -0.36690275530523     -0.66114631051938      1.68428784770361
  O   0.11027602290113     -0.12387170979218      2.67789056324818
  O   -0.63017178938790     -1.85246586988971      1.55206062011323
  N   0.76255360352234      1.25344863959031     -1.31175450966278
  O   0.64916807546788      0.59273204742963     -2.34029706633158
  O   0.74245220858567      2.47708907372356     -1.22124005149577
  N   1.69070971118309     -0.67420803066867     -0.25546302722563
  H   1.21961789765755     -1.41011573676413     -0.76090630739096
  H   2.10412561452440     -1.02331202825940      0.59623227055869
