17
Coordinates from ORCA-job run
  C   -0.72030230913242      0.11303370263153      0.24479151768190
  C   0.64408236883808      0.76334602056980     -0.06990965971200
  F   -1.68712671430632      1.06971658775499      0.13818191676024
  H   0.63591941621048      1.74894956196475      0.39656585614875
  C   -1.11402263493461     -1.09723850781644     -0.55266808625461
  H   -0.33318482489012     -1.85456077987262     -0.56048581391422
  H   -1.32146497129970     -0.78717587897954     -1.57660991345079
  H   -2.01713422805219     -1.53134179537865     -0.12315943064708
  N   -0.61091944160808     -0.21965590874790      1.72863255129694
  O   -0.42200502206635     -1.39336283547895      2.03306263395729
  O   -0.65001866059246      0.73713091395670      2.49459909224002
  N   0.65908704658198      1.00636223771258     -1.55857239545959
  O   0.21283443524425      2.07877555886291     -1.95443251207705
  O   1.07892904014802      0.08575956383859     -2.25389454979568
  N   1.81266591551696      0.04451805958436      0.29568866800619
  H   2.05002155066962      0.17079654687713      1.26813949616807
  H   1.78363903367284     -0.93405304747923      0.05007062905162
