17
Coordinates from ORCA-job run
  C   -0.46980051453788     -0.16633863071522      0.55580998335979
  C   0.85254648882036      0.40361777619444      0.02264023127283
  F   -0.82707127854925      0.58739091659939      1.62950837298049
  H   1.60744238290725      0.30651677908894      0.81331475412434
  C   -1.61672176126870     -0.28384750675573     -0.40959520658987
  H   -2.46883986733814     -0.71861880750051      0.11699974907172
  H   -1.87550167904795      0.70982283022401     -0.76937482431999
  H   -1.34947684496503     -0.90755778853723     -1.25915875851158
  N   -0.14505513559788     -1.55891061775315      1.09875187779185
  O   0.20312955270825     -2.38245381953539      0.25371106378779
  O   -0.25812974642237     -1.75140818566325      2.29872104885891
  N   0.67660526031809      1.91335930936262     -0.07673292109848
  O   1.36360807904434      2.58254072532386      0.69093493176208
  O   -0.11501880496028      2.34211584545682     -0.90659795398580
  N   1.18858288514172     -0.10255297480209     -1.26873171570617
  H   2.14286744881206      0.13718304438947     -1.50738260821526
  H   1.09083353493542     -1.10985889537698     -1.28181802458265
