17
Coordinates from ORCA-job run
  C   -0.73542048910950     -0.02819793646234      0.12814618318969
  C   0.56953595842042      0.74210915063961     -0.11977286100978
  F   -1.73608956795162      0.67763626229652     -0.46210037780804
  H   0.47700181938153      1.72741280364061      0.35469281709365
  C   -0.78503354881257     -1.46924982044731     -0.29825750046031
  H   -0.00712364501751     -2.04833761040168      0.19319549910396
  H   -1.76636518947256     -1.87263170724713     -0.03981051829589
  H   -0.63838761924655     -1.52216534811501     -1.37501807449035
  N   -0.98982819876135      0.04527510448576      1.63492186736164
  O   -1.95614780141221      0.67987330833919      2.02662770121314
  O   -0.17803724557713     -0.55998910262188      2.33362363381552
  N   0.60224112121642      1.09436857821991     -1.60099656839827
  O   0.71834586171163      0.17670343824457     -2.40330411284308
  O   0.51822125210487      2.29066061904644     -1.86741821270188
  N   1.72961642712038     -0.02820450974050      0.19239056033763
  H   2.55414819175444      0.55920271835953      0.20512608730447
  H   1.62332267365133     -0.46346594823629      1.09995387658791
