17
Coordinates from ORCA-job run
  C   -0.60404034771713      0.05250410598971      0.41579825224724
  C   0.57026687663384      0.76438909809238     -0.30188030012138
  F   -0.98016867655143      0.90132035133654      1.42134668033966
  H   0.13376136924638      1.59127142399785     -0.86483284920174
  C   -1.79296373265812     -0.28261208775417     -0.43915477006700
  H   -2.56160097555294     -0.74844444138805      0.17919043744319
  H   -2.18796738508055      0.64410292811442     -0.85863094285581
  H   -1.52736245359586     -0.95779309891067     -1.24788700134855
  N   -0.05902680631204     -1.19554104098736      1.09221095412455
  O   0.51862899505774     -1.03217989821364      2.16240001867246
  O   -0.19945515606635     -2.25522061052292      0.49015047507953
  N   1.11774116584213     -0.18637972114043     -1.33365817663849
  O   0.59904118959508     -0.16003834463107     -2.44701818988247
  O   2.01888099465159     -0.93072721394432     -0.96228343938645
  N   1.64014429573800      1.23818421075526      0.50706768940413
  H   1.33462661270555      2.03596396687184      1.04772953668102
  H   1.97849403406411      0.52220037233465      1.13745162551011
