17
Coordinates from ORCA-job run
  C   -0.43358681328554     -0.33328429781110      0.37532820787255
  C   0.59047784349620      0.41791704532838     -0.47572621068260
  F   0.02740013783595     -0.36594210849944      1.65982012424891
  H   0.40207227528532      0.21408325664929     -1.53005175621766
  C   -1.81727510124048      0.26001233321171      0.33691488273327
  H   -1.78801247530493      1.26283480109974      0.75742569846176
  H   -2.48521041154528     -0.36978086370357      0.92817421861501
  H   -2.17843306659515      0.31133365534344     -0.68917549729212
  N   -0.54063542102634     -1.77246268799679     -0.11340806129737
  O   -0.34736216231645     -2.66676445055113      0.69372769119687
  O   -0.87244724236250     -1.88721388294658     -1.28779910502655
  N   1.96183230810495     -0.23170724404237     -0.19141779267708
  O   2.08817358920702     -1.39823119320276     -0.54689086133505
  O   2.80970176506303      0.45946369703049      0.36040877518658
  N   0.55566324732389      1.80243621147910     -0.19268904599013
  H   0.88411689693888      1.97942568077772      0.74906932734131
  H   1.14252463042144      2.31888004783389     -0.83371059513769
