17
Coordinates from ORCA-job run
  C   -0.66435123608035      0.04683029462334      0.46149850043767
  C   0.50134727536546      0.81457322180238     -0.19148100394088
  F   -1.10236210354302      0.78681118182418      1.51338053389764
  H   0.07865024026086      1.63678125150936     -0.77275340759122
  C   -1.82338587055487     -0.27765326831422     -0.44057025512233
  H   -1.52439332993472     -0.88499623879582     -1.28899849266555
  H   -2.24899356587313      0.66111367477080     -0.79859241583661
  H   -2.57939741304079     -0.81061217333008      0.13753100995158
  N   -0.08353528815892     -1.23941136182321      1.05516758802669
  O   0.44107751933407     -1.14835754152750      2.15992618184287
  O   -0.15754767166772     -2.24754604088960      0.36047258175137
  N   1.10123695774606     -0.11539739728584     -1.27103370654030
  O   2.08969908223928     -0.76670871677635     -0.94850855416937
  O   0.55011349585719     -0.11804219184099     -2.36854124904280
  N   1.43124680395331      1.28434633820550      0.75058997031149
  H   1.82535545727365      0.54918523386917      1.32076163881232
  H   2.16523964682365      1.82908373397889      0.32115107987742
