17
Coordinates from ORCA-job run
  C   -0.39679387991902     -0.35084875474649      0.39927430703325
  C   0.54458948070625      0.44016585749902     -0.50910519206765
  F   0.15971917921640     -0.40009420641767      1.64473981843293
  H   0.28283952967517      0.25216575518712     -1.55062261055507
  C   -1.79152401007000      0.21189236881153      0.47760905342269
  H   -2.22964515133145      0.27728687743582     -0.51723927572764
  H   -2.40001672826706     -0.44517066888245      1.10239991035539
  H   -1.75186160153238      1.20596027799974      0.91768603776184
  N   -0.51047505804938     -1.78156833691713     -0.11236790758822
  O   -0.23977444603359     -2.68781129816500      0.65840663539895
  O   -0.92665135669161     -1.87950365070489     -1.26112772050319
  N   1.94666589761361     -0.18342836782651     -0.34001415140263
  O   2.81702764222218      0.51426859952874      0.16665853372195
  O   2.07185970913322     -1.33838426971206     -0.73185695759558
  N   0.50143478367552      1.81789781442492     -0.19609133080744
  H   1.02635023727832      2.35985814646783     -0.86896470203325
  H   0.89625577237380      1.98531385601746      0.72161555215367
