17
Coordinates from ORCA-job run
  C   -0.65300069516023      0.00580204798468      0.44619231421297
  C   0.72153960029739      0.59468567007975      0.12513892723170
  F   -1.48791241536965      1.02575111206722      0.80801278761032
  H   1.02630162615731      1.20780917734885      0.97255052946420
  C   -1.29688792835921     -0.82994847025241     -0.62017529182453
  H   -1.48553942125711     -0.20952451109334     -1.49609376258585
  H   -2.24320161344925     -1.21679678524666     -0.24332759573245
  H   -0.66842523308012     -1.67477938456595     -0.89425115758536
  N   -0.42377865127296     -0.80993502820264      1.72129784695170
  O   -0.64473234117643     -2.01381504807733      1.68460965939797
  O   -0.03609228098491     -0.16617536656429      2.68969321093835
  N   0.52537610762111      1.58235929610061     -1.02427626035051
  O   0.28388144754473      2.74683124475833     -0.72634530978951
  O   0.61412553481734      1.12227817625459     -2.16210477085039
  N   1.65338998641945     -0.43599252239272     -0.14484018590588
  H   1.51079314519149     -0.82479497107895     -1.06859329316310
  H   2.60516313206107     -0.10475463711975     -0.06848764801964
