17
Coordinates from ORCA-job run
  C   -0.72223214967346      0.00786131491101      0.14633140627735
  C   0.58151820382050      0.80575280925355     -0.11780242908699
  F   -1.74075898192686      0.64723790991514     -0.48979988289712
  H   0.49424414344290      1.77202983150036      0.38253826312358
  C   -0.72029494417814     -1.45331655167801     -0.21211869974295
  H   -0.51028823183014     -1.56242700554949     -1.27563642070941
  H   0.02329595795708     -1.99510834920509      0.36945264236988
  H   -1.70869469316600     -1.86432341075140      0.00250153800116
  N   -0.99065989167353      0.13880090737591      1.64033597284335
  O   -0.11183668804637     -0.31953101589432      2.36864277736452
  O   -2.02701014427834      0.67721877987035      1.99738405923375
  N   0.57886174108909      1.12614506388614     -1.58998305441525
  O   0.87420513877126      0.19684432513518     -2.33880654160209
  O   0.28373767983767      2.26614636914848     -1.92382294612010
  N   1.83612369992793      0.19703236559479      0.18267137420249
  H   1.94016399225913     -0.67762917640010     -0.31563246220284
  H   1.91862516766726      0.03826583288751      1.17774440336067
