17
Coordinates from ORCA-job run
  C   -0.68639755074574      0.08348269159233      0.45714515231541
  C   0.53302388079804      0.80306573974783     -0.14879273119039
  F   -1.27814196421110      0.98769839694886      1.28494700444747
  H   0.16597433192938      1.78467010755430     -0.45403522460726
  C   -1.72329036463644     -0.49708108449469     -0.46846118813829
  H   -2.11266956316739      0.28356195902879     -1.12024829465508
  H   -1.31129550066822     -1.29790646717777     -1.07877728726884
  H   -2.53398671020936     -0.88733218292483      0.15043167446482
  N   -0.16964095686780     -1.04515288880796      1.33147750087915
  O   -0.57407466953993     -1.12863394263586      2.47880529221735
  O   0.60525123969688     -1.80813825573740      0.75757948002184
  N   0.96229053850290      0.15665828104312     -1.47580821772331
  O   2.03818719697174     -0.42795578617011     -1.50383983332606
  O   0.19593018445892      0.31486706455041     -2.42283972236654
  N   1.57744592759703      0.92854059718164      0.79364559245996
  H   2.20715576848618      1.68025401048473      0.55146010770101
  H   2.10523821160490      0.06740175981662      0.86731069476876
