17
Coordinates from ORCA-job run
  C   -0.60355590452922      0.05115061728485      0.41655086833491
  C   0.56943318511691      0.76585701982030     -0.29974402034516
  F   -0.97807827579869      0.89665764756899      1.42558379704045
  H   0.13258851986751      1.59647309886925     -0.85696154521688
  C   -1.79460266978196     -0.28237423792701     -0.43605013326505
  H   -1.53050317799452     -0.95289338924631     -1.24911343038218
  H   -2.19273688619870      0.64557365670021     -0.84987352657527
  H   -2.56021644200691     -0.75254077130706      0.18273246621610
  N   -0.05655689132213     -1.19911945779747      1.08755207458651
  O   -0.18925937659139     -2.25451982540356      0.47610242829728
  O   0.51464192258436     -1.04148243009904      2.16197730041579
  N   1.11499455854298     -0.17873598446427     -1.33814320835179
  O   0.59017263853200     -0.14914739549035     -2.44860377067221
  O   2.02052570039639     -0.92176311518305     -0.97493831543824
  N   1.64098555041126      1.23471399548211      0.50987433900189
  H   1.98437408535190      0.51421254397087      1.13227455084376
  H   1.33579346342021      2.02693802722155      1.05878012551009
