16

C	-0.437703	-0.199725	-1.462938
C	0.0	0.0	0.0
Br	-0.313665	1.619928	-2.24996
H	1.092847	0.0	0.0
H	-0.419778	0.885533	0.469049
N	0.443786	-1.045182	-2.229018
H	1.403476	-0.744529	-2.054991
H	0.371213	-1.974823	-1.823643
C	-1.877914	-0.656078	-1.615818
H	-2.558388	0.002604	-1.072199
H	-1.979699	-1.672698	-1.224774
H	-2.143092	-0.661119	-2.672897
N	-0.442736	-1.151202	0.827664
O	-1.055778	-0.909828	1.868291
O	-0.180455	-2.287248	0.428044
Cl	3.327685	0.0	0.0
