16

C	-0.430706	-0.040378	-1.456427
C	0.0	0.0	0.0
Br	-2.477285	-0.522112	-1.492646
H	1.091807	0.0	0.0
H	-0.388399	0.885011	0.500966
N	-0.234261	1.241659	-1.989469
H	-0.443457	1.287184	-2.976805
H	-0.727607	1.96566	-1.485886
C	0.2658	-1.086911	-2.29627
H	0.031808	-2.088485	-1.948911
H	1.341687	-0.913313	-2.189959
H	-0.034031	-0.986443	-3.343058
N	-0.452838	-1.151126	0.813576
O	-0.206352	-2.283062	0.404316
O	-1.023826	-0.896973	1.875188
Cl	3.33989	0.0	0.0
