16

C	-0.420343	-0.063731	-1.469587
C	0.0	0.0	0.0
Br	-0.269117	1.849611	-2.247203
H	1.088929	0.0	0.0
H	-0.368716	-0.908042	0.482967
N	0.488674	-0.948113	-2.072792
H	1.457396	-0.73553	-1.835107
H	0.365683	-1.014294	-3.073594
C	-1.859402	-0.458388	-1.733459
H	-2.547855	0.240412	-1.26327
H	-2.018753	-1.45915	-1.319819
H	-2.053213	-0.482477	-2.808447
N	-0.589999	1.127831	0.750972
O	-1.80371	1.055815	0.97688
O	0.135331	2.047851	1.109058
Cl	3.380373	0.0	0.0
