16

C	-0.333872	-0.000532	-1.48978
C	0.0	0.0	0.0
Br	-2.304947	0.219298	-1.707942
H	1.093937	0.0	0.0
H	-0.400509	-0.868576	0.518186
N	0.311997	1.02417	-2.271488
H	0.157491	1.916754	-1.815567
H	1.313963	0.841614	-2.200037
C	0.053217	-1.361142	-2.043138
H	-0.144182	-1.378876	-3.116263
H	1.124877	-1.50649	-1.863459
H	-0.502385	-2.163763	-1.555336
N	-0.482016	1.179811	0.749701
O	-1.007301	0.97614	1.843348
O	-0.3215	2.296439	0.256764
Cl	3.305321	0.0	0.0
