18
Coordinates from ORCA-job run
  C   0.70122766488610      0.13720844066036     -0.49132149674496
  C   -0.79364465276502      0.23433139696838     -0.20484759170112
  F   0.87526391177199     -0.22365840841481     -1.81073002421192
  H   -1.17387844692326      0.93409229164930     -0.95368254005318
  N   1.24973009619738      1.56062748751669     -0.40121817869859
  O   2.16139012293251      1.78765064141510      0.38578308372288
  O   0.72403776010366      2.37808932661851     -1.14985018260829
  C   1.49143098906926     -0.78595515312406      0.38933429889706
  H   1.14906316163682     -1.80855039248560      0.22619945109135
  H   1.37030394264739     -0.51156152421490      1.43575177075282
  H   2.54905552428662     -0.72530983020352      0.13612136833427
  N   -0.94585415849706      0.83832049007940      1.11479659124194
  H   -1.70597116332507      1.50345816099580      1.12411194743656
  H   -1.13719657196116      0.13371288994725      1.81568742893999
  C   -1.49014444048312     -1.11019502120546     -0.37533947647949
  H   -1.25797568873435     -1.56247072166210     -1.34134287837014
  H   -1.19732871175432     -1.80833726235441      0.41395240096441
  H   -2.57150933908838     -0.96945281218592     -0.31240597251360
