18
Coordinates from ORCA-job run
  C   0.61109613968623      0.34028245563058     -0.05829736618158
  C   -0.73529186652836     -0.40379025404808     -0.04042421228710
  F   0.37241339053952      1.68538245787971      0.04088772717730
  H   -0.50490982595175     -1.47010669017662     -0.11876100343474
  N   1.37373237576540     -0.06655234342293      1.18713657833164
  O   1.68957517798912     -1.25396122880031      1.22826192195406
  O   1.59015445161461      0.77572430201833      2.04737308298434
  C   1.49562946730706      0.08635578053565     -1.25313250905939
  H   0.99647035351893      0.45091122679955     -2.15100896098093
  H   2.43282696703579      0.63443084801812     -1.13803701858450
  H   1.71034717922400     -0.97673941806434     -1.35271484873249
  N   -1.58670173529515     -0.04241565103162     -1.16199403528149
  H   -1.19034008650268     -0.33426864175913     -2.04579982853300
  H   -1.72734306490461      0.96068932048443     -1.18585137965047
  C   -1.48307330297862     -0.14410875118157      1.26157958171297
  H   -0.94485933166960     -0.52972357261802      2.12905155487193
  H   -2.45310945533858     -0.63753048126898      1.20577938733082
  H   -1.64461683351130      0.92642064100521      1.40695132836265
