18
Coordinates from ORCA-job run
  C   0.75666444116209      0.23752334079596     -0.46569872816811
  C   -0.77223588862983      0.11373653380406     -0.44322427091557
  F   1.11314382336368      0.85561447139777     -1.62907160927663
  H   -1.00601073283168     -0.15843094244353     -1.47880716492616
  N   1.18963183307690      1.16701312788580      0.65636617971821
  O   0.77979469184484      0.85716263808455      1.77452280574484
  O   1.91755969431853      2.10834845889648      0.38834908127160
  C   1.54957807627185     -1.03907784910019     -0.33051376098354
  H   1.24988684372179     -1.73614651147100     -1.11547273760398
  H   1.39123278078941     -1.49792263783174      0.64407746361795
  H   2.60938162060721     -0.80899348580015     -0.45643145755560
  N   -1.32235460594695      1.44610431680808     -0.21256881283006
  H   -2.19633719047222      1.55936272791424     -0.70730375415417
  H   -1.50111293330886      1.58100153164511      0.77579240842178
  C   -1.32412443463432     -0.97051569614843      0.47861713186187
  H   -1.08104983205122     -0.75409990353728      1.51931295127491
  H   -0.94308813955537     -1.96332597152194      0.22877081724060
  H   -2.41156004772583     -0.99635414937779      0.37428345726208
