18
Coordinates from ORCA-job run
  C   0.65733882578966      0.21029685643241     -0.51469951744925
  C   -0.82476294409195      0.18385564828802     -0.15574993428469
  F   0.77769867044306      0.07408672166258     -1.88192251998405
  H   -1.30902152695071      0.85710505076403     -0.87301064504310
  N   1.15114787564176      1.63371548052785     -0.23340291024307
  O   0.45078121988186      2.53790127748675     -0.68460570618307
  O   2.19577446415885      1.78420294257445      0.39079280238618
  C   1.53044718941825     -0.79156267559507      0.17823003319775
  H   1.40348779524987     -0.70740952688128      1.25605545451734
  H   2.57446594091740     -0.61976244482259     -0.07744546063311
  H   1.24563521681016     -1.79079652815337     -0.15201324777333
  N   -0.95332558542501      0.63870129193708      1.22625482454829
  H   -1.04727573600039      1.64669124876157      1.25643152428095
  H   -1.78114386268858      0.24081908339668      1.65049067999142
  C   -1.40105923555371     -1.21341792835690     -0.31669506150419
  H   -1.14351552696232     -1.63502437115655     -1.28946444028312
  H   -1.03478405434059     -1.87801861277938      0.46888024518970
  H   -2.49088872629759     -1.17038351408619     -0.24712612073065
