18
Coordinates from ORCA-job run
  C   0.67318685757745      0.29790095038179     -0.45312947635140
  C   -0.82195553633696      0.02385830483191     -0.30642988494506
  F   0.82030012039377      1.13025929605921     -1.53781785581065
  H   -1.10302185295410     -0.36585908939844     -1.30012608118801
  N   1.14970876758756      1.09235998664510      0.75275850425550
  O   1.38882606676265      2.28073406672930      0.60619690684477
  O   1.24810328767291      0.44966139394433      1.79479377478093
  C   1.56534825276208     -0.90117717554977     -0.63836478191748
  H   2.57455955917731     -0.55786685891653     -0.87353688935533
  H   1.59567268532381     -1.50898280156257      0.26264720219863
  H   1.19618981602928     -1.49757106743649     -1.47485498991316
  N   -1.46610466767739      1.28864508005962      0.02157615240875
  H   -1.31465801895698      1.96411681757025     -0.71816481733162
  H   -2.46405104436094      1.15035085771348      0.11982189257994
  C   -1.18073139776938     -1.01675140076773      0.74152207082657
  H   -2.26236435358974     -1.17703334063057      0.72736684227348
  H   -0.70541995771421     -1.97764606452935      0.53898695676258
  H   -0.89358858392708     -0.67499895514355      1.73475447388156
