18
Coordinates from ORCA-job run
  C   0.64713773327169      0.28293743390776     -0.46621547134652
  C   -0.85824858118269     -0.02629335493513     -0.37147500502861
  F   0.81267388917767      1.13065853611074     -1.53404707795869
  H   -1.08086847618166     -0.46352348938516     -1.35359019008186
  N   1.04833345069631      1.07838636786557      0.76200264731396
  O   1.08837147368756      2.29942765058534      0.66932393443857
  O   1.24198707441331      0.42381604918140      1.78523151544969
  C   1.57379518534662     -0.89224046326176     -0.63310187351209
  H   1.58831658961560     -1.51386943203988      0.25828185957832
  H   2.58364732864515     -0.52817106874262     -0.83187857023414
  H   1.24228042963949     -1.48327935811420     -1.48908613495438
  N   -1.68317949556557      1.15973297732670     -0.23468223338763
  H   -1.60919889296726      1.54596465292422      0.69932722966388
  H   -1.39458072728727      1.87338552740458     -0.89250895466082
  C   -1.22141699571100     -1.03443539902252      0.70640340519748
  H   -0.98709291306023     -0.65245996032320      1.70196489858116
  H   -2.29486505804494     -1.21884869753286      0.65020098596556
  H   -0.69809201449276     -1.98218797194897      0.57484903497612
