18
Coordinates from ORCA-job run
  C   0.63804659295184      0.29968103769885     -0.46736818098768
  C   -0.85948607763803     -0.04527343144365     -0.36643104661424
  F   0.77858537053270      1.16169623439860     -1.52722650660580
  H   -1.07543748787318     -0.49213069582230     -1.34570115948810
  N   1.02883572603258      1.09131922616042      0.76673449525476
  O   1.02033257737277      2.31437439390230      0.69094468764581
  O   1.26676901133622      0.43083522196653      1.77670768564615
  C   1.58888646420766     -0.85321293591971     -0.65215148780369
  H   1.61672569506931     -1.48827859099817      0.22935828423230
  H   1.26852869900292     -1.43744275801903     -1.51701161003179
  H   2.59123951408614     -0.46628378570551     -0.84532657298254
  N   -1.71372122095887      1.11972374592346     -0.23049301815345
  H   -1.64133169437611      1.51401781138923      0.70025414713222
  H   -1.44774136731468      1.83629104372480     -0.89465734784128
  C   -1.19198751461863     -1.05779160795375      0.71762029191186
  H   -0.64750639558859     -1.99355237362552      0.58614780582904
  H   -0.96060983547360     -0.66650331002112      1.71032941267061
  H   -2.26112805675046     -1.26746922565544      0.66927012018581
