18
Coordinates from ORCA-job run
  C   0.63185394076129      0.29776884738873     -0.06462373173609
  C   -0.75740127932969     -0.36245364767133     -0.03258299433149
  F   0.47331091748540      1.65797473704437     -0.08268557428008
  H   -0.59053913503118     -1.44317295311119     -0.01428133967783
  N   1.33154605711891     -0.04871650560928      1.23464958204078
  O   1.57228153273129     -1.24522453169605      1.38288856954511
  O   1.57517768861379      0.84758827112643      2.03074175192402
  C   1.53421082754372     -0.10579540745774     -1.20382693302538
  H   1.08703178431844      0.21326675531686     -2.14534206626196
  H   1.68419530696478     -1.18456050195994     -1.21046781730787
  H   2.50022027700036      0.39214291695362     -1.09962739810274
  N   -1.55123099771680     -0.04802737093076     -1.20913810011589
  H   -1.14481159268698     -0.43241738816130     -2.05203319199011
  H   -1.63341565338390      0.95593075954997     -1.31813944720974
  C   -1.52571085540788      0.04996939133703      1.21703890994393
  H   -2.52354079589108     -0.38537181010488      1.16787987700662
  H   -1.62204273882521      1.13675039718982      1.26989639812684
  H   -1.03913528426525     -0.29565195920439      2.13065350545190
