18
Coordinates from ORCA-job run
  C   0.69304359819077      0.30273645640118     -0.12536233503164
  C   -0.68796923757292     -0.34919620132736     -0.06030553026188
  F   0.52583460405666      1.65761303501768     -0.23880056006164
  H   -0.52007686786627     -1.42867749644936     -0.01290752944607
  N   1.37354970386181      0.05688257179944      1.21003891213529
  O   1.63371029372960      1.01653675081873      1.92265786163673
  O   1.58864653259224     -1.12491334896834      1.46896800845489
  C   1.59766928666009     -0.18524253162792     -1.22540179431134
  H   2.53473052231961      0.37482301045628     -1.19956712368765
  H   1.09381296706006     -0.02184480008091     -2.17605970660662
  H   1.80595420471494     -1.24676432780157     -1.09868885138661
  N   -1.34339965886099     -0.05294040487867     -1.33111093900269
  H   -1.66542869248613      0.90840512566286     -1.32607488239282
  H   -2.15550218125359     -0.64733194860016     -1.44031953430482
  C   -1.46370792617301      0.10123507229787      1.17732608260341
  H   -2.47284070525219     -0.31535314176647      1.14287587392008
  H   -1.54108439795012      1.19065486159524      1.20527807787407
  H   -0.99694204577053     -0.23662268254852      2.10545396986932
