18
Coordinates from ORCA-job run
  C   0.65379437140138      0.16826597981972     -0.53764240089396
  C   -0.82279522337700      0.18845765213141     -0.15335172729230
  F   0.74682397673592     -0.04687915764299     -1.89599404880482
  H   -1.30552502239860      0.82970083128735     -0.90086473877931
  N   1.16902365589483      1.59704870358338     -0.34181878525779
  O   2.17979005215282      1.77513470998455      0.32923841511547
  O   0.50914390588269      2.47699007988040     -0.89116825763785
  C   1.52294409321141     -0.80741055155986      0.19655908468882
  H   2.56640782802634     -0.66159406659993     -0.07790542205142
  H   1.40919557935212     -0.66721523272921      1.26985083174447
  H   1.22318158207324     -1.81851732066470     -0.08016393643894
  N   -0.92094861835673      0.72179260369438      1.20262425574739
  H   -0.98961204822978      1.73214982059747      1.18000278441620
  H   -1.75267477910542      0.36946831689544      1.65836472919166
  C   -1.42562674187824     -1.20473709150921     -0.22637433099127
  H   -1.19292186160298     -1.68381891980003     -1.17855494112322
  H   -1.05602927050952     -1.83095357975154      0.58864081877803
  H   -2.51317147927247     -1.13888277761667     -0.14044233041119
