18
Coordinates from ORCA-job run
  C   0.59956206322011      0.17675544164065     -0.54346720346053
  C   -0.89406219551392      0.16174829035612     -0.16918869121067
  F   0.70765543815597     -0.11776866008065     -1.88027869728602
  H   -1.37008697669943      0.78296811984335     -0.93610665866700
  N   1.04577845669340      1.62343379004925     -0.40420272614903
  O   0.68777254379179      2.39369906545507     -1.28832775930277
  O   1.65510754118161      1.92883092610672      0.61929423506893
  C   1.51465023893405     -0.72819194070397      0.23510048096772
  H   2.55131485516922     -0.53809909735427     -0.04450869830837
  H   1.27030813186082     -1.76210183648566     -0.00889109979596
  H   1.41616143787798     -0.57165559950993      1.30754158767919
  N   -1.21451464507951      0.73718434738976      1.12208930392089
  H   -0.74145078825602      0.25397284673775      1.87507049803565
  H   -0.98377660391418      1.72072200802355      1.17468462829417
  C   -1.44902243395897     -1.25227626200653     -0.25521086319046
  H   -2.53543370511620     -1.20724697623877     -0.17557941883635
  H   -1.08029095293764     -1.86851600216066      0.56947116248907
  H   -1.18067240540909     -1.73045846106174     -1.19849008024850
