18
Coordinates from ORCA-job run
  C   0.48992125633266      0.26606196389165     -0.60307987162388
  C   -0.89262370652488      0.22090314443217      0.08410848240662
  F   0.29739257964569      0.14402215170944     -1.95326136277051
  H   -1.45461727696245      1.04509540830127     -0.37336215101765
  N   1.03323840392330      1.67030446687859     -0.38919446162093
  O   1.60998146064822      1.86913853651984      0.68037603559828
  O   0.80271060568624      2.50793156176349     -1.25141437282947
  C   1.51535922747325     -0.74018526484268     -0.15337002047216
  H   1.68922944664245     -0.67510156175459      0.91803940576632
  H   2.45874902397224     -0.55749508503751     -0.67061226805061
  H   1.16799812880236     -1.74049201783725     -0.41348712459119
  N   -0.89254996510090      0.41963018552776      1.51930052458559
  H   -0.39522584189126      1.25828377351660      1.79023444791725
  H   -0.46492759873777     -0.36746381959287      1.99113892497946
  C   -1.60131458237048     -1.08639581640944     -0.24262991706113
  H   -1.11272666392293     -1.93223389408059      0.24969123503729
  H   -2.62360345979854     -1.02898302999193      0.13239403933593
  H   -1.62499103781720     -1.27302070299395     -1.31587154558925
