12
Coordinates from ORCA-job run
  C   0.60595412500762      0.12662593069054     -0.69460712282835
  C   -0.82828610210149     -0.23222499102530     -0.25644834939481
  F   0.50773759787326      1.17982872886443     -1.57468104102545
  H   -1.39518914762270     -0.47697459257749     -1.16199508818812
  H   1.01274755861590     -0.71652099879358     -1.27111437543580
  N   1.37425367951900      0.55311704787635      0.42795783019565
  H   2.31349406879253      0.79565056382995      0.13905612316058
  H   1.42506509333442     -0.16397532975265      1.14086300641702
  C   -1.47712163388302      0.90174511986539      0.40863517620044
  N   -2.03213840264191      1.79824664992057      0.92280388596818
  C   -0.79849249609886     -1.40903335047000      0.61606831622590
  N   -0.70902434079474     -2.35648477842821      1.30346163870476
