12
Coordinates from ORCA-job run
  C   0.71046763475391     -0.09692640145741     -0.36085248509785
  C   -0.64856510451934     -0.35127858370004      0.32357145348512
  F   0.46574112143238      0.44099616653650     -1.59823591741212
  H   -0.44849893073246     -0.69804663767510      1.34496743063622
  H   1.21112032664370     -1.06141663635343     -0.52164057666087
  N   1.45268467146855      0.86609582600449      0.40315403579962
  H   2.01458018419427      0.41342497668271      1.11282810662077
  H   2.06622220144109      1.37866194557318     -0.21759018361349
  C   -1.39695755940775     -1.39642547730120     -0.38230873128272
  N   -1.95073757833661     -2.26373400245325     -0.94630343931862
  C   -1.41943825047214      0.89307444342965      0.39728691633398
  N   -2.05661871646560      1.87657438071389      0.44612339050997
