12
Coordinates from ORCA-job run
  C   0.64345084041542     -0.07181567937941     -0.65029852298147
  C   -0.83336944521867     -0.24871003937840     -0.24225018774146
  F   0.62837489240499      0.89333551504537     -1.66830597603244
  H   -1.41573931549471     -0.40765831983081     -1.15619894283870
  H   1.00579434546257     -0.99715202661763     -1.10276998189511
  N   1.43879344468599      0.26966295649512      0.45380693510357
  H   2.42479851344791      0.25005299438164      0.23558874983832
  H   1.18931952520057      1.16996230308207      0.84403976760722
  C   -1.32095179004882      0.96839387080634      0.41476883439232
  N   -1.66543836435247      1.95959242545744      0.94030877165761
  C   -0.98792489358004     -1.41396111495483      0.63179347534093
  N   -1.10710775292276     -2.37070288510688      1.30051707754922
