12
Coordinates from ORCA-job run
  C   0.77178282552028     -0.25828663656646     -0.05438757362149
  C   -0.75344203918987     -0.05792803039467     -0.15232891210144
  F   1.11178735040635     -1.05375080055968     -1.15457395071931
  H   -0.95263553218691      0.49672957196235     -1.07835284330544
  H   1.02304296343663     -0.83118352635045      0.84004668801589
  N   1.42375902696780      0.98768948358056     -0.03040433796859
  H   2.40816931692833      0.89475683368746      0.17902186867980
  H   1.30802646105767      1.49116036728009     -0.90079081965109
  C   -1.24801151071914      0.72267377872418      0.98436561073737
  N   -1.65037769058845      1.33833767995525      1.89861598341038
  C   -1.44700974115283     -1.34730739070113     -0.23478892493879
  N   -1.99509143047986     -2.38289133061750     -0.29542278853728
