12
Coordinates from ORCA-job run
  C   0.52258986895897      0.23767822555878     -0.59211226668574
  C   -0.69039094107440      0.23022430353494      0.36163455295790
  F   0.55109662433378      1.47431580496384     -1.19043686098969
  H   -0.53083382624925      1.06423165664753      1.05405866166198
  H   0.37155076707740     -0.49629401933670     -1.39522721869972
  N   1.72185834082068      0.09656336448817      0.17927720368685
  H   1.80620578345627     -0.84302143283151      0.54945507527065
  H   2.52128751023297      0.27660454766315     -0.41672011688874
  C   -0.72083183749536     -1.02464078055684      1.11537700237191
  N   -0.68228704823125     -2.04610409392627      1.69236499194420
  C   -1.93946779718422      0.43247235690834     -0.37622068182805
  N   -2.93077744464560      0.59597006688655     -0.98245034280156
