12
Coordinates from ORCA-job run
  C   0.61002423541382      0.29694998178864     -0.45146106553630
  C   -0.70994230716586      0.03273746969600      0.29981492524486
  F   0.64968526988983      1.68060674798505     -0.65641978508188
  H   -0.64087253978889      0.53644289259353      1.27261014465652
  H   0.58494007243428     -0.16911847055126     -1.43818681640259
  N   1.69673483364705     -0.19932708019925      0.29085131278620
  H   1.82126165154213      0.30388172504611      1.16010956725708
  H   2.55737494922321     -0.17941668423794     -0.23825744890109
  C   -0.90050390450676     -1.40297052729959      0.52062554004714
  N   -1.06314640998169     -2.55291505871687      0.68759468145459
  C   -1.84988668479110      0.59943373372353     -0.42791112903789
  N   -2.75666916591602      1.05169527017205     -1.01936992648663
