12
Coordinates from ORCA-job run
  C   0.58877681642078      0.45386576545696     -0.29752976053815
  C   -0.74743505180645     -0.29211486059553     -0.09783198458645
  F   0.65238496570284      1.45957838250376      0.63279992828013
  H   -0.75242755843781     -1.15540347069004     -0.77472252289195
  H   0.58392325203499      0.93044576588863     -1.28698509331825
  N   1.67736486981340     -0.44957111253024     -0.05117133458935
  H   1.95321027774923     -0.92741992103012     -0.89959075596037
  H   2.47008291733173      0.07473733274076      0.29717620176284
  C   -1.88013508758773      0.57539053641777     -0.43699372688720
  N   -2.75815060025737      1.29126607639216     -0.74302762816346
  C   -0.84883467704178     -0.78309785180044      1.27938407998773
  N   -0.93876012392183     -1.17667664275365      2.38049259690448
