12
Coordinates from ORCA-job run
  C   0.65890258315280     -0.20902023853411     -0.48423317044058
  C   -0.58381695162217     -0.41382079020333      0.40446738964643
  F   0.21945635179089      0.42006835429777     -1.65042865322627
  H   -0.26730907062423     -0.98566559525721      1.28356890667529
  H   1.04985192453680     -1.18467415113356     -0.78143671908352
  N   1.64323412808478      0.51315557735957      0.21895447768277
  H   1.34549876806113      1.46348322046037      0.40673220141116
  H   2.51789662155749      0.53245735689338     -0.28764612194672
  C   -1.62038014778398     -1.16590299027404     -0.30783855730239
  N   -2.42673554026050     -1.79942911452234     -0.87771808748776
  C   -1.09358686301406      0.88501343277299      0.85610428900829
  N   -1.44201180387895      1.94433493814050      1.22147404506330
