12
Coordinates from ORCA-job run
  C   0.75185021495318     -0.24803693153777     -0.29348193984034
  C   -0.65679930934491     -0.37733985641248      0.31882591287565
  F   0.58052207917725      0.20568315750884     -1.60263715234679
  H   -0.54212236969103     -0.81537762566810      1.31628556999135
  H   1.20426759207023     -1.23991557927805     -0.36139560945759
  N   1.55082599995632      0.59499933217181      0.50384386106337
  H   1.21289652652768      1.55023664611038      0.49193564152812
  H   2.51588359487803      0.57964939330139      0.20316746496228
  C   -1.50476395152524     -1.25350113418123     -0.49413713025592
  N   -2.16290884664403     -1.98327055823626     -1.13495501307247
  C   -1.26130104401589      0.95109806069200      0.46278532570664
  N   -1.68835048634160      2.03677509552947      0.58976306884570
