12
Coordinates from ORCA-job run
  C   0.59338830516909      0.47926114560338     -0.36257079470619
  C   -0.75833681267168     -0.24303038032805     -0.19885602446945
  F   0.64357076542014      1.46596357812588      0.62398869108101
  H   -0.84759110876811     -0.96178485312881     -1.02061441693110
  H   0.60803375862175      0.99599626654446     -1.32488684964010
  N   1.64983767149430     -0.45030565362449     -0.29653257172756
  H   2.53210104258729     -0.02378727300345     -0.54412088684576
  H   1.72611567948244     -0.86468917751869      0.62489441772955
  C   -1.87335843612053      0.70502129715139     -0.27114636661681
  N   -2.75943301109589      1.46772452319780     -0.36872650149296
  C   -0.77875024738950     -0.98295711558211      1.06708983256560
  N   -0.73657760672935     -1.58841235743722      2.07148147105377
