12
Coordinates from ORCA-job run
  C   0.75604896805789     -0.25072083415940     -0.27962104168818
  C   -0.64855261851878     -0.36807345753259      0.34429613602855
  F   0.57255997560800      0.11369553437840     -1.61483749775186
  H   -0.52296702849539     -0.73639196894079      1.36833779705928
  H   1.22803974667561     -1.23571010912631     -0.28486839699861
  N   1.53967167929271      0.65767121701416      0.45882268396089
  H   1.18166972245254      1.60300111522013      0.38868838905444
  H   2.50405475453414      0.64340829984644      0.15605016963698
  C   -1.47867548781021     -1.31446993721040     -0.40571184429601
  N   -2.11983159783129     -2.10120388732420     -0.99425840393244
  C   -1.28011513357104      0.95426284463369      0.40270104217556
  N   -1.72990298039417      2.03653118320086      0.46140096675140
