12
Coordinates from ORCA-job run
  C   0.77988088827295     -0.23441832756766     -0.03835255202621
  C   -0.74969077838013     -0.08293210217410     -0.15457764843665
  F   1.15432512852517     -1.06126442500303     -1.10262759833699
  H   -0.95789725340264      0.44744402978872     -1.09286584145450
  H   1.03977044018637     -0.76271108742708      0.88069652306831
  N   1.39298753628377      1.03141684190025     -0.05882918527676
  H   2.37673563215568      0.97870597666494      0.16667242247416
  H   1.27449533678283      1.49267169801722     -0.95186835324734
  C   -1.27683212374337      0.70504389140077      0.96266919799709
  N   -1.70462373232025      1.32455426249572      1.86255341379904
  C   -1.40508428504220     -1.39358147089630     -0.21541986298723
  N   -1.92406678931820     -2.44492928719945     -0.25705051557294
