12
Coordinates from ORCA-job run
  C   0.59678967276628     -0.07008191011571     -0.59296256330096
  C   -0.53308825566975     -0.51328883561359      0.35732211300807
  F   0.02432352791080      0.80849354266563     -1.51485971108778
  H   -0.11684231311310     -1.27004149237732      1.03115974443054
  H   0.94702073565385     -0.93574583920415     -1.15963100583117
  N   1.65934114218511      0.48774276134889      0.14489643525211
  H   2.46707393626473      0.65273544118645     -0.44028152877842
  H   1.38824100105349      1.35580462031528      0.59196346354007
  C   -1.64811722715152     -1.10059406975090     -0.39046353567669
  N   -2.51805549608242     -1.60126664789048     -0.99788722068226
  C   -0.98292569101352      0.62685809663468      1.16251100694601
  N   -1.28376103280395      1.55938433280122      1.80823280218047
