12
Coordinates from ORCA-job run
  C   0.51914655913312      0.13655201204903     -0.72484870315814
  C   -0.61579054857655      0.28620392190331      0.32720402199556
  F   0.48038923551804      1.32111261525723     -1.43806844065383
  H   -0.36961852474062      1.16745355736089      0.93316604359160
  H   0.27968952306482     -0.67872727985555     -1.41136818978387
  N   1.80196426738300     -0.06542230301605     -0.17592459143816
  H   2.06423226566729     -1.03498061246581     -0.09988020830277
  H   1.97834259463922      0.43302847456538      0.68406243558422
  C   -0.64476621909700     -0.89604076999425      1.19074013002521
  N   -0.62371989147302     -1.86257811527936      1.85637600315949
  C   -1.91753290046127      0.50784684935244     -0.30646499258644
  N   -2.95033636105705      0.68755165012274     -0.83399350843287
