12
Coordinates from ORCA-job run
  C   0.58464402563006      0.35324457582833     -0.46439549751906
  C   -0.73994786538813      0.14725138316069      0.30007926445199
  F   0.63500697699158      1.67918263161807     -0.82196394525136
  H   -0.70932414660303      0.84570943329264      1.14377625882706
  H   0.57025898073346     -0.22267464562763     -1.39953127218015
  N   1.67952723745244      0.09681360149243      0.42269882781646
  H   1.74705486681813     -0.89026127505802      0.64122037514483
  H   2.54254321640525      0.38398379344434     -0.02360977430435
  C   -0.81368865194935     -1.22318201889039      0.81024914497048
  N   -0.80964085887008     -2.32989723547862      1.20140582846596
  C   -1.88942111148024      0.45430900006763     -0.55431541421794
  N   -2.79601266974007      0.70552075615052     -1.25561379620392
