12
Coordinates from ORCA-job run
  C   0.58214129257123      0.38466157624225     -0.47580706816903
  C   -0.77022682745233     -0.26103969267954     -0.11524818795379
  F   0.69065798918376      1.54517790787651      0.29261528613041
  H   -0.90722525301601     -1.12486928731479     -0.77481534484463
  H   0.55916114522336      0.70108198008395     -1.52095207048658
  N   1.62824535909662     -0.53635102837449     -0.27128595030970
  H   2.50375571509502     -0.18726273651714     -0.63667158801614
  H   1.74182867847388     -0.76161907560836      0.71001408480168
  C   -1.87395164587256      0.68005442630638     -0.32434695509274
  N   -2.75122328925137      1.43161348238870     -0.52928649787682
  C   -0.74200983863875     -0.73716144146846      1.27161457452451
  N   -0.66015332541285     -1.13328611093501      2.37316971729284
