12
Coordinates from ORCA-job run
  C   0.50958884376370      0.11301913467801     -0.73520906982213
  C   -0.62329366649184      0.28461552306593      0.31579625778132
  F   0.42697544825277      1.25299463448494     -1.51446656966302
  H   -0.40205900659489      1.20506036685968      0.87097433946102
  H   0.29265363442434     -0.74731473597049     -1.37242540403197
  N   1.80138157949536     -0.01481323157164     -0.18533290175665
  H   1.96510979353213      0.53544342110393      0.64510658554957
  H   2.09882477321380     -0.96892898378154     -0.05979613211994
  C   -0.60919589793877     -0.84853168098996      1.24311998017647
  N   -0.54846489607964     -1.77224015390142      1.96473117196110
  C   -1.93483730005500      0.42836591314590     -0.32013593564275
  N   -2.97568330552198      0.53232979287667     -0.85236232189300
