12
Coordinates from ORCA-job run
  C   0.60343040431919      0.50572311571654     -0.30331301499832
  C   -0.76030372280299     -0.20861005811783     -0.22937570713299
  F   0.65803699957090      1.37986013367328      0.78414760550364
  H   -0.85122572291361     -0.83484195125073     -1.12352062438742
  H   0.63490055182118      1.12272645312896     -1.20415331071703
  N   1.64587788849295     -0.44149719794256     -0.32881102392296
  H   2.53645379112982     -0.00367569470435     -0.52157218361376
  H   1.70721824493717     -0.95361870027775      0.54345022421817
  C   -1.85966362646086      0.75997451355096     -0.21072287753269
  N   -2.72976090390239      1.54662633062195     -0.23664405825506
  C   -0.80461594046129     -1.07932875538446      0.94990397201939
  N   -0.78034796373007     -1.79233818901401      1.88161099881903
