12
Coordinates from ORCA-job run
  C   0.59662461430666      0.36566874908628     -0.43883578126965
  C   -0.74272857226784      0.14358398788648      0.29452374145141
  F   0.66865255738721      1.70486130813745     -0.73869103589939
  H   -0.71781566258246      0.80260323620197      1.16958049279580
  H   0.59094620877486     -0.17002962832655     -1.39773365001968
  N   1.67360128003445      0.05786310157716      0.45396165623192
  H   1.72480415749278     -0.93838347686935      0.63166869722982
  H   2.54732004423784      0.35130771375658      0.03325453371382
  C   -0.84244907579800     -1.24754278115734      0.74039832017482
  N   -0.85824199162439     -2.37091786036530      1.08047225447266
  C   -1.87416177317931      0.50378261939762     -0.56326550402129
  N   -2.76655178678181      0.79720303067499     -1.26633372486025
