12
Coordinates from ORCA-job run
  C   0.53162302719609      0.14038943870006     -0.71547790897282
  C   -0.63078550640874      0.27367961593454      0.30814641148203
  F   0.47406436955949      1.31057305013142     -1.45048015595954
  H   -0.42286949445654      1.16965195255380      0.90687921214590
  H   0.33216647810203     -0.69361074831358     -1.39224348062207
  N   1.80671222228827     -0.01360730950784     -0.13407726314544
  H   2.09702660565451     -0.97314513378880     -0.03736471234499
  H   1.94735388325530      0.50257561040178      0.72195411944074
  C   -0.64776654594036     -0.89638066195817      1.18857509595378
  N   -0.61281986645987     -1.84918971647248      1.87309174127513
  C   -1.92337555780479      0.44912786556504     -0.35808304625096
  N   -2.95032961498538      0.57993603675423     -0.91092001300177
