12
Coordinates from ORCA-job run
  C   0.60056050094761      0.10625861865884     -0.70321003659411
  C   -0.84712734627726     -0.16650861182507     -0.24620440155772
  F   0.55900203137776      1.19064792233653     -1.54955342116386
  H   -1.44632568601750     -0.34222628935348     -1.14682610965459
  H   0.93654390184995     -0.74449046173878     -1.31330903953381
  N   1.41717048049840      0.44343124224925      0.41508395314739
  H   2.36664023079618      0.62588801623216      0.11599676306329
  H   1.42650624497464     -0.29357415458503      1.10909357047221
  C   -1.40133631458020      0.98863557745046      0.46644809040677
  N   -1.88113419562361      1.90560965928817      1.01861783494573
  C   -0.88315553896020     -1.36963255614796      0.58927867424034
  N   -0.84834430898577     -2.34303896256511      1.24458412222836
