12
Coordinates from ORCA-job run
  C   0.62663696758891      0.55986668294927     -0.31987032610820
  C   -0.71269539147961     -0.21758575703924     -0.15159733578594
  F   0.57479940917937      1.58164363772105      0.60470471272910
  H   -0.74318512848188     -0.99766248007056     -0.92144138254830
  H   0.64284374783328      1.00384919432383     -1.31896515159394
  N   1.79659328332499     -0.20353574867236     -0.12174806783975
  H   1.75926356643591     -0.82395241509346      0.67510251176550
  H   2.12905830279268     -0.66917668055681     -0.95068103082211
  C   -1.86833415293491      0.66354558313990     -0.33407772382870
  N   -2.77681293435713      1.38212178913612     -0.52241911675483
  C   -0.74016141690845     -0.86922857127337      1.16056372276570
  N   -0.68700625299317     -1.41088523456435      2.20042918802146
