12
Coordinates from ORCA-job run
  C   0.66998246492318      0.01907133068967     -0.72854772148461
  C   -0.81744489705061     -0.19332120177374     -0.30817777722715
  F   0.61417499567313      1.01110258668380     -1.68901671010140
  H   -1.41047740052271     -0.38028800641522     -1.21023365328577
  H   1.02395935306362     -0.89997617093747     -1.20293236983840
  N   1.55933266060975      0.39160131309482      0.29815441597282
  H   1.95357294453507     -0.39007903819600      0.79746244945834
  H   1.19622604968564      1.09506686270913      0.92658322437227
  C   -1.32110778916437      1.01072668101348      0.35582415114743
  N   -1.66558687303854      1.98873698664572      0.90571501174841
  C   -0.90173164031907     -1.35261562613016      0.58177808640120
  N   -0.90189986839509     -2.30102571738404      1.27339089283687
