12
Coordinates from ORCA-job run
  C   0.64315326054555     -0.00966010875277     -0.75383570873717
  C   -0.83473979270671     -0.15970568525069     -0.27764378886093
  F   0.59299571578851      0.98389220320817     -1.71271802653703
  H   -1.46838406327665     -0.32400006980705     -1.15623561095185
  H   0.94032409404494     -0.94255737254299     -1.23990268824660
  N   1.58539483493558      0.32474514752255      0.23846863474925
  H   1.27500516520219      1.04069228812624      0.88079637769662
  H   1.96527711568613     -0.47346513889316      0.72232499214589
  C   -1.26361648889112      1.06583358852249      0.39967862112795
  N   -1.54782908424691      2.05944954320628      0.95609367462658
  C   -0.93489082931575     -1.31138423295819      0.62057966319473
  N   -0.95268992776576     -2.25284016238088      1.32139385979255
