12
Coordinates from ORCA-job run
  C   0.61774683709882      0.12854016363825     -0.68439782724138
  C   -0.83078236207448     -0.20431255434909     -0.27253309973879
  F   0.55679864972096      1.20364181485390     -1.54140912818436
  H   -1.39254267692372     -0.40811877070655     -1.19123426617987
  H   1.01095532161783     -0.71114301599131     -1.27525866518002
  N   1.38160042333445      0.50972749358164      0.45695842656235
  H   1.39821805800275     -0.22062031794926      1.15790981003938
  H   2.33232015080056      0.72837596911070      0.18740000287237
  C   -1.45670679789189      0.92802880158160      0.41701521584482
  N   -1.99111785414902      1.82564685615225      0.95070294985811
  C   -0.84169500790913     -1.40512356705617      0.56700983744969
  N   -0.78379474162714     -2.37364287286596      1.22783674389770
