12
Coordinates from ORCA-job run
  C   0.62186409919051     -0.11212049591054     -0.63939375477838
  C   -0.53531840402587     -0.39972495601038      0.36314508769717
  F   0.02866861718342      0.52243957405450     -1.71039422198075
  H   -0.11540297929147     -0.97082666936164      1.19958952617748
  H   1.02011351413868     -1.06935700787290     -0.98699363507887
  N   1.67288315862491      0.68350356122661     -0.13601410946511
  H   2.39816894798928      0.16040765689350      0.32756825127186
  H   1.36941174556259      1.47899277069668      0.40823901791808
  C   -1.59534771799405     -1.19566822793914     -0.25982331478428
  N   -2.41181046887140     -1.86619510720339     -0.77070471204707
  C   -1.05540245067752      0.86519817144384      0.88877407575623
  N   -1.39782806182909      1.90335072998286      1.31600778931366
