12
Coordinates from ORCA-job run
  C   0.76022166317256     -0.18869682702863     -0.25923190717386
  C   -0.78009856396478     -0.14937187943822     -0.17392270423811
  F   1.07674570804267     -0.79142632544304     -1.45317598595378
  H   -1.11440389187772      0.39424511773358     -1.06452570035036
  H   1.16251816967857     -0.83373137342124      0.53367948580418
  N   1.25932795884187      1.15364739182619     -0.30006819606415
  H   1.14802966057760      1.60921891769828      0.59815284012080
  H   2.24684388302268      1.13257102444524     -0.52572059655811
  C   -1.19455381743286      0.58462162624576      1.02315667102725
  N   -1.46313414588994      1.19167035309877      1.99129923926210
  C   -1.33839760255213     -1.50345432492947     -0.18179506627153
  N   -1.76309902161854     -2.59729370078722     -0.18884807960442
