12
Coordinates from ORCA-job run
  C   0.77999797113612     -0.23326230619572     -0.03663675437001
  C   -0.75257347738884     -0.10139984003881     -0.13994289525737
  F   1.14414167571293     -1.12376425425275     -1.05295040509982
  H   -0.97859826446667      0.34871774064701     -1.11511471307414
  H   1.05736831707160     -0.70163518496312      0.90947454625267
  N   1.38386583392983      1.03209041113370     -0.14571691252286
  H   1.24884601020537      1.43812111762357     -1.06293161966875
  H   2.37056193587993      1.00105889461824      0.07001808166995
  C   -1.26913433309856      0.77127842653251      0.91733311902169
  N   -1.68823469420972      1.46197543855664      1.76826391753166
  C   -1.39569447519115     -1.41796182053487     -0.08340486024195
  N   -1.90154649958085     -2.47521862312640     -0.02839150424107
