12
Coordinates from ORCA-job run
  C   0.61935381590072      0.27328252565738     -0.59491134991087
  C   -0.66637718385970      0.21715739029019      0.27697977436345
  F   0.65419427486966      1.57266146852426     -1.06803244331722
  H   -0.53907289415547      0.95921061375429      1.07552175249170
  H   0.51193838138940     -0.39512783642395     -1.45225802963580
  N   1.80814319450444     -0.03013939724625      0.09946211236493
  H   2.09081036727186     -0.99379776322379      0.02339425097925
  H   1.83382104108960      0.28833602415862      1.05706829771566
  C   -0.79710391667623     -1.11263096772557      0.87609502657809
  N   -0.85112602137950     -2.19078788658391      1.33679147847416
  C   -1.86105103253666      0.56660834000539     -0.49501119223855
  N   -2.80553002641812      0.84622748881332     -1.13309967786480
