12
Coordinates from ORCA-job run
  C   0.63370512903484     -0.08874087626203     -0.65763618464497
  C   -0.85053676471932     -0.17732044297059     -0.24721340668383
  F   0.68504978844326      0.92026651991158     -1.63030519006777
  H   -1.44691030127688     -0.25407292590801     -1.16279761083081
  H   0.92627097520573     -1.01649026473610     -1.15350311565111
  N   1.45575141992461      0.14337276684835      0.45546418724759
  H   2.43682370568965      0.06051719838346      0.22943635112182
  H   1.27581332136075      1.04221688568098      0.88534972456200
  C   -1.24643486163350      1.04230882277762      0.46470269531226
  N   -1.51650738358783      2.03256992912513      1.03353934664974
  C   -1.08403662899449     -1.36552810341276      0.57694218861221
  N   -1.26898839944682     -2.33909950943762      1.20502101437286
