12
Coordinates from ORCA-job run
  C   0.62986488472425      0.09570774000044     -0.67818263646269
  C   -0.82812690187231     -0.21257269364017     -0.28103887429687
  F   0.59301480810491      1.13499079779412     -1.57909589138776
  H   -1.37352574366188     -0.45692127005953     -1.19968593629965
  H   1.02927752971309     -0.77004710853503     -1.22570477245862
  N   1.37338647359591      0.52042201006975      0.46180982582810
  H   2.32551550395280      0.73947592076023      0.19733098418249
  H   1.38793831605668     -0.18888613242973      1.18427282344167
  C   -1.46209542939168      0.95097856007454      0.34673750367307
  N   -2.00264281741545      1.86897817846722      0.83743930025225
  C   -0.85871966650566     -1.37329607350142      0.61309222140800
  N   -0.81288695730065     -2.30782992900042      1.32202545211999
