12
Coordinates from ORCA-job run
  C   0.60081129451416      0.48142242145392     -0.27292402841151
  C   -0.73972572331379     -0.25786649781983     -0.09333467519417
  F   0.69178190862875      1.44586758799175      0.69803446109190
  H   -0.79154905905362     -1.06060615005382     -0.84021033486870
  H   0.58659624850990      1.00921044110920     -1.23698294732124
  N   1.67863614111328     -0.44049123540653     -0.07398775895590
  H   1.75354001337227     -1.08762550974044     -0.84885598021337
  H   2.54928566818634      0.07065724582962      0.00542207192271
  C   -1.86118689811738      0.65755838190231     -0.32763102857207
  N   -2.73711949619355      1.40741594127588     -0.54431777139470
  C   -0.82112689411226     -0.86295382858428      1.23946568082386
  N   -0.90994320353409     -1.36358879795779      2.29632231109318
