12
Coordinates from ORCA-job run
  C   0.58831572340396      0.48108471315853     -0.36702008835964
  C   -0.76784383237427     -0.22714122045027     -0.18083569633784
  F   0.68557408226589      1.43501584482363      0.64799346528593
  H   -0.89280519174946     -0.92135960033875     -1.01896679101086
  H   0.57920943409161      1.02818054380556     -1.31242516205076
  N   1.63251835275386     -0.46485100091341     -0.36512332164925
  H   1.73297308084739     -0.90784548485770      0.54072854917997
  H   2.51264007477183     -0.04192470818538     -0.62833071214897
  C   -1.87087636200932      0.73766233321104     -0.19161743484202
  N   -2.74800617846266      1.51515388776468     -0.24065481755168
  C   -0.75887870009519     -1.00146423486656      1.06456027009860
  N   -0.69182048344364     -1.63251107315135      2.05169173938652
