12
Coordinates from ORCA-job run
  C   0.63882319718152      0.01575283962918     -0.75736785937348
  C   -0.81982610619698     -0.24200794568774     -0.26653364435601
  F   0.50126965237076      0.96582983605851     -1.75079898941990
  H   -1.43949752182865     -0.49346980064270     -1.13439542015526
  H   1.01282444127101     -0.90603822940626     -1.21063367973803
  N   1.55296701976985      0.46572628266008      0.21566382297866
  H   1.18601141812530      1.18233012370461      0.82688269795638
  H   1.99048178812848     -0.27952513330325      0.73420803365553
  C   -1.34945026346411      0.96774761097186      0.36633208790707
  N   -1.71240052978895      1.95619422470388      0.88468899518506
  C   -0.81608678915907     -1.36224336880287      0.67591731080423
  N   -0.74511630640915     -2.27129643988531      1.41503664455575
