12
Coordinates from ORCA-job run
  C   0.66330275297507      0.02441368555363     -0.73391072397171
  C   -0.82103354989020     -0.18801815549930     -0.30195426678053
  F   0.60188846392040      1.02941272784385     -1.68029769755666
  H   -1.42293469664713     -0.36532067347633     -1.20008177631150
  H   1.00908329887744     -0.88944672851371     -1.22390052413414
  N   1.56374701390564      0.37981007396175      0.28880686207073
  H   1.95975174956187     -0.40878900517344      0.77531263250150
  H   1.21140167018988      1.07955932290521      0.92750025085761
  C   -1.31523912218171      1.01179448500630      0.37658625427105
  N   -1.65426001886347      1.98887556771260      0.93152844233681
  C   -0.89982939213513     -1.35508542356422      0.57834799305349
  N   -0.89587816971266     -2.30920587675634      1.26206255366335
