12
Coordinates from ORCA-job run
  C   0.62883333611748      0.56724064316144     -0.30261547822871
  C   -0.72325856795364     -0.19012625001495     -0.14369448038893
  F   0.63027200361292      1.52534464280312      0.68934213760425
  H   -0.79848598720669     -0.91107970961800     -0.96625775494800
  H   0.62431059939080      1.07717379406665     -1.26989794087070
  N   1.78522882050320     -0.23343289136117     -0.19376040225542
  H   2.08449680137471     -0.64607028025993     -1.06238714833778
  H   1.75779713665358     -0.90604710673377      0.55965775850481
  C   -1.86121237591943      0.72874480119889     -0.22046823008660
  N   -2.75566653968035      1.48215630683679     -0.31917419545411
  C   -0.72373913503175     -0.93552429778635      1.11781736285775
  N   -0.64857609186090     -1.55737965229273      2.11043837160344
