17

C	-0.331587	0.05524	-1.479616
C	0.0	0.0	0.0
F	-1.72715	0.206538	-1.664771
H	1.096626	0.0	0.0
H	-0.348745	-0.952662	0.410656
N	0.29315	1.225825	-2.047746
H	0.334286	1.136967	-3.055711
H	1.248805	1.275628	-1.703205
C	0.041697	-1.240465	-2.180406
H	1.110739	-1.423416	-2.044533
H	-0.524568	-2.081087	-1.76823
H	-0.182913	-1.161493	-3.249277
C	-0.552818	1.174635	0.7935
H	-1.645112	1.193303	0.757714
H	-0.237226	1.105308	1.837757
H	-0.184601	2.117844	0.389101
Br	3.675001	0.0	0.0
