17

C	-0.45306	0.078928	-1.448267
C	0.0	0.0	0.0
F	-0.176556	-1.184667	-2.051675
H	1.093924	0.0	0.0
H	-0.320411	0.927007	0.487152
N	-1.860542	0.340658	-1.555809
H	-2.368759	-0.384319	-1.063324
H	-2.126987	0.289072	-2.533047
C	0.346991	1.094677	-2.232414
H	0.054973	1.069175	-3.287442
H	1.409391	0.862384	-2.140762
H	0.165787	2.095327	-1.83608
C	-0.525315	-1.213453	0.758114
H	-0.24274	-2.13164	0.242546
H	-1.614779	-1.200923	0.88025
H	-0.083599	-1.241223	1.756641
Br	3.790255	0.0	0.0
