17

C	-0.344872	0.008306	-1.479895
C	0.0	0.0	0.0
F	-1.738009	0.200042	-1.615805
H	1.095592	0.0	0.0
H	-0.335116	0.958869	0.41551
N	0.285744	1.107508	-2.183085
H	1.289695	0.937359	-2.15625
H	0.141486	1.949669	-1.632341
C	0.008934	-1.287238	-2.178827
H	-0.169748	-1.169405	-3.249103
H	1.061688	-1.524029	-2.004282
H	-0.608553	-2.103412	-1.801517
C	-0.568433	-1.157628	0.807903
H	-0.361997	-1.013183	1.871558
H	-1.651519	-1.239561	0.675475
H	-0.107833	-2.104602	0.518614
Br	3.678697	0.0	0.0
