17

C	-0.487295	-0.030583	-1.447582
C	0.0	0.0	0.0
F	-0.198903	1.177602	-2.072819
H	1.094985	0.0	0.0
C	0.195881	-1.132965	-2.231997
H	-0.084878	-2.106292	-1.835642
H	-0.074716	-1.059558	-3.288417
H	1.272886	-0.993392	-2.10438
C	-1.963211	-0.171104	-1.460525
N	-3.129998	-0.302819	-1.417727
N	-0.378015	-1.273557	0.613664
H	-1.253702	-1.187835	1.117589
H	0.353157	-1.526059	1.269853
N	-0.442938	1.215522	0.660476
H	0.288853	1.506945	1.299066
H	-1.29572	1.058418	1.186553
H	2.890081	0.0	0.0
