17

C	-0.421634	0.020466	-1.461004
C	0.0	0.0	0.0
F	-1.834597	0.092799	-1.545968
H	1.095542	0.0	0.0
C	0.180353	1.18744	-2.206791
H	-0.122828	1.17455	-3.256836
H	1.26929	1.12305	-2.116966
H	-0.162264	2.098919	-1.719006
C	-0.067651	-1.257759	-2.114918
N	0.156771	-2.274566	-2.659704
N	-0.46278	-1.193056	0.705902
H	-1.191642	-1.672506	0.194112
H	0.322934	-1.823704	0.801201
N	-0.433989	1.24582	0.623185
H	-1.286917	1.05542	1.135188
H	0.280741	1.482121	1.303061
H	2.86623	0.0	0.0
