17

C	-0.45498	-0.00373	-1.457769
C	0.0	0.0	0.0
F	-0.187529	1.249367	-2.027617
H	1.102111	0.0	0.0
C	0.281455	-1.053841	-2.263023
H	0.026201	-0.964186	-3.321328
H	0.016932	-2.043485	-1.892877
H	1.35142	-0.888192	-2.106626
C	-1.924716	-0.166582	-1.544147
N	-3.09454	-0.24483	-1.617514
N	-0.445161	-1.259456	0.588761
H	-1.206207	-1.0478	1.228659
H	0.328841	-1.616382	1.142777
N	-0.461162	1.174991	0.733423
H	0.34743	1.771235	0.875995
H	-1.136219	1.707136	0.194783
H	2.904381	0.0	0.0
