17

C	-0.583486	0.00244	-1.40956
C	0.0	0.0	0.0
F	-0.12284	-1.116375	-2.101894
H	1.094163	0.0	0.0
C	-2.101612	-0.06111	-1.415944
H	-2.467661	-0.136256	-2.442331
H	-2.521593	0.834941	-0.954735
H	-2.394392	-0.951671	-0.85822
C	-0.14339	1.194476	-2.163354
N	0.099164	2.126788	-2.833914
N	-0.403393	-1.24592	0.670903
H	0.457448	-1.703518	0.957462
H	-0.916138	-1.024507	1.514642
N	-0.400492	1.238559	0.648534
H	0.359009	1.52927	1.254413
H	-1.24343	1.125992	1.200574
H	2.841462	0.0	0.0
