17

C	-0.583844	0.004352	-1.409629
C	0.0	0.0	0.0
F	-0.106763	-1.097902	-2.115022
H	1.094132	0.0	0.0
C	-2.100648	-0.085772	-1.41461
H	-2.534341	0.793375	-0.934959
H	-2.37863	-0.992228	-0.875061
H	-2.467533	-0.148285	-2.44165
C	-0.159516	1.210074	-2.151009
N	0.136519	2.135884	-2.809504
N	-0.394763	-1.244432	0.668236
H	-1.008025	-1.046431	1.449492
H	0.458061	-1.650797	1.042567
N	-0.396899	1.245476	0.646628
H	0.388835	1.562619	1.205133
H	-1.196749	1.115715	1.254194
H	2.83623	0.0	0.0
