17

C	-0.453242	0.028648	-1.455561
C	0.0	0.0	0.0
F	-1.83002	0.299361	-1.538845
H	1.101461	0.0	0.0
C	0.309235	1.096455	-2.20679
H	0.07711	2.050437	-1.734459
H	1.380326	0.905816	-2.098491
H	0.015159	1.110829	-3.257564
C	-0.270459	-1.289106	-2.096759
N	-0.158287	-2.334384	-2.617879
N	-0.556247	-1.170553	0.704681
H	-0.12011	-1.150686	1.623843
H	-0.181047	-2.008931	0.265307
N	-0.420452	1.236658	0.621685
H	-1.326198	1.093763	1.054771
H	0.264296	1.487235	1.325657
H	2.908133	0.0	0.0
