16

C	-0.02399	0.029007	0.004817
C	-0.541297	0.278999	-1.390395
F	1.347989	-0.210603	-0.012808
H	-1.549339	0.687649	-1.302038
H	-0.657039	-0.715172	-1.829519
N	-0.062184	1.336343	0.863878
O	-0.495996	2.376072	0.375541
O	0.345573	1.216349	2.018182
N	-0.678475	-1.00906	0.649913
H	-1.683555	-1.022466	0.432804
H	-0.515259	-0.990521	1.647834
C	0.364047	1.137885	-2.264797
H	-0.066652	1.218357	-3.265975
H	1.356358	0.69319	-2.357888
H	0.468365	2.14487	-1.862116
Br	-3.954302	-0.719713	-0.114207
