14

C	-0.589234	0.041913	-1.40959
C	0.0	0.0	0.0
Cl	0.149951	-1.354878	-2.3704
H	1.092786	0.0	0.0
H	-0.360049	0.902424	0.503559
N	-2.004504	-0.050466	-1.329185
H	-2.205949	-0.797536	-0.670511
H	-2.417134	-0.242755	-2.230064
C	-0.209769	1.260861	-2.129747
N	0.055241	2.264795	-2.678551
N	-0.548354	-1.182096	0.6844
H	0.101717	-1.945284	0.528172
H	-0.53759	-1.000922	1.680189
Br	3.615184	0.0	0.0
