14

C	-0.559064	-0.018758	-1.420987
C	0.0	0.0	0.0
Cl	-0.080502	-1.502827	-2.287884
H	1.092572	0.0	0.0
H	-0.316135	0.967266	0.428678
N	-2.016256	0.009877	-1.370216
H	-2.293317	0.898014	-0.961522
H	-2.385389	-0.022048	-2.314911
C	-0.037279	1.124555	-2.196424
N	0.243471	2.090986	-2.803893
N	-0.462044	-1.156178	0.741705
H	0.257964	-1.431681	1.394634
H	-1.321546	-0.970871	1.236367
Br	3.605886	0.0	0.0
