14

C	-0.354146	0.103536	-1.484859
C	0.0	0.0	0.0
Cl	-2.16477	0.305155	-1.642092
H	1.095922	0.0	0.0
H	-0.39171	-0.927815	0.432774
N	0.28343	1.217129	-2.138947
H	1.284687	1.016025	-2.130517
H	0.147514	2.001164	-1.50297
C	-0.031161	-1.146671	-2.181774
N	0.208253	-2.156787	-2.730327
N	-0.413629	1.224958	0.67231
H	-1.316595	1.116963	1.112602
H	0.273339	1.451425	1.378689
Br	3.535331	0.0	0.0
