15

C	-0.463476	0.080205	-1.459618
C	0.0	0.0	0.0
Br	-0.137011	-1.673115	-2.312854
H	1.093233	0.0	0.0
H	-0.380986	-0.91802	0.461441
C	-1.905885	0.305241	-1.543839
N	-3.063987	0.506302	-1.579989
C	0.32326	1.146411	-2.206504
H	1.386009	0.924971	-2.082386
H	0.10883	2.10664	-1.733517
H	0.048797	1.181056	-3.26257
N	-0.417818	1.226633	0.678438
H	0.368287	1.55514	1.228481
H	-1.203788	1.063353	1.293147
H	2.95159	0.0	0.0
