15

C	-0.379109	-0.038708	-1.470493
C	0.0	0.0	0.0
Br	-2.322995	-0.484598	-1.713234
H	1.101886	0.0	0.0
H	-0.336421	-0.938027	0.452781
C	-0.220013	1.280729	-2.077817
N	-0.08208	2.342729	-2.560812
C	0.467756	-1.074097	-2.190771
H	0.27168	-1.080458	-3.263194
H	0.255877	-2.064018	-1.780598
H	1.516641	-0.833368	-1.976262
N	-0.576782	1.151404	0.692808
H	-0.744844	0.898244	1.659124
H	0.138007	1.874601	0.711036
H	2.911803	0.0	0.0
