15

C	-0.459074	0.081827	-1.461784
C	0.0	0.0	0.0
Br	-0.120346	-1.668262	-2.316698
H	1.093274	0.0	0.0
H	-0.379808	-0.919905	0.459072
C	-1.902875	0.294201	-1.550248
N	-3.061949	0.486833	-1.587072
C	0.323158	1.154053	-2.205108
H	0.054046	1.187765	-3.262734
H	0.099991	2.112825	-1.732956
H	1.387155	0.939094	-2.076596
N	-0.422483	1.224409	0.678477
H	-1.224016	1.062154	1.274379
H	0.354064	1.546365	1.247349
H	2.950393	0.0	0.0
