15

C	-0.458744	0.083745	-1.461807
C	0.0	0.0	0.0
Br	-0.123888	-1.666647	-2.31783
H	1.093292	0.0	0.0
H	-0.380097	-0.920178	0.458173
C	-1.902239	0.298207	-1.55021
N	-3.060901	0.492359	-1.586966
C	0.324898	1.155583	-2.203937
H	0.103513	2.114019	-1.730424
H	0.055582	1.191093	-3.261509
H	1.388512	0.939077	-2.075789
N	-0.422019	1.224189	0.679386
H	-1.224171	1.062313	1.274391
H	0.354212	1.545001	1.249075
H	2.951779	0.0	0.0
