15

C	-0.585514	-0.02606	-1.411936
C	0.0	0.0	0.0
Br	0.058012	1.552113	-2.419638
H	1.09801	0.0	0.0
H	-0.339326	-0.92613	0.482822
C	-0.131598	-1.207132	-2.143857
N	0.125452	-2.190342	-2.737509
C	-2.108509	0.025462	-1.417384
H	-2.501402	0.067693	-2.435068
H	-2.415757	0.904919	-0.853513
H	-2.493917	-0.872311	-0.922196
N	-0.513685	1.169212	0.732702
H	0.246905	1.840948	0.745169
H	-0.654619	0.897027	1.69772
H	2.923034	0.0	0.0
