15

C	-0.399711	-0.047222	-1.46449
C	0.0	0.0	0.0
Br	-2.398332	-0.27303	-1.644284
H	1.095608	0.0	0.0
H	-0.369661	0.923509	0.461285
C	-0.119709	1.229844	-2.115692
N	0.102901	2.259326	-2.638557
C	0.288917	-1.197053	-2.173518
H	0.035233	-1.230656	-3.234594
H	-0.003687	-2.12448	-1.682017
H	1.367548	-1.048901	-2.031035
N	-0.399635	-1.221305	0.688052
H	-1.201224	-1.06237	1.282302
H	0.383716	-1.511946	1.262964
H	2.86313	0.0	0.0
