15

C	-0.393202	-0.063957	-1.466261
C	0.0	0.0	0.0
Br	-2.392527	-0.284494	-1.653696
H	1.095692	0.0	0.0
H	-0.370446	0.931709	0.444403
C	-0.101316	1.200938	-2.133612
N	0.135178	2.221055	-2.666024
C	0.292005	-1.226655	-2.155119
H	-0.008412	-2.145771	-1.654055
H	1.369556	-1.082138	-2.00479
H	0.047777	-1.272118	-3.218264
N	-0.409015	-1.209831	0.700732
H	-1.253054	-1.056433	1.235312
H	0.342506	-1.462103	1.332573
H	2.86703	0.0	0.0
