13
Coordinates from ORCA-job run
  C   -0.63843388432651      0.15153085321579      0.18428732457553
  C   0.72925427796298      0.47031693006894     -0.41891392663854
  F   -0.48605391292999      0.29374892890330      1.57744300161862
  H   0.73713501662465      0.23379498803449     -1.48324443960131
  H   0.99079849881287      1.51014283562781     -0.23932603910149
  N   -1.13081864461552     -1.10687930993388     -0.20374417375710
  H   -0.45568941988749     -1.83774883979989     -0.01514463711772
  H   -2.02153497326758     -1.30686053405079      0.23247985161471
  C   -1.58758728212584      1.20266449372630     -0.23634497199737
  N   -2.32602947129790      2.04690309310674     -0.58207941438087
  N   1.79461888476484     -0.34667122955246      0.23715430139509
  O   1.65269557478631     -1.56919266812282      0.21811548394657
  O   2.74164533549917      0.25725045877647      0.72731763944388
