13
Coordinates from ORCA-job run
  C   -0.63732561003797      0.17601873197758      0.24722337407124
  C   0.76352640927531      0.51565221916914     -0.27079162055055
  F   -0.55556221712853      0.33064683870349      1.65068655539673
  H   0.79407644281848      0.45212270252286     -1.35763986114465
  H   1.06302721879581      1.49596826825353      0.09086060211203
  N   -1.08293143945069     -1.07340514757844     -0.14122888029252
  H   -0.42299915521292     -1.79722757792651     -0.35903842674945
  H   -2.06356888848653     -1.26093454207550     -0.22405868574175
  C   -1.56686295048890      1.22720350689144     -0.21772480206891
  N   -2.29301990428037      2.05819656297946     -0.61810637984426
  N   1.75394652112530     -0.46072108329272      0.26920725984164
  O   2.53650531996940     -0.06212071767039      1.12323898324793
  O   1.70918825310160     -1.60239976195394     -0.19262811827747
