13
Coordinates from ORCA-job run
  C   -0.61046976826984      0.23135470059583      0.19441395378608
  C   0.73776825210010      0.33696027939183     -0.51940895912087
  F   -0.35645012364276      0.55645076372117      1.54192768203566
  H   0.65891427184114     -0.04753421214108     -1.53645079860311
  H   1.09392999495979      1.36399728496550     -0.50917545602184
  N   -1.23029664975762     -1.01788511377523      0.02162263188807
  H   -2.11503356814603     -1.06613174009434      0.50939258676393
  H   -0.61507910421314     -1.77184842121243      0.29889182956553
  C   -1.49434206937646      1.29456992371904     -0.32626590429753
  N   -2.17981762601935      2.14603693164515     -0.75367411862750
  N   1.77556760589510     -0.47039844985495      0.19037716751213
  O   2.81164495663754      0.10280704162995      0.50380971140271
  O   1.52366382799153     -1.65837898859043      0.38653967371674
