13
Coordinates from ORCA-job run
  C   -0.61347042445217      0.14599860993453      0.20041661026915
  C   0.69501523371169      0.49737657119947     -0.51352827770173
  F   -0.31729214095274      0.33332638844311      1.57594781269234
  H   0.62462190378136      0.21288341352712     -1.56654776195291
  H   0.92679561518471      1.55302045068545     -0.37984534733051
  N   -1.07228061216477     -1.16174486453082     -0.09337583454489
  H   -0.40801441068644     -1.88112921560493      0.17241375293050
  H   -1.99835182665973     -1.29601066638951      0.30298420323179
  C   -1.63743461633387      1.15973896447383     -0.10113391037243
  N   -2.47445818221744      1.96440949461097     -0.26956109319226
  N   1.81452238291928     -0.30820901934316      0.08465986853822
  O   1.73292489156654     -1.52915974572951     -0.03196438631574
  O   2.72742218630359      0.30949961872346      0.61953436374847
