15

C	-0.282161	-0.028234	-1.512926
C	0.0	0.0	0.0
Br	0.113914	1.749003	-2.275994
H	1.093033	0.0	0.0
H	-0.346252	-0.971602	0.381149
C	0.69641	-1.023779	-2.131889
H	1.681044	-0.769239	-1.712333
H	0.68504	-0.986289	-3.221868
H	0.425413	-2.035241	-1.804818
C	-1.679004	-0.300236	-1.83597
N	-2.806987	-0.571446	-2.028283
N	-0.623686	1.113744	0.698375
H	0.114467	1.678884	1.097505
H	-1.210054	0.784591	1.451628
F	2.718306	0.0	0.0
