15

C	-0.298508	-0.040259	-1.501898
C	0.0	0.0	0.0
Br	0.115596	1.734869	-2.282847
H	1.100182	0.0	0.0
H	-0.361992	-0.957955	0.397813
C	0.66242	-1.049326	-2.125031
H	0.37576	-2.052798	-1.791418
H	0.641567	-1.016208	-3.215933
H	1.653539	-0.811088	-1.71449
C	-1.701633	-0.288493	-1.82066
N	-2.823677	-0.534401	-2.076032
N	-0.681393	1.09692	0.691208
H	-0.054432	1.893828	0.66235
H	-0.75783	0.84313	1.669437
F	2.729134	0.0	0.0
