15

C	-0.249275	0.054353	-1.497472
C	0.0	0.0	0.0
Br	-2.153688	0.565042	-1.922373
H	1.095749	0.0	0.0
H	-0.336081	0.95544	0.425284
C	0.710914	1.060862	-2.117746
H	1.700867	0.782652	-1.723764
H	0.465844	2.063024	-1.757077
H	0.672337	1.049336	-3.208111
C	-0.079715	-1.263405	-2.106962
N	0.095337	-2.297925	-2.636459
N	-0.568056	-1.173536	0.637865
H	0.137697	-1.580113	1.23698
H	-1.375171	-0.93871	1.199057
F	2.694876	0.0	0.0
