15

C	-0.576368	0.007294	-1.412834
C	0.0	0.0	0.0
Br	0.051377	-1.61957	-2.342167
H	1.097227	0.0	0.0
H	-0.385606	-0.898047	0.498926
C	-2.099928	0.002674	-1.443518
H	-2.465389	-0.896398	-0.940988
H	-2.443717	0.886546	-0.902431
H	-2.484941	0.020284	-2.465191
C	-0.078107	1.14993	-2.177104
N	0.275787	2.077732	-2.804365
N	-0.449957	1.239995	0.667452
H	-0.927701	1.017787	1.532235
H	0.403111	1.728343	0.916878
F	2.650274	0.0	0.0
