15

C	-0.25116	0.058508	-1.500897
C	0.0	0.0	0.0
Br	-2.122625	0.636817	-1.941591
H	1.101994	0.0	0.0
H	-0.356491	0.939676	0.433855
C	0.758353	1.013077	-2.124835
H	0.727345	0.988593	-3.216212
H	0.55029	2.030206	-1.780354
H	1.734901	0.705112	-1.714998
C	-0.132136	-1.274287	-2.088561
N	-0.01334	-2.35014	-2.546245
N	-0.633756	-1.152672	0.637113
H	-0.914796	-0.900303	1.576081
H	0.076548	-1.871362	0.7297
F	2.716394	0.0	0.0
