15

C	-0.448995	0.036561	-1.466021
C	0.0	0.0	0.0
Br	0.298012	-1.550308	-2.377569
H	1.092626	0.0	0.0
H	-0.417781	-0.910841	0.447379
C	-1.961486	-0.011771	-1.674009
H	-2.355741	-0.91534	-1.204767
H	-2.221015	-0.017772	-2.734778
H	-2.42848	0.862666	-1.210184
C	0.095795	1.217387	-2.13695
N	0.465928	2.202993	-2.659515
N	-0.397395	1.192752	0.745119
H	-1.250438	1.627699	0.419212
H	0.361018	1.858631	0.66633
F	2.641545	0.0	0.0
