12

C	-0.586486	0.039163	-1.407531
C	0.0	0.0	0.0
Br	-0.023146	-1.508399	-2.45994
H	1.097678	0.0	0.0
H	-1.674088	-0.020944	-1.340524
H	-0.346755	-0.926313	0.467098
C	-0.24686	1.263527	-2.124952
N	0.016939	2.257206	-2.692739
N	-0.569985	1.152085	0.718756
H	0.072646	1.930788	0.600102
H	-0.563559	0.941793	1.709834
Br	3.64302	0.0	0.0
