12

C	-0.44624	0.04698	-1.453458
C	0.0	0.0	0.0
Br	-2.410706	0.223495	-1.587666
H	1.094935	0.0	0.0
H	-0.0505	0.947687	-1.922928
H	-0.356324	-0.930603	0.458436
C	-0.071096	-1.136959	-2.21518
N	0.215247	-2.092968	-2.835033
N	-0.427456	1.217026	0.680613
H	0.316149	1.507775	1.30185
H	-1.262723	1.057219	1.226356
Br	3.559049	0.0	0.0
