12

C	-0.582934	0.003451	-1.405372
C	0.0	0.0	0.0
Br	0.05083	-1.526089	-2.457745
H	1.098629	0.0	0.0
H	-1.663254	-0.140664	-1.335526
H	-0.345137	0.925534	0.475798
C	-0.3101	1.231163	-2.141089
N	-0.131151	2.251303	-2.69536
N	-0.569216	-1.139126	0.736193
H	-0.369986	-0.985686	1.718814
H	-0.0234	-1.956735	0.480871
Br	3.632801	0.0	0.0
