12

C	-0.487568	-0.002613	-1.442123
C	0.0	0.0	0.0
Br	-0.023051	1.664791	-2.362577
H	1.099294	0.0	0.0
H	0.029532	-0.784667	-2.001989
H	-0.332332	-0.951818	0.43176
C	-1.931418	-0.191519	-1.548215
N	-3.085728	-0.392168	-1.635688
N	-0.613618	1.09455	0.752064
H	-0.502228	0.892593	1.738364
H	-0.064721	1.929346	0.577202
Br	3.634655	0.0	0.0
