12

C	-0.442122	-0.01967	-1.456163
C	0.0	0.0	0.0
Br	-2.366987	0.405554	-1.617119
H	1.09506	0.0	0.0
H	0.069104	0.762237	-2.021139
H	-0.314454	0.960431	0.424394
C	-0.227148	-1.308631	-2.100504
N	-0.063511	-2.337778	-2.641476
N	-0.516651	-1.151202	0.724342
H	0.246506	-1.597426	1.214465
H	-1.21768	-0.880185	1.398183
Br	3.565017	0.0	0.0
