12

C	-0.482105	-0.059163	-1.449193
C	0.0	0.0	0.0
Br	-0.039692	1.588819	-2.40339
H	1.092032	0.0	0.0
H	0.032372	-0.872483	-1.962967
H	-0.36303	0.923148	0.467953
C	-1.924975	-0.254186	-1.529775
N	-3.088104	-0.415925	-1.550278
N	-0.450911	-1.229319	0.646881
H	-1.2907	-1.074892	1.18772
H	0.280297	-1.566835	1.259838
Br	3.608281	0.0	0.0
