12

C	-0.371531	0.024525	-1.488742
C	0.0	0.0	0.0
Br	-2.326411	0.210946	-1.759019
H	1.095116	0.0	0.0
H	0.061921	0.904547	-1.966316
H	-0.368429	-0.927149	0.445653
C	0.040726	-1.17532	-2.204453
N	0.358737	-2.146245	-2.786632
N	-0.446551	1.141896	0.769175
H	0.114327	1.951685	0.538426
H	-1.421984	1.347834	0.594076
Br	3.583714	0.0	0.0
