17

C	-0.399307	-0.031475	-1.457947
C	0.0	0.0	0.0
Br	-0.10821	1.736088	-2.2662
H	1.093862	0.0	0.0
H	-0.37536	0.913388	0.46534
C	0.375586	-1.050849	-2.257425
H	0.135641	-0.998537	-3.319124
H	0.148426	-2.055599	-1.897512
H	1.436283	-0.84477	-2.077525
N	-1.907385	-0.25974	-1.568442
O	-2.640994	0.489519	-0.931028
O	-2.296669	-1.218429	-2.235618
C	-0.481224	-1.224876	0.773512
H	-1.572681	-1.286925	0.839864
H	-0.099576	-2.15223	0.340965
H	-0.080627	-1.163875	1.788757
H	2.949649	0.0	0.0
