17

C	-0.361265	0.047018	-1.459853
C	0.0	0.0	0.0
Br	-2.325962	0.358321	-1.765583
H	1.09455	0.0	0.0
H	-0.290785	0.976048	0.404982
C	0.420414	1.12833	-2.162707
H	0.127328	2.092789	-1.743872
H	0.242169	1.129468	-3.237971
H	1.481526	0.954538	-1.939077
N	-0.089469	-1.302072	-2.120129
O	-0.752562	-2.264782	-1.743592
O	0.799769	-1.346964	-2.967019
C	-0.548645	-1.117034	0.869083
H	-0.097442	-2.076055	0.614264
H	-1.635119	-1.214654	0.793349
H	-0.286255	-0.898883	1.908334
H	2.88276	0.0	0.0
