16

C	0.0	0.0	0.0
C	-0.497288	0.15648	-1.444793
F	1.378228	0.0	0.0
H	-1.583222	0.313309	-1.365416
C	-0.34005	1.221259	0.792027
N	-0.533127	2.180733	1.441702
N	-0.497794	-1.211132	0.55713
H	-1.521156	-1.160147	0.470581
H	-0.285306	-1.228856	1.549238
C	-0.201778	-1.087867	-2.284133
H	0.867972	-1.311146	-2.27697
H	-0.74411	-1.940886	-1.878203
H	-0.522929	-0.919578	-3.314531
C	0.119212	1.338121	-2.048366
N	0.634349	2.253993	-2.573374
Cl	-3.50308	0.0	0.0
