16

C	0.0	0.0	0.0
C	-0.32964	0.286293	-1.525707
F	1.398819	0.0	0.0
H	0.659164	0.393308	-1.985343
C	-0.378659	1.161193	0.835973
N	-0.524077	2.124023	1.491251
N	-0.483796	-1.189799	0.597895
H	-1.500141	-1.070467	0.692015
H	-0.332436	-1.967945	-0.036519
C	-1.122688	1.561898	-1.827253
H	-1.25273	1.657201	-2.90864
H	-2.097412	1.516483	-1.343924
H	-0.564215	2.42986	-1.468625
C	-0.912047	-0.900648	-2.150581
N	-1.251596	-1.881685	-2.699968
Cl	-3.458873	0.0	0.0
