16

C	0.0	0.0	0.0
C	-0.279377	-0.321868	-1.506503
F	1.377951	0.0	0.0
H	0.572452	0.16888	-1.988943
C	-0.347472	1.423181	0.275703
N	-0.54555	2.559769	0.497878
N	-0.562214	-0.941208	0.888122
H	-0.47413	-0.6147	1.843873
H	-1.567772	-0.991671	0.682376
C	-1.534386	0.181709	-2.219417
H	-1.713129	1.225433	-1.963429
H	-1.340869	0.096537	-3.294254
H	-2.424841	-0.369676	-1.94368
C	-0.082983	-1.758209	-1.722826
N	0.074327	-2.896268	-1.963252
Cl	-3.775104	0.0	0.0
