16

C	0.0	0.0	0.0
C	-0.311016	-0.387119	-1.484301
F	1.378398	0.0	0.0
H	0.573185	-0.00866	-2.00777
C	-0.343139	1.433869	0.225497
N	-0.541353	2.572872	0.434691
N	-0.55599	-0.898687	0.938546
H	-1.558407	-0.982806	0.741054
H	-0.465602	-0.526027	1.877341
C	-1.538995	0.202296	-2.17682
H	-1.517773	-0.101411	-3.227085
H	-2.470358	-0.110696	-1.710214
H	-1.497042	1.292499	-2.13045
C	-0.255314	-1.846059	-1.625742
N	-0.194842	-3.000928	-1.829445
Cl	-3.973652	0.0	0.0
