16

C	0.0	0.0	0.0
C	-0.500338	0.208663	-1.438434
F	1.377888	0.0	0.0
H	-1.58942	0.348057	-1.362289
C	-0.34072	1.189353	0.838323
N	-0.561173	2.119849	1.52097
N	-0.494617	-1.231495	0.513852
H	-0.262913	-1.296446	1.499098
H	-1.519596	-1.179163	0.44305
C	-0.187908	-1.000713	-2.32212
H	0.883451	-1.213031	-2.317815
H	-0.50534	-0.798166	-3.347618
H	-0.72303	-1.873093	-1.950779
C	0.104537	1.417043	-1.995813
N	0.605566	2.359928	-2.484854
Cl	-3.504437	0.0	0.0
