16

C	0.0	0.0	0.0
C	-0.449302	0.125949	-1.474352
F	1.39621	0.0	0.0
H	-1.531548	0.317165	-1.428007
C	-0.369757	1.231956	0.740452
N	-0.518818	2.237839	1.325917
N	-0.472864	-1.13464	0.715781
H	-0.268954	-1.971743	0.186188
H	-1.490682	-1.032693	0.779529
C	-0.189674	-1.159869	-2.262742
H	-0.385759	-0.991873	-3.32314
H	0.848106	-1.486068	-2.148647
H	-0.868027	-1.944811	-1.923258
C	0.220045	1.259909	-2.111928
N	0.748612	2.161041	-2.649376
Cl	-3.456749	0.0	0.0
