16

C	0.0	0.0	0.0
C	-0.388144	0.040591	-1.515825
F	1.383142	0.0	0.0
H	0.591017	-0.032073	-2.002584
C	-0.339239	1.278466	0.688443
N	-0.478329	2.272595	1.299221
N	-0.474129	-1.166162	0.652003
H	-1.496802	-1.1595	0.549073
H	-0.263994	-1.101921	1.642851
C	-1.051907	1.332481	-2.001643
H	-2.018613	1.453696	-1.515851
H	-0.406657	2.186261	-1.779779
H	-1.192638	1.277892	-3.084113
C	-1.104229	-1.153632	-1.968711
N	-1.547785	-2.120546	-2.466104
Cl	-3.410419	0.0	0.0
