16

C	0.0	0.0	0.0
C	-0.228276	-0.383494	-1.512968
F	1.389258	0.0	0.0
H	0.486207	0.246494	-2.054601
C	-0.412148	1.405557	0.204476
N	-0.68998	2.534141	0.363536
N	-0.555076	-0.821345	1.004546
H	-1.555544	-0.611258	1.0745
H	-0.451169	-1.79826	0.750698
C	-1.609776	-0.211079	-2.126529
H	-2.353969	-0.84677	-1.658005
H	-1.544718	-0.434538	-3.195275
H	-1.961869	0.811074	-1.992128
C	0.236987	-1.766317	-1.658745
N	0.57615	-2.886194	-1.760648
Cl	-3.964603	0.0	0.0
