14

C	0.0	0.0	0.0
C	-0.327941	-0.161965	-1.487547
F	1.336661	0.0	0.0
H	-0.153916	-1.222428	-1.688398
H	0.487307	0.3871	-1.97041
N	-0.3615	1.352666	0.584839
O	-0.066781	1.523935	1.761876
O	-0.743619	2.197707	-0.211442
N	-0.41297	-1.175744	0.880207
O	-0.0777	-2.254365	0.395951
O	-0.913845	-0.984907	1.971926
C	-1.535813	0.26667	-2.187805
N	-2.166716	0.592744	-3.12833
Br	-3.359131	0.0	0.0
