15
Coordinates from ORCA-job run
  C   -0.51298435041946     -0.10997103284999     -0.59360871983280
  C   0.91755773359500      0.33686782597519     -0.25891361164279
  Br  -0.48944787501849     -1.97952841786602     -1.22891863694140
  H   0.86804793494212      1.41758294868148     -0.07724403566997
  H   1.53413209390041      0.19418405716378     -1.15049688450079
  C   -1.01187142955825      0.69319303745049     -1.70873908829425
  N   -1.40892290089367      1.38489651486065     -2.57227554592062
  C   -1.47441221824964     -0.01585735537351      0.58636818318819
  H   -1.16923197083243     -0.69757197011452      1.37987654954143
  H   -1.47134689540920      1.00841235583500      0.97146070445643
  H   -2.48799849185352     -0.27305383978438      0.27775277013542
  C   1.54628769962638     -0.36155762536677      0.94044941302209
  H   2.58283397094326     -0.03532969855463      1.04883035888920
  H   1.54839896549521     -1.44526308897025      0.81399258408881
  H   1.02895773373228     -0.12000371108652      1.87046595948105
