11
Coordinates from ORCA-job run
  C   -0.95976759704417     -0.20407116452476      0.26577115608292
  C   0.52918443203531     -0.46274890048144      0.44646382747516
  F   -1.62433766438494     -1.32381162852468      0.72771726376465
  H   0.74395587332133     -0.63357090048038      1.50275914471799
  H   -1.27901844616888      0.65605948763132      0.85382845926632
  H   0.86013847137544     -1.31105345470817     -0.14897974904591
  C   -1.29172127980847      0.01634547178946     -1.14835164311012
  N   -1.53726374120460      0.18799734349083     -2.28281990440031
  N   1.32088337813529      0.72792394593198      0.02141255514521
  O   0.84471717285292      1.82797460129155      0.29708672115709
  O   2.39322940089077      0.51895519858429     -0.53288783105299
