11
Coordinates from ORCA-job run
  C   -0.59965454073007     -0.46278903228754     -0.45029117808369
  C   0.23139822750068      0.42018198159020      0.45564819958537
  F   -0.52730170656241      0.02889550496738     -1.73722832673720
  H   0.16233634261600      0.09533513451264      1.49557900024656
  H   -0.20456576857833     -1.48040853627405     -0.45557150553598
  H   -0.05352269390545      1.46605788672298      0.35868199475392
  C   -1.99731285937828     -0.46577635583217      0.00106819752822
  N   -3.10829640273174     -0.47866840621824      0.37849771844916
  N   1.67458730612821      0.31991216518745      0.06799951894138
  O   2.31386679565916      1.36485371902768      0.03909679868671
  O   2.10846529998225     -0.80659406139634     -0.15348041783446
