11
Coordinates from ORCA-job run
  C   -0.60534150835481     -0.42760913402613     -0.48175241128493
  C   0.23385787206579      0.40293898786091      0.46537681891256
  F   -0.44826079358173      0.06305352545399     -1.76115030936526
  H   0.09921232553821      0.07994811432365      1.49942678137076
  H   -0.26991521264242     -1.46634951839591     -0.47550258188354
  H   0.01442681359083      1.46390932891019      0.36211698275880
  C   -2.01902621837796     -0.35023630369446     -0.09006606446043
  N   -3.14023365319499     -0.28881126101970      0.25049081364059
  N   1.68530318826293      0.22156185202245      0.14316798429899
  O   2.38686683172511      1.22601440669888      0.16929332550932
  O   2.06211035496904     -0.92441999813387     -0.08240133949685
