11
Coordinates from ORCA-job run
  C   -0.67410943986991     -0.17223279668526     -0.54236870692812
  C   0.30555436300808      0.13782022884080      0.56924182978914
  F   -0.67865389971239      0.87858248620871     -1.43611434726939
  H   0.09837275932109      1.10603035469149      1.02087084296986
  H   -0.36669987776410     -1.07109021690415     -1.08022511851627
  H   0.30649684606037     -0.64963561989145      1.32523104281869
  C   -2.02040213079219     -0.35156412085749      0.01763956716751
  N   -3.08447483532768     -0.50488193207313      0.48787806216431
  N   1.69287320224391      0.20100820646980      0.00943423665365
  O   2.01492684563932     -0.69466230911225     -0.76545161656915
  O   2.40511616719350      1.12062571931294      0.39486420771976
