11
Coordinates from ORCA-job run
  C   -0.80117212717682     -0.61880830062445     -0.10691398979929
  C   0.69675848077460     -0.37894318699594     -0.22508308488755
  F   -1.10922428816577     -1.65577512066952     -0.96786730082889
  H   1.23719259766635     -1.29056355560178      0.03617013094076
  H   -1.07269765191576     -0.91730652289150      0.90521016366734
  H   0.97036878060911     -0.06224922793512     -1.22975168413726
  C   -1.56395139276201      0.57693598625771     -0.48860859357551
  N   -2.15725390960621      1.53746135396509     -0.80855497173443
  N   1.14722450283717      0.68402832957955      0.72049109270370
  O   0.49119912636144      0.82523042009310      1.75109991850254
  O   2.15955588137789      1.30098982482286      0.41380831914856
