11
Coordinates from ORCA-job run
  C   -0.72323616582543     -0.65123809152905     -0.27048672320557
  C   0.43020947322204     -0.29462125550148      0.64322320189536
  F   -0.22436152143631     -1.14254926179343     -1.45713021164564
  H   1.02648329098843     -1.17907395770424      0.86224293590918
  H   -1.29260316810379     -1.45549916126181      0.20811569786772
  H   0.07608862412514      0.15080888364417      1.57538880526538
  C   -1.64915765801401      0.46062595074279     -0.52713350153982
  N   -2.45920291597925      1.29556349838376     -0.67829558328009
  N   1.37130992371477      0.69254277699916      0.02193834683399
  O   2.52775768336318      0.64818508361815      0.42586176792072
  O   0.91571243394522      1.47625553440196     -0.80272473602122
