11
Coordinates from ORCA-job run
  C   -0.71187492447231     -0.66469214748393     -0.26844683677826
  C   0.42116912886885     -0.27499039305811      0.65728027503552
  F   -0.18635938775993     -1.17754769049278     -1.43431380626374
  H   1.02137523094634     -1.14831894622265      0.90787764931916
  H   -1.28162701732328     -1.46380506942201      0.21830893357056
  H   0.04562606260865      0.18899176411227      1.57181829463847
  C   -1.64440743341132      0.43109665775270     -0.56693277728626
  N   -2.46005587203624      1.25390879358743     -0.75058138980467
  N   1.36418326226863      0.70610985788473      0.02940374880252
  O   2.51450398368651      0.67963629128532      0.45211931060320
  O   0.91546696662412      1.46861088205704     -0.81853340183650
