15

C	-0.508037	-0.011299	-1.425812
C	0.0	0.0	0.0
Br	-2.555456	0.488994	-1.393963
H	1.090682	0.0	0.0
H	-0.599251	-1.034504	-1.775389
N	0.252355	0.778206	-2.259905
H	0.494706	1.682671	-1.886416
H	-0.051591	0.798741	-3.219943
N	-0.418313	-1.199414	0.783829
O	-0.002586	-1.242127	1.935995
O	-1.085748	-2.068463	0.224728
N	-0.431659	1.242789	0.713976
O	-1.164879	1.171753	1.688749
O	-0.00682	2.276164	0.202288
Br	3.327166	0.0	0.0
