15

C	-0.420137	-0.068845	-1.454054
C	0.0	0.0	0.0
Br	-0.238262	1.808711	-2.242529
H	1.087525	0.0	0.0
H	-1.479417	-0.266236	-1.581034
N	0.39903	-1.027563	-2.050999
H	1.388974	-0.858657	-1.878597
H	0.204075	-1.175806	-3.029828
N	-0.493807	-1.21513	0.738314
O	0.084159	-1.460065	1.792495
O	-1.445477	-1.838659	0.275716
N	-0.594165	1.148359	0.735014
O	0.162824	1.909335	1.326959
O	-1.823906	1.220769	0.696333
Br	3.400272	0.0	0.0
