17
Coordinates from ORCA-job run
  C   0.72482336416210      0.22165651061184     -0.25984210380009
  C   -0.80177905251997      0.25026111247819     -0.52548205716732
  F   1.31037379018433      0.06977917325253     -1.54087533246190
  H   -0.95598884714580      0.54801606511867     -1.56356458778570
  N   1.10597842393258      1.43954154323855      0.35268744918995
  H   2.11427293989715      1.51547996495934      0.38928752443248
  H   0.70750107810321      2.24486420269934     -0.11102292176549
  C   1.21669127940699     -0.95188732687841      0.56259668689800
  H   2.29048401841639     -0.83802403908568      0.72485153471920
  H   0.71729064608197     -0.98635164675237      1.53089163530069
  H   1.05273068785941     -1.88889749346291      0.03153668851285
  N   -1.50348214615810      1.10284670840970      0.35814098394398
  H   -1.29092848560222      0.90076748634920      1.32523719347350
  H   -2.50251672488218      1.04648731635199      0.21205001595354
  N   -1.28879132485294     -1.20289684232085     -0.50363992966357
  O   -1.09306511814939     -1.86366621216439     -1.51914444685353
  O   -1.80459452873354     -1.60797652280477      0.53529166707341
