17
Coordinates from ORCA-job run
  C   0.61083090838147      0.19952775608261     -0.35664284520833
  C   -0.91704356793862      0.12932419832678     -0.22626045105997
  F   0.88610858451373     -0.15024515442739     -1.69288163144181
  H   -1.35300916171268      0.77673964571887     -0.99770816841972
  N   0.98008838281305      1.55000331980825     -0.08998520484222
  H   0.62167563827338      2.16482293594207     -0.81208166255727
  H   1.98697865642427      1.64660897282542     -0.05233262575706
  C   1.37472060127663     -0.75492121838850      0.53088445449423
  H   1.10972832409063     -0.60724201917028      1.57622793054360
  H   2.44494769692251     -0.58098110297736      0.39262372467117
  H   1.15298138329631     -1.78350245652389      0.25731927107128
  N   -1.31160018944998      0.38098188196034      1.12149865650596
  H   -2.29331323828358      0.61638483554556      1.18183711459802
  H   -0.75814760063774      1.14866936041763      1.48101782817256
  N   -1.39365292044162     -1.24545327682269     -0.65753350236267
  O   -1.91132742953571     -1.30719237370596     -1.77133307080585
  O   -1.23196606799205     -2.18352530461146      0.11435018239806
