17
Coordinates from ORCA-job run
  C   0.60673290712353      0.31888984638856     -0.25381978444988
  C   -0.86401576145443     -0.06337641165941     -0.50151878338922
  F   0.99032685907753      0.99207797375438     -1.41611620256777
  H   -0.92095941646066     -0.61138775777244     -1.44238785951261
  N   0.67393186047593      1.28431058972850      0.80725269810899
  H   0.26952714789670      0.90234064525042      1.65427093108898
  H   1.63623266216654      1.54883563748347      0.97887418603159
  C   1.52231275482853     -0.88324270694563     -0.12644613973546
  H   1.33217680562949     -1.42228360231094      0.80284063551346
  H   2.55710411919570     -0.53367111549057     -0.12038250724633
  H   1.39294281070517     -1.56830000729989     -0.96704492891950
  N   -1.75974468308064      1.03287956197969     -0.44045776055203
  H   -1.29699243626289      1.85175790447729     -0.06828578121312
  H   -2.18557029418549      1.22581525004426     -1.33249923098762
  N   -1.23664444967203     -1.10128665054088      0.54822757331679
  O   -1.41580527403070     -2.25443481390115      0.16321293584520
  O   -1.30255561195228     -0.71792434318567      1.71428001866855
