17
Coordinates from ORCA-job run
  C   0.60785060378081      0.32048853325297      0.18030526002091
  C   -0.73052909503059     -0.37689529561922     -0.14167415285076
  F   0.39598312783616      1.64824996417235     -0.26716518639301
  H   -0.70357811793754     -1.40582871246170      0.22157701749902
  N   0.95768989937596      0.34223529711170      1.54659650971955
  H   0.19698528855130      0.19813239558585      2.19166659221366
  H   1.76574573709120     -0.21189022036502      1.77384246549142
  C   1.73082534035432     -0.24959994995852     -0.65969855591162
  H   2.65180405753415      0.27779494162322     -0.40192697520101
  H   1.52141756797225     -0.11247835958725     -1.71714770746259
  H   1.85638051290594     -1.31664582379376     -0.46282057069616
  N   -1.02188058086270     -0.31435043353832     -1.52371488876240
  H   -1.89285128371688     -0.77914791294453     -1.74225395841064
  H   -1.08429002896941      0.65301042950355     -1.81486756014077
  N   -1.82053124217404      0.28525400976038      0.72390880027288
  O   -1.86395181345672     -0.04858763893948      1.90956784994481
  O   -2.56706997325419      1.09125877619778      0.18280506066670
