17
Coordinates from ORCA-job run
  C   0.59143629899736      0.37769215631305      0.11078937910227
  C   -0.71027264142321     -0.43282829624279     -0.06074616593099
  F   0.30428866777266      1.59494777307080     -0.55592327372148
  H   -0.62424248615762     -1.38021877052419      0.47447477400707
  N   0.95230970861713      0.65491742945661      1.44586421995897
  H   0.20673589525034      0.58654115261994      2.12044488664771
  H   1.79113670680257      0.19106917087511      1.75073101786755
  C   1.73565884389109     -0.27120358647104     -0.63850521990756
  H   1.50957760967981     -0.33021070147245     -1.69975869625836
  H   1.92003645144751     -1.28006776154837     -0.26260438760328
  H   2.62935032771604      0.33941674952603     -0.49267264674262
  N   -1.01771724502632     -0.62662253670242     -1.42706950202119
  H   -1.86405620967709     -1.16710736907643     -1.54528030218401
  H   -1.13553176223748      0.27086075288881     -1.87995135626758
  N   -1.82619634141110      0.31245848919474      0.69751417993195
  O   -2.61954555995819      0.97349968003972      0.03922342046545
  O   -1.84096826428351      0.18685566805290      1.92346967265609
