17
Coordinates from ORCA-job run
  C   0.50434275094178      0.34007285689022      0.25505691296297
  C   -0.77590114806110     -0.39354514756599     -0.20325059199580
  F   0.20110955213325      1.71568003437347      0.07821659612614
  H   -0.61058093583764     -1.46962418602186     -0.13806054016197
  N   0.83941129114960      0.08291460010600      1.59345360679836
  H   1.79551243313324     -0.16574688407366      1.77349759504222
  H   0.16956672708262     -0.41601912136703      2.15441012691314
  C   1.65726527717869      0.05240646054564     -0.68562129550259
  H   2.53305295575185      0.60624873755781     -0.33954050429106
  H   1.42903282445996      0.39021759779111     -1.69566656807154
  H   1.89249866213543     -1.01400681372422     -0.69919058679964
  N   -1.28682261587545     -0.03840073685376     -1.48547546370187
  H   -1.20650206484297      0.95724072213141     -1.64118758259429
  H   -0.82791655947798     -0.55364382840404     -2.22163255166719
  N   -1.85182875356568     -0.10355350964282      0.82266262827849
  O   -1.88707430251660     -0.84835042723301      1.80626857098397
  O   -2.57716609378900      0.86010964549076      0.62605964768066
