17
Coordinates from ORCA-job run
  C   0.63411916604962      0.25009038723501      0.10377898029008
  C   -0.82071867523899     -0.22639102139102     -0.16947154333231
  F   0.71178792412927      1.54298714281639     -0.40995242848854
  H   -0.87959249600557     -1.30323323443493     -0.00613900264710
  N   1.02557225617518      0.34951005894583      1.47889429364776
  H   0.97401270795619     -0.54813657999524      1.94281445273274
  H   0.43635111101861      1.00795473887148      1.97492820761246
  C   1.60929323349309     -0.61950943963804     -0.65863487674575
  H   1.63406606099942     -1.63026479401274     -0.24399814918228
  H   1.33389415079822     -0.67513784363219     -1.71246924666441
  H   2.60091112574939     -0.17691022671722     -0.56899657838362
  N   -1.36413693808282      0.12729424349084     -1.43587485353832
  H   -0.96992028122332      0.98766354451628     -1.78642672728882
  H   -1.28937932534037     -0.61580177319082     -2.11187600349962
  N   -1.68600350806557      0.35941308187143      0.92083803764454
  O   -1.99890424908762      1.53923591423463      0.80553979652618
  O   -1.94935226332474     -0.36976419896971      1.87704564131701
