17
Coordinates from ORCA-job run
  C   0.57799408855630      0.23984944707579      0.14572342465054
  C   -0.82176893140009     -0.31464486501047     -0.17984835176861
  F   0.57414466270733      1.61326576692530     -0.21461509543769
  H   -0.76163017135632     -1.40105618501618     -0.24015542383379
  N   0.88770530943836      0.05954718493308      1.51333602247893
  H   0.30635173318937      0.64958593712929      2.09616378817022
  H   1.85980262550880      0.27316214201573      1.69489018929815
  C   1.61303742846157     -0.41987087268291     -0.74100168955519
  H   1.71757731209317     -1.47517266590457     -0.48673669676979
  H   2.57429667296666      0.07985051240706     -0.60360082883287
  H   1.33013315033416     -0.32036445806407     -1.78922565529091
  N   -1.44009834512219      0.23550330783087     -1.33938703528481
  H   -1.09787685717466      1.16356079345147     -1.53878256380638
  H   -1.37770676169812     -0.36739784912997     -2.14330515846834
  N   -1.74773313015559     -0.07092650334838      0.99289504434186
  O   -1.87161201292160      1.09625879936727      1.35899095886327
  O   -2.32361677342715     -1.04215049197939      1.47265907124543
