17
Coordinates from ORCA-job run
  C   0.53928086621205      0.27944853601177      0.20576512936539
  C   -0.77302246228208     -0.37706186287586     -0.26373070539884
  F   0.39474444219947      1.67826308445779      0.01427888576089
  H   -0.58784239533515     -1.43489764432326     -0.44835491282222
  N   0.80732709311762     -0.03814759793881      1.55749046424794
  H   0.13776338096166      0.40804446515651      2.17283752153132
  H   1.73926367041367      0.25607092924231      1.81959821084632
  C   1.68102266528840     -0.14833628449774     -0.69222827931336
  H   2.57122446114058      0.43218712636681     -0.44076902395876
  H   1.89509807869216     -1.20937566877750     -0.55991537055769
  H   1.43564332365887      0.05024912084515     -1.73583980671884
  N   -1.39936630359795      0.24235895025655     -1.38397856212813
  H   -1.16619664814370      1.22256321054330     -1.44279580637086
  H   -1.21459965727201     -0.23626544847442     -2.25053797751771
  N   -1.77000254900735     -0.37960075557140      0.87468940748105
  O   -2.24101451030324     -1.46008814635052      1.21526909258286
  O   -2.05032345574299      0.71558798592931      1.35822173297064
