17
Coordinates from ORCA-job run
  C   0.69882546314060      0.27166923836739     -0.18651340064110
  C   -0.78640086492154      0.00545494658627     -0.49440139408683
  F   1.09372041957194      1.01561309423720     -1.33728536400925
  H   -0.86863292157457     -0.59271293141337     -1.40733834188919
  N   0.86193497095246      1.06564954323896      0.96255777112850
  H   1.37967858895936      0.62638907059161      1.70498849873312
  H   0.00648972870567      1.49605324083139      1.28291578571439
  C   1.56430395293795     -0.96623494995292     -0.17441687980990
  H   1.45622569195463     -1.51607067649227     -1.10910018733657
  H   1.30797327398484     -1.62705290849857      0.65374939970850
  H   2.60437463322702     -0.64904014771219     -0.07610329504883
  N   -1.49077930132248      1.25188924364139     -0.47546139197763
  H   -1.01805471621889      1.89569793339053     -1.09775768454701
  H   -2.44917069994000      1.14095880616370     -0.78002342312565
  N   -1.33222962527750     -0.90460213877435      0.58213905805617
  O   -1.25498146328433     -2.11009114319152      0.34391494655209
  O   -1.77327713089515     -0.40457022101325      1.61113590257919
