17
Coordinates from ORCA-job run
  C   0.61549530220048      0.35040886028576     -0.18091126243479
  C   -0.81750209831140     -0.05239323784174     -0.57494111049500
  F   1.07107399800982      1.10986349894716     -1.26127657480730
  H   -0.78022415145880     -0.53788404620778     -1.55043376739855
  N   0.56491245423920      1.24329562496658      0.94277509821107
  H   0.09968901838472      0.79594035258687      1.72408835496528
  H   1.50122490446486      1.51601537256925      1.21558540191892
  C   1.55515623193429     -0.83304188561405     -0.05573874499199
  H   2.57435355164513     -0.45797171773906      0.06105854214988
  H   1.51751009085154     -1.46245343163363     -0.94737099143827
  H   1.30628582322192     -1.43886903974692      0.81685309711356
  N   -1.74978751720312      1.01395930183646     -0.52074455934115
  H   -1.34653227512381      1.81704372278962     -0.05619749471333
  H   -2.09865049112221      1.25828280895785     -1.43351437590155
  N   -1.24317143050849     -1.16563737796232      0.37148793526471
  O   -1.42126336421356     -0.86052220207714      1.54883293924213
  O   -1.34957004701058     -2.29603660411693     -0.09855248734362
