17
Coordinates from ORCA-job run
  C   0.65461449166362      0.16766343939136     -0.26433991701680
  C   -0.86861527623281      0.12464467564368     -0.49759638047359
  F   1.23030725658390     -0.44969516287147     -1.39546322471707
  H   -1.08406201809334      0.70164996733764     -1.39962294098859
  N   1.00371559364427      1.54588491270500     -0.19195304284188
  H   0.87132928742509      1.99117745907973     -1.09308913808256
  H   1.97081596918948      1.66069900587266      0.08498233626788
  C   1.15020229083600     -0.57947160689204      0.95161164894875
  H   0.75000958464753     -0.14452053607390      1.86687555475715
  H   2.24033688488921     -0.51263967444317      0.98009381791511
  H   0.87163776681058     -1.62987318113831      0.89777296377808
  N   -1.69673719918366      0.56999757744076      0.58813338012905
  H   -1.59475459832802     -0.06121135556659      1.37365957335097
  H   -1.38750052957208      1.49399820950625      0.86470886221887
  N   -1.27453308030330     -1.27617523097579     -0.84203519660998
  O   -1.43695581673605     -1.54678275051736     -2.02623181236841
  O   -1.39981060724042     -2.05634574849843      0.10149351573306
