17
Coordinates from ORCA-job run
  C   0.70467971346452      0.16999471005887     -0.39417362532573
  C   -0.83380921637813      0.10042321097498     -0.36474095657756
  F   1.04344037210126     -0.25821656887269     -1.67932919121139
  H   -1.20676093752574      0.66385276644527     -1.22984858151516
  N   1.16517651016918      1.51181095064236     -0.24821711216505
  H   1.41199001523574      1.76384525221583      0.69538007555096
  H   0.58792183001548      2.20941057378440     -0.69553397141143
  C   1.38879625330307     -0.73247691556270      0.60532382737920
  H   1.21179064467163     -1.77540892438440      0.35114051039155
  H   1.00902541281669     -0.55623908318919      1.61135571465265
  H   2.46137211489464     -0.53617400764270      0.56125642344900
  N   -1.33073092130711      0.49413351926694      0.92501628374419
  H   -2.34222802004598      0.45412445342326      0.94990338017444
  H   -1.04559787321447      1.44621430207569      1.11240834008779
  N   -1.29493454385603     -1.30652581807958     -0.65509156258975
  O   -1.28035797333216     -2.11967658207899      0.26407794624212
  O   -1.64877338101256     -1.52909183907735     -1.81092750087580
