17
Coordinates from ORCA-job run
  C   0.66307039016028      0.17055492940710      0.19014281710155
  C   -0.79405894142292     -0.20441433701688     -0.15233223255263
  F   0.72343660248227      1.55094262865412     -0.12351540578244
  H   -0.97603402530169     -1.24732891606429      0.11343827290351
  N   1.02799160076844     -0.01325154660569      1.54066034940216
  H   1.70099575166591     -0.74626724695782      1.68770807672152
  H   0.26152853255226     -0.05766786671679      2.19358096488711
  C   1.63412303725991     -0.53109824168282     -0.73524859755772
  H   1.44531076402913     -0.25018147073057     -1.76785609875591
  H   2.64705096677336     -0.23124829633539     -0.45808417765968
  H   1.53872414636988     -1.61542919340194     -0.64431253678940
  N   -1.08291295678826      0.04976898503296     -1.51274489286460
  H   -0.94788794371836      1.03301143106636     -1.71140530099545
  H   -2.03376500209137     -0.20360795049526     -1.74530633409298
  N   -1.71394188011862      0.57944411048609      0.80477505432127
  O   -2.28652092786627      1.56795566142367      0.36348835411382
  O   -1.80911011475394      0.14981731993718      1.95601168759981
