17
Coordinates from ORCA-job run
  C   0.63907342222920      0.20123628807166     -0.27821577951057
  C   -0.88623076719593      0.09197281796135     -0.47190651845334
  F   1.21176391474969     -0.37490684531310     -1.43303676658040
  H   -1.15211283192908      0.67357607711170     -1.35739045726933
  N   0.92811418298944      1.59204326409416     -0.19567957715582
  H   1.89511518003070      1.74861587114505      0.05970472007459
  H   0.75042624353306      2.04471386699815     -1.08507032178320
  C   1.20062797186993     -0.53899841827431      0.91314312415285
  H   0.81022618152066     -0.13183599831105      1.84529688615789
  H   0.96441086172711     -1.59941579316537      0.85349844150298
  H   2.28742103960843     -0.42718018449775      0.91044035350104
  N   -1.70401479227110      0.48034638711492      0.64278615927690
  H   -1.43460684021622      1.41500034874382      0.92486832342789
  H   -1.54906416952700     -0.15550823235653      1.41578452638057
  N   -1.23756704079286     -1.32008692104764     -0.83095577809362
  O   -1.30028068063089     -2.12150837162377      0.10082459563950
  O   -1.42130187569510     -1.57706415665130     -2.01509193126791
