17
Coordinates from ORCA-job run
  C   0.67470674784576      0.16414460191680     -0.39622016787985
  C   -0.86946348090407      0.09856346206556     -0.43585713806294
  F   1.07496914265331     -0.37592994766319     -1.62183123362451
  H   -1.19456824101891      0.67263111510255     -1.30655964735285
  N   1.12900430327943      1.51632610941031     -0.35109801318967
  H   0.55956082592429      2.15871646518790     -0.88451188099983
  H   1.29560748009802      1.85777815076357      0.58228479933270
  C   1.33493014784796     -0.64171005182943      0.69959319248370
  H   0.99911417906219     -0.32870690981049      1.69004393573150
  H   2.41209042300434     -0.48596794868147      0.62579058865129
  H   1.11901134818288     -1.70080559051039      0.57795476178043
  N   -1.58062283467419      0.53278591705392      0.73307758566179
  H   -1.42499046336011      1.51684371646947      0.90058029613449
  H   -1.30616454812228     -0.00672335876886      1.54341305661820
  N   -1.30612329220581     -1.30796517919084     -0.72145043163670
  O   -1.29469154551738     -2.08172579888212      0.23556953027273
  O   -1.62337019209543     -1.58725475263328     -1.87177923392047
