17
Coordinates from ORCA-job run
  C   0.62197121990188      0.11429416593293      0.24517628965378
  C   -0.75875900378485     -0.35945638332585     -0.23695588597533
  F   0.43272841896353      1.50586368291339      0.51729125354173
  H   -0.77886538547669     -1.44966814644969     -0.27173667003490
  N   1.05115337341180     -0.59743268375063      1.38416644786094
  H   0.37353378927948     -0.58535260510158      2.13401634656848
  H   1.94339747231153     -0.24931970889661      1.70808584940140
  C   1.66016351955274      0.02879070299537     -0.85166679493457
  H   1.38667675011293      0.65988991479013     -1.69292157866070
  H   2.62155391398720      0.36063582712453     -0.45165966384027
  H   1.75704957129536     -1.00165550740048     -1.19432392818245
  N   -1.09437798053448      0.21460180169611     -1.48478289241613
  H   -1.13886346540159      1.22253424422515     -1.39700449696933
  H   -1.99248745826840     -0.11645158135447     -1.81048999210960
  N   -1.78128595162688      0.00064411883295      0.86586403020728
  O   -1.73632010142518     -0.65794815488415      1.90402952575490
  O   -2.56826868229838      0.91003031265292      0.63391216013480
