17
Coordinates from ORCA-job run
  C   0.63958197297007      0.22540546657286     -0.12236385177351
  C   -0.80964614514022     -0.07331764284015     -0.56171505427146
  F   1.08509158623483      1.09368159550013     -1.16993461390334
  H   -0.76391662444759     -0.61137960493152     -1.50961477552930
  N   0.65738584210841      0.87352228592358      1.12881208581844
  H   1.60209611058637      1.05631181866093      1.43996994604015
  H   0.13730352515963      1.74030576878225      1.11123936559858
  C   1.56440563572668     -0.96806124595697     -0.14279426954952
  H   1.50049365300941     -1.48075360817779     -1.10259261697392
  H   2.59066603688384     -0.61671824950375     -0.01078226592180
  H   1.31772837810690     -1.66895713672926      0.65225061227566
  N   -1.68449178352870      1.05793001467348     -0.68513559397166
  H   -1.93153126772441      1.42608711873157      0.22409099679658
  H   -1.23949185928111      1.76756697931144     -1.25177907516319
  N   -1.41484303565103     -1.03286606176133      0.41985497303948
  O   -1.14741755011874     -2.22157331693490      0.25818808650807
  O   -2.10141447489434     -0.56618418132058      1.32230605098075
