17
Coordinates from ORCA-job run
  C   0.73947569826124      0.16865352822993     -0.34911375867429
  C   -0.78645184578844      0.18933276981731     -0.52485025995911
  F   1.25623282564497     -0.45144205640297     -1.48383334780379
  H   -0.99764445239835      0.73959714218034     -1.44158258153681
  N   1.14947791615415      1.54183117835803     -0.37219841047864
  H   0.54426268720953      2.08011616905948      0.23562405215403
  H   2.10711905448861      1.63322591578555     -0.05562181854189
  C   1.23350534810273     -0.63638848453921      0.83923781841946
  H   2.32559254555049     -0.60156280260156      0.83814001964851
  H   0.92355985384060     -1.67959046318135      0.78310732847533
  H   0.87881119959503     -0.20232703867580      1.77569571328623
  N   -1.42748199806570      0.78410480055107      0.60091477568127
  H   -2.38621801642953      1.02520766032038      0.38519699068646
  H   -1.42961075052786      0.13616193528149      1.38004764182566
  N   -1.26219315413650     -1.22782101537546     -0.80581656697032
  O   -1.37596654007026     -1.56379675432834     -1.97891262290482
  O   -1.49447037143074     -1.93430248447890      0.17596502669275
