17
Coordinates from ORCA-job run
  C   0.69406942940623      0.12556130662957     -0.37493222596796
  C   -0.84827025464430      0.10624269790355     -0.47432323305233
  F   1.12292500531433     -0.48141601701586     -1.55967548469364
  H   -1.11918807221366      0.65229213478311     -1.38083955722518
  N   1.18915526882647      1.46344505418029     -0.36943031155755
  H   1.34514817908130      1.83637652083603      0.55352520659532
  H   0.65779354563610      2.10272925973459     -0.94394852494500
  C   1.28589506929178     -0.65150358233749      0.77917355801938
  H   2.36966553274670     -0.53325911355447      0.73982196411114
  H   0.92425515287013     -0.28382584129259      1.74140218923981
  H   1.03959538362925     -1.70759972165037      0.69586083603605
  N   -1.59072131105738      0.61202302357202      0.64552504332868
  H   -1.36255570672468      0.10286131459665      1.48918170166410
  H   -1.41290331233367      1.59804616818368      0.77523165324499
  N   -1.32030224098684     -1.29678311194040     -0.71848948231174
  O   -1.60872169133125     -1.61302669252940     -1.86679853095146
  O   -1.36583997751052     -2.03016340009893      0.26871519846537
