18
Coordinates from ORCA-job run
  C   -0.49554781858471     -0.30774084690317     -0.44177483082332
  C   0.92643946461733     -0.29999138940979      0.16017958915877
  H   -0.36499940588734     -0.55357421332182     -1.50441183306713
  H   1.33129940159587     -1.31509889236873      0.05878238813660
  C   -1.17886093526063      1.05294417081803     -0.33644384398179
  H   -2.18472902123021      1.00142902573740     -0.76108089277462
  H   -0.63572360255917      1.83254573061914     -0.87426883875239
  H   -1.27397201674046      1.35903695430159      0.70960244361223
  C   -1.34814715904970     -1.39648462074005      0.20519530362604
  H   -1.52066430922948     -1.17804964675640      1.26287561444551
  H   -2.32211931976927     -1.46496484322365     -0.28608644320968
  H   -0.86672344619137     -2.37622001059058      0.13500881756798
  C   0.86476278687875     -0.01004674184501      1.59660964981177
  N   0.79744582508114      0.24658883812405      2.74078845798848
  C   1.88623295253958      0.67318678319621     -0.53345988287343
  H   1.88679615620652      0.48531408347448     -1.61012772300410
  H   2.90384933598126      0.54231717688284     -0.16028744603842
  H   1.59566111160188      1.70980844200547     -0.36010052982249
