18
Coordinates from ORCA-job run
  C   -0.57203135770419      0.25687057419532     -0.19431626932483
  C   0.79881691751781     -0.02422884650223      0.45731897684454
  H   -0.46922201819470      1.18301860751227     -0.77561001297962
  H   0.69297514397773     -0.91603503030340      1.09067972792055
  C   -1.64663882937561      0.46713805765860      0.87018482847887
  H   -2.60943585691931      0.69007922819579      0.40359472691544
  H   -1.39920031560007      1.29286122557124      1.54061894957785
  H   -1.77003961099357     -0.43787677429308      1.47415085473974
  C   -0.96923758787642     -0.87376896001530     -1.14111830904730
  H   -0.97367412734152     -1.83440262218595     -0.61502344032435
  H   -1.97685944823175     -0.70370197392082     -1.52841458562261
  H   -0.29880920026525     -0.95603518630589     -1.99816049696228
  C   1.16419613038847      1.08639529489212      1.34316045475478
  N   1.45741451821684      1.99447360324012      2.02781026906037
  C   1.92986699010084     -0.26216811219940     -0.55036997418140
  H   2.89152839035558     -0.34390366758481     -0.04051332606174
  H   1.76255644330610     -1.18532854297628     -1.10586167640943
  H   1.98879381863901      0.56761312502169     -1.25913069737859
