18
Coordinates from ORCA-job run
  C   -0.49799012362168     -0.29868838726691     -0.44475863341443
  C   0.91733228169674     -0.31927015442138      0.17229303691355
  H   -0.36183554477060     -0.55241169963766     -1.50480426526313
  H   1.29932783650969     -1.34447603780811      0.08432364551440
  C   -1.15247778696892      1.07703412548147     -0.35275328205385
  H   -0.58609932361802      1.84248816371493     -0.88682404589370
  H   -1.25316751380115      1.38936329038749      0.69083060148262
  H   -2.15409225186333      1.04588965934923     -0.78908656378954
  C   -1.38090081124708     -1.36553637036780      0.19800600027052
  H   -0.92194954792156     -2.35631088157511      0.13364499239256
  H   -1.55651640203932     -1.14061351260268      1.25374160239392
  H   -2.35235503232678     -1.41258453832919     -0.30058354652914
  C   0.84777182768192     -0.01448401700479      1.60550373023347
  N   0.77395168874681      0.25444552061623      2.74645642245587
  C   1.90725909425116      0.62484329954451     -0.51947239240402
  H   1.91712521713244      0.42557683410480     -1.59414844797271
  H   2.91687928763001      0.47518511032305     -0.13187606669304
  H   1.63773710452968      1.66954959549190     -0.36049278764335
