18
Coordinates from ORCA-job run
  C   -0.59121174484467      0.21778173673090     -0.18514126251178
  C   0.82559293289195      0.04923246287322      0.40423305863055
  H   -0.55462215011390      1.07205579515071     -0.87440634238655
  H   0.78785996887213     -0.76469229325769      1.14162923658959
  C   -1.60421334877053      0.52369611919347      0.91593070068456
  H   -1.66189946689556     -0.30830308660978      1.62549097451866
  H   -1.34208343819834      1.42691999593996      1.47086861979449
  H   -2.60039511558728      0.66809923212937      0.49024876822973
  C   -1.00975959032256     -1.02485164977797     -0.96816489222504
  H   -0.39193062274339     -1.18956559553793     -1.85237968539593
  H   -2.04453406482337     -0.92593014974455     -1.30522518653956
  H   -0.95034990527728     -1.91779769809252     -0.33676961271266
  C   1.20890156749500      1.26504384567948      1.13021922714336
  N   1.51772216027070      2.25300801162757      1.68508188599969
  C   1.90012947840483     -0.27622410290581     -0.64015506900896
  H   2.89228348290764     -0.28053157826075     -0.18517083174431
  H   1.89376696873123      0.47074182556634     -1.43781533842844
  H   1.72574288800338     -1.25868287070401     -1.07947425063742
