18
Coordinates from ORCA-job run
  C   -0.53139416285420     -0.26640837941891     -0.42673920645336
  C   0.93225810308420     -0.31793013633978      0.06256354143404
  H   -0.48522496945513     -0.42067760922477     -1.51335972438642
  H   1.31627198388121     -1.32308884710242     -0.15374372505783
  C   -1.18789266678736      1.08412435447482     -0.15347682301801
  H   -1.19682852299510      1.30094455488353      0.91889032309917
  H   -2.22457570651413      1.07432850255333     -0.49976182642739
  H   -0.67916994124462      1.90364058726166     -0.66513974787250
  C   -1.34529526486741     -1.40206693918313      0.18865424692461
  H   -2.35508485963894     -1.42170405719116     -0.22919414425958
  H   -0.88332234453258     -2.37487687402407     -0.00332262235748
  H   -1.43276766865677     -1.27551721328482      1.27149017447964
  C   0.98370134404176     -0.14981470230655      1.51872406045592
  N   1.00640207616088      0.01051586292915      2.68211934970984
  C   1.84787799887830      0.70527043726675     -0.61881756254230
  H   1.58509175917075      1.72493034108828     -0.33522154034099
  H   2.88970218665036      0.53641319088793     -0.33933476068008
  H   1.76225065567877      0.61091692673016     -1.70433001270728
