15

C	-0.324766	-0.011216	-1.476449
C	0.0	0.0	0.0
F	0.125574	-1.192231	-2.058678
H	1.088558	0.0	0.0
H	-0.324413	0.934425	0.462885
C	-1.76733	0.102987	-1.779333
N	-2.906361	0.291159	-1.998033
C	0.480222	1.122852	-2.100117
H	0.081822	2.096246	-1.802649
H	0.448665	1.035461	-3.188069
H	1.49837	0.998441	-1.713523
N	-0.596289	-1.089543	0.778505
O	-1.20549	-1.985916	0.191259
O	-0.435545	-1.045844	1.997648
F	2.571002	0.0	0.0
