15

C	-0.306602	0.185076	-1.488549
C	0.0	0.0	0.0
F	-0.247402	-1.114804	-2.020193
H	1.08908	0.0	0.0
H	-0.443212	-0.918288	0.377113
C	-1.676095	0.666754	-1.765473
N	-2.760734	1.052889	-1.998199
C	0.759138	1.011399	-2.181866
H	0.638475	2.062506	-1.921285
H	0.679576	0.880782	-3.26393
H	1.71866	0.660521	-1.782529
N	-0.466926	1.108528	0.830016
O	-0.759665	0.86031	2.000802
O	-0.483568	2.242573	0.337951
F	2.583702	0.0	0.0
