15

C	-0.329909	-0.082329	-1.463871
C	0.0	0.0	0.0
F	-1.706502	-0.299671	-1.687659
H	1.091606	0.0	0.0
H	-0.350378	-0.900322	0.50568
C	0.029819	1.125909	-2.235063
N	0.288597	1.993778	-2.98247
C	0.475273	-1.25295	-2.01642
H	1.515116	-1.08625	-1.712291
H	0.107356	-2.179742	-1.563569
H	0.376547	-1.3185	-3.100348
N	-0.579128	1.133402	0.724111
O	-0.777641	0.97791	1.930734
O	-0.806146	2.181207	0.118317
F	2.558154	0.0	0.0
