15

C	-0.518669	0.046057	-1.425066
C	0.0	0.0	0.0
F	0.183553	0.963243	-2.195315
H	1.089482	0.0	0.0
H	-0.33647	-0.910712	0.49718
C	-0.264797	-1.293137	-2.005855
N	-0.097707	-2.362864	-2.459247
C	-1.999855	0.366977	-1.583104
H	-2.184293	1.370161	-1.202104
H	-2.606015	-0.354999	-1.031349
H	-2.272858	0.329891	-2.639793
N	-0.474605	1.114807	0.817272
O	-0.701548	0.893738	2.01082
O	-0.564921	2.232577	0.297767
F	2.503232	0.0	0.0
