15

C	-0.339088	-0.09286	-1.461015
C	0.0	0.0	0.0
F	-1.711554	-0.338556	-1.670077
H	1.091521	0.0	0.0
H	-0.346342	-0.899036	0.510696
C	-0.013405	1.117155	-2.241615
N	0.240751	1.980341	-2.995303
C	0.481085	-1.249441	-2.016303
H	0.376521	-1.319756	-3.100291
H	0.13062	-2.178441	-1.557637
H	1.518407	-1.067603	-1.716669
N	-0.581311	1.133953	0.720558
O	-0.780885	0.980365	1.927536
O	-0.808268	2.181131	0.112558
F	2.558494	0.0	0.0
