14
Coordinates from ORCA-job run
  C   1.02239840138049     -0.02311037164720     -0.07337827857347
  C   -0.45171047058899      0.09091382851807     -0.52378658376553
  F   1.63298124420255      1.18748754653366     -0.32986341346930
  H   -0.41307291359312      0.32029356508567     -1.59537376913401
  C   1.72416162216402     -1.07083212399019     -0.83235689938132
  N   2.27017021995126     -1.89677353750150     -1.46473697121754
  C   1.10872284467779     -0.29974369680769      1.37006032750616
  N   1.15168119375804     -0.50055410460018      2.52669336385235
  C   -1.18494877563955      1.20349565357812      0.22841845016646
  H   -2.19319972174042      1.31006456842696     -0.17365299960625
  H   -1.26101371240154      0.97005521753256      1.29172246492661
  H   -0.65669700742797      2.14879306805821      0.10347684286172
  C   -1.10589300935854     -1.20529682363022     -0.34606673517500
  N   -1.64457991538401     -2.23579278955626     -0.18115579899090
