14
Coordinates from ORCA-job run
  C   0.88332873717938     -0.62845264634455     -0.01932573653996
  C   -0.51639356915996     -0.21140531429828     -0.51684392889747
  F   1.13331435182605     -1.91852881325008     -0.43015025952725
  H   -0.48436280017614     -0.31563234682980     -1.60780376002811
  C   0.95728847560746     -0.56851873307069      1.44977396984340
  N   0.99162792674562     -0.49752423594201      2.62191452045320
  C   1.90459167761355      0.25756573579402     -0.60433771095770
  N   2.69494697613565      0.97496110658652     -1.09498286787518
  C   -0.86824976378116      1.22667225393288     -0.12796813538694
  H   -0.14588392442175      1.92671426540356     -0.55196071659508
  H   -0.88697882159594      1.34185684114792      0.95735423907448
  H   -1.85682244276302      1.47568058263216     -0.51534189852453
  C   -1.49927854862108     -1.16227367172574      0.00542969995383
  N   -2.30612827458864     -1.89911502403590      0.43524258500730
