13
Coordinates from ORCA-job run
  C   0.89537977267950      0.13122158631800      0.36992340805275
  C   -0.53468794908217     -0.35819474416697      0.20076409853421
  F   1.56779301784101     -0.67143344506146      1.23278739433239
  H   -0.45596240226863     -1.38893907147189     -0.15681273900694
  H   0.97350951794327      1.17182330050133      0.68658408248848
  N   1.56426891389788      0.03952797553426     -0.97513950309890
  O   1.62875973684340     -1.08212836340808     -1.46536977510866
  O   1.98638830187940      1.08526554004638     -1.45527630019447
  N   -1.17375437522163      0.44724552696065     -0.82190271239081
  H   -1.49354921146339      1.33166067399537     -0.44641545305804
  H   -1.96888948193752     -0.03625865176371     -1.21648439406396
  C   -1.20685907138277     -0.36161871518310      1.51187618536437
  N   -1.78239676972835     -0.30917161230078      2.53446570814958
