13
Coordinates from ORCA-job run
  C   0.80778584617491      0.45464120988956      0.16378568754380
  C   -0.52023097536067     -0.22512017050153      0.52175509247754
  F   1.65700734251303      0.40236419755633      1.21699278665243
  H   -0.25033739163967     -1.20041046345841      0.94125606389610
  H   0.70069379240247      1.48155199634145     -0.18745275287899
  N   1.40131538552535     -0.32962246178334     -0.97296517286398
  O   1.82274394389368     -1.44835379876668     -0.70017733509643
  O   1.35102442031870      0.19271977469531     -2.08360615815360
  N   -1.43633884908933     -0.42982862965230     -0.57694066563621
  H   -1.62117290086847      0.42414341753080     -1.08677484245122
  H   -1.10139558508179     -1.14012348199236     -1.21338033533315
  C   -1.15686408242969      0.57215151993441      1.57813033901725
  N   -1.65423094635849      1.24688689020677      2.39937729282647
