13
Coordinates from ORCA-job run
  C   0.89251402064925      0.05025147877099      0.38875323127609
  C   -0.54231141698041     -0.39969305897697      0.17597827243279
  F   1.63525548883051     -0.92744403913348      0.97372006086253
  H   -0.51024197800218     -1.35403666345839     -0.36114458590756
  H   0.96255156351893      0.97726546340252      0.95587200787874
  N   1.51615220817096      0.32490019509942     -0.95642250823558
  O   2.35742271002386      1.21578593373164     -0.99446685316108
  O   1.17196005517022     -0.39868892411969     -1.88909688394570
  N   -1.21709336610634      0.66389858452369     -0.56371438939539
  H   -1.28930370919786      0.40861346423197     -1.53934027759164
  H   -2.14337115016173      0.84152603729344     -0.20175953632984
  C   -1.16045095739002     -0.62414649436162      1.48399217777220
  N   -1.67308346852518     -0.77723197700354      2.52862928434445
