13
Coordinates from ORCA-job run
  C   0.87767342989095      0.25328304912197      0.34447981803970
  C   -0.47960399279801     -0.42494639263719      0.27304385210460
  F   1.74914088134497     -0.46509356785703      1.10256611194587
  H   -0.31200522050352     -1.45892278544735     -0.04793454441436
  H   0.81582832113407      1.28067130967677      0.70013549568723
  N   1.45660728665053      0.31588089406545     -1.04579749429714
  O   2.14749170529764      1.29467836647245     -1.30539700386657
  O   1.23032010209846     -0.63924458601622     -1.78606559309915
  N   -1.29384981326990      0.35041361477519     -0.65988432711035
  H   -1.33322903965129     -0.12091960346216     -1.55335302556408
  H   -2.23417956918368      0.48386360726394     -0.31573584022400
  C   -1.06586809287718     -0.44278187401826      1.61430422673428
  N   -1.55832599813301     -0.42788203193756      2.67963832406397
