13
Coordinates from ORCA-job run
  C   0.77778857041072      0.58710332077294      0.02269303109542
  C   -0.43144781261200     -0.18965777450167      0.51338996362475
  F   1.66626970926685      0.80595373836839      1.02877239158581
  H   -0.06160505970430     -1.08702507350922      1.02169231578676
  H   0.50664190820215      1.52408415575986     -0.46152089477953
  N   1.49206634349206     -0.23912776304172     -1.01713716251973
  O   2.05233520283022      0.38072019891785     -1.91430432437045
  O   1.50203481650498     -1.45742016192731     -0.85096231620237
  N   -1.25533777749774     -0.47925517130600     -0.65725449787116
  H   -1.10676268243489     -1.43473734985459     -0.95244749196738
  H   -2.23798147732288     -0.34269024093159     -0.46695039338419
  C   -1.15091990699357      0.63285495840169      1.48785614591098
  N   -1.75308183414160      1.29719716285138      2.24517323309108
