13
Coordinates from ORCA-job run
  C   0.69950239551158     -0.23458553615602     -0.60361048693064
  C   -0.43834428484446     -0.31233498062712      0.40274422434204
  F   0.25722295628287      0.28283521365730     -1.77149718647607
  H   -0.02271459463132     -0.72921932831492      1.32327138955091
  H   1.13706871896132     -1.21933494669507     -0.76967710587257
  N   1.79221754260958      0.64698070705065     -0.04908479790248
  O   2.30621187266144      0.21065622739784      0.97667532122247
  O   2.06064734464278      1.68386269664465     -0.63518619376381
  N   -1.42973944410788     -1.23026388559439     -0.12834672034592
  H   -2.12308669981608     -1.44539819462436      0.57680209691792
  H   -1.90388951303891     -0.80938899850882     -0.91842679572872
  C   -0.94309145649063      1.04600980511971      0.69237499155144
  N   -1.39200483774030      2.11118122065053      0.90096126343544
