13
Coordinates from ORCA-job run
  C   0.91482249823252     -0.51574105990263      0.04515509299415
  C   -0.55057059349038     -0.37192285310983      0.44634056216221
  F   1.02961082929592     -1.60965471954386     -0.75104295236404
  H   -0.82308983806640     -1.34929964451779      0.87686493472793
  H   1.59226144870007     -0.59913769197827      0.89532505295807
  N   1.34078725692919      0.70116520515307     -0.73724141619958
  O   1.48741362359894      0.58740127781335     -1.94317620908381
  O   1.49217105952005      1.70483585955684     -0.05115878954795
  N   -1.31250129500521      0.00722824611241     -0.73279508612037
  H   -1.25375340438485     -0.72772079262042     -1.42792310351090
  H   -2.28573351825096      0.15067371436143     -0.49577701651888
  C   -0.72334616599606      0.62863990215051      1.50359438834003
  N   -0.90907190108279      1.39353255652520      2.37383454216312
