13
Coordinates from ORCA-job run
  C   0.93185777345515     -0.48425682254350      0.05956601819296
  C   -0.54127609729131     -0.38417199727834      0.44544542152399
  F   1.08950177682306     -1.58285857161261     -0.72285019533065
  H   -0.78533697303949     -1.36483774333809      0.88555938391882
  H   1.60429549695664     -0.53597637917241      0.91621831963086
  N   1.32492634136227      0.73722860717395     -0.73296838543642
  O   1.42620137044085      1.75474814617892     -0.05823766634903
  O   1.49204169850405      0.61424749941763     -1.93524670733250
  N   -1.30281081254020     -0.04542424030109     -0.74592238282765
  H   -2.28232921083719      0.07194856891937     -0.52092706787124
  H   -1.21457166771736     -0.78756668015058     -1.43013693808013
  C   -0.75859439372706      0.62189066389073      1.48904850929130
  N   -0.98390530238942      1.38502894881605      2.35145169066971
