13
Coordinates from ORCA-job run
  C   0.91361326174106     -0.51343282588033      0.10333896076205
  C   -0.57355012618180     -0.36915837036576      0.41409268690541
  F   1.07734836197706     -1.61144167406397     -0.67848498807750
  H   -0.87040721239170     -1.34375195727607      0.83480247231572
  H   1.53917426688975     -0.59146828145394      0.99287870228310
  N   1.38425845424272      0.70023222092251     -0.65830867310498
  O   1.60856901040647      0.58012660819383     -1.85152316470682
  O   1.47918096768854      1.71046314248688      0.02829146471417
  N   -1.26205968731639     -0.00066423152715     -0.81237014825152
  H   -1.16350544183208     -0.74260369614946     -1.49539218699860
  H   -2.24735240514574      0.14807118593287     -0.63648618436459
  C   -0.81327325127273      0.63783895282634      1.45191440440770
  N   -1.06999619880519      1.39678892635424      2.30924665411586
