13
Coordinates from ORCA-job run
  C   0.63420739093659     -0.21251382941768     -0.55298012845245
  C   -0.52282956601167     -0.24197647922986      0.45158967831359
  F   0.21349418110220      0.28460191188157     -1.73777880584079
  H   -0.12464578634838     -0.63116834034236      1.39293574470328
  H   1.06220517501004     -1.20643303709940     -0.69884629214775
  N   1.74662637358437      0.64908324836525     -0.01099859008489
  O   2.01427473556153      1.69227681110104     -0.58597242536517
  O   2.26622758288429      0.19563775358959      1.00518707813885
  N   -1.63942940889266     -1.06475876791566      0.03363416123911
  H   -1.95729689590221     -0.79507039389811     -0.88893871835917
  H   -1.38409150363191     -2.04400176015532      0.02695802571984
  C   -0.98202067723288      1.13479146189349      0.68853899627220
  N   -1.32672160105928      2.24053142122747      0.87667127586336
