13
Coordinates from ORCA-job run
  C   0.76663836742508     -0.18813679266685     -0.53609932486940
  C   -0.44566927818129     -0.33910968071127      0.36967330806830
  F   0.38975801547940      0.27395113456244     -1.74940104958455
  H   -0.08164432297137     -0.70657738036788      1.33218170745597
  H   1.29213631828699     -1.13759938742251     -0.64150157774700
  N   1.73481752099882      0.78582817904118      0.09043728452322
  O   1.97067246425167      1.83224309813854     -0.49276958698505
  O   2.19045704409020      0.40713856908208      1.16543465471553
  N   -1.31279144276286     -1.34109413554429     -0.22338226819583
  H   -2.04900642707220     -1.59556276706933      0.42276652655353
  H   -1.74390322070994     -0.97298312947232     -1.06293126113742
  C   -1.07845404548738      0.97907131958199      0.58390933821604
  N   -1.63401099334713      2.00183097284821      0.74168224898667
