13
Coordinates from ORCA-job run
  C   0.87651103054127     -0.50781071713012      0.09442346248134
  C   -0.61936260039597     -0.44232331263578      0.45233746667300
  F   1.05272189545404     -1.52750879728563     -0.78449193455371
  H   -0.82809736989945     -1.39338802657300      0.95711845331762
  H   1.52752171811923     -0.63753031544373      0.95914126691901
  N   1.29577181944863      0.77369554593605     -0.56729817218562
  O   1.78723620157675      1.61785221324795      0.17644199167930
  O   1.06236839565855      0.88587419028967     -1.76637678701567
  N   -1.52708538741779     -0.32610857385267     -0.66691231566690
  H   -1.36957567133628      0.53215438434794     -1.18075502387016
  H   -1.38743416772310     -1.10300030112052     -1.30091263552704
  C   -0.84820374763912      0.63553557558624      1.42133003744847
  N   -1.02237211638676      1.49155813463362      2.20495419030037
