13
Coordinates from ORCA-job run
  C   0.77961448825900      0.56384646413652      0.17730065719577
  C   -0.41007060810844     -0.35763770227906      0.39871338772625
  F   1.59842242357195      0.53975337109347      1.25881488413301
  H   0.01335225115968     -1.34763182090234      0.59137779973034
  H   0.50627866497848      1.59167869713119     -0.06368620631777
  N   1.54522304198783      0.03375506122255     -1.00459945169498
  O   1.65272393627650      0.77808794610963     -1.97246700625492
  O   1.99155275173167     -1.10164184732140     -0.88788895316022
  N   -1.18419966871866     -0.40770118271513     -0.82637575895514
  H   -1.78687347584878      0.40134466981951     -0.91327276132795
  H   -1.76092097806114     -1.23758147446268     -0.85372494953291
  C   -1.15030772164978      0.08361199192488      1.59415911771284
  N   -1.79679510557830      0.46011582624286      2.49964924074568
