13
Coordinates from ORCA-job run
  C   0.95258068558807     -0.47759003648002      0.04498626264695
  C   -0.53938538991353     -0.52547976714747      0.37127638121878
  F   1.27682037943822     -1.41907939978464     -0.87018769726714
  H   -0.67274841582392     -1.45247985205276      0.94072496863299
  H   1.56627388649141     -0.60091203929683      0.93818867951325
  N   1.35335456241824      0.86045460289747     -0.52909215733913
  O   2.39199142274085      1.35098231305445     -0.09666893611433
  O   0.63064213393766      1.33305916162438     -1.40354195397196
  N   -1.37263890431367     -0.61176722790690     -0.80525750392682
  H   -2.32924765307778     -0.80342360487723     -0.53903848652301
  H   -1.33500841949036      0.24699017883855     -1.33669664251104
  C   -0.83124839764554      0.59920778483047      1.28959988958923
  N   -1.09238589034964      1.50203788630057      1.99470719605224
