13
Coordinates from ORCA-job run
  C   0.87670608005629     -0.51688159932750      0.03427026959121
  C   -0.58878975564889     -0.43637127309448      0.49911153501163
  F   0.97947220177655     -1.54135595797167     -0.85078567521221
  H   -0.76889787227607     -1.38324981226488      1.02248272656225
  H   1.58729123837899     -0.65008376643745      0.85017554129924
  N   1.25875538617609      0.75807361206395     -0.66119863146761
  O   0.93948259430412      0.86862337828776     -1.84054120263150
  O   1.81155990821684      1.59982608262717      0.04112052349063
  N   -1.57401327957011     -0.31677313300609     -0.55242300421051
  H   -1.48097263876492     -1.09285719055761     -1.19598221790831
  H   -1.45125348292417      0.54209736433414     -1.07470059420828
  C   -0.73802344188670      0.64871065799815      1.47533986172604
  N   -0.85131693783803      1.51924163734853      2.25413086795737
