13
Coordinates from ORCA-job run
  C   0.67945814229327     -0.08199288373759     -0.66515176231057
  C   -0.43240915203105     -0.39732046782089      0.32324241698315
  F   0.21602687531467      0.71847930108796     -1.65117950243641
  H   -0.00044097660738     -1.03561300555610      1.09781116728369
  H   1.09365791892913     -0.99794621516651     -1.08730495587938
  N   1.80306864502741      0.61860115128501      0.05963002152913
  O   2.33789702463674     -0.06898053751775      0.92444629357795
  O   2.07313013814092      1.76771415272118     -0.25246479512665
  N   -1.45373186808135     -1.14234173586080     -0.39040875696099
  H   -1.93974774585761     -0.53238983153517     -1.03687650901965
  H   -2.13296025634397     -1.51811787992215      0.25896965007779
  C   -0.90613626958910      0.84948379222399      0.95980688641627
  N   -1.33881247583166      1.82042415979882      1.45947984586564
