13
Coordinates from ORCA-job run
  C   0.77898605854087     -0.18775738413227     -0.52019819079677
  C   -0.45393012731018     -0.33903710238927      0.35735700967504
  F   0.43008596072178      0.27444413458400     -1.74173452163750
  H   -0.11235883658027     -0.70596057761253      1.32827029473415
  H   1.30676844121522     -1.13721343827316     -0.61351834658441
  N   1.73178400543683      0.78631619686696      0.12890437115491
  O   1.97828818736482      1.83466519272506     -0.44645284218413
  O   2.16460291795074      0.40604432378893      1.21280998912096
  N   -1.30691921637857     -1.34117995301792     -0.25544017902284
  H   -2.05697247480921     -1.59666207607428      0.37418135216788
  H   -1.71973432123664     -0.97305825839733     -1.10411314325171
  C   -1.09167166161238      0.97892105954002      0.55870833069240
  N   -1.64992893330301      1.99947788239178      0.72122587593203
