13
Coordinates from ORCA-job run
  C   0.90806490870210     -0.18625237759339      0.29613707554485
  C   -0.59109132399030     -0.35154542045912      0.11786467961621
  F   1.51421322838135     -1.38334877122708      0.51802178895995
  H   -0.74930122255364     -1.11428711929968     -0.65296387726413
  H   1.16090970275133      0.52381284448095      1.08211555428925
  N   1.49041527957634      0.36522953886890     -0.98108970032954
  O   0.97053886536948      0.00185956708949     -2.03447729596318
  O   2.47129988074902      1.09080166341859     -0.86228028432155
  N   -1.12602429908351      0.96087244262777     -0.23420109544771
  H   -1.26131708106398      1.01609985664099     -1.23478632113675
  H   -2.00725841578167      1.14031289969690      0.22613737473149
  C   -1.15745967537853     -0.84221123808822      1.37575661295152
  N   -1.62398984767796     -1.22134388615609      2.38376548836957
