13
Coordinates from ORCA-job run
  C   0.98512023002840     -0.46577148179645      0.05993026653034
  C   -0.50487580312062     -0.47640078853697      0.40705559254262
  F   1.31513398371127     -1.60323838910444     -0.58538525730541
  H   -0.70023032680600     -1.50570793421800      0.72614888737241
  H   1.62956331676401     -0.33750207755661      0.93341455319388
  N   1.27735133222122      0.70461250622883     -0.85176188402002
  O   0.79816885205040      1.77091564854858     -0.47528957888568
  O   1.95468842678890      0.50738018587409     -1.84582975663628
  N   -1.29256552661857     -0.21579485382213     -0.78271716718774
  H   -2.21115663218953     -0.62900807894398     -0.69861692560121
  H   -1.39911043919310      0.78055153199724     -0.92774418367704
  C   -0.79032949486365      0.39931122127734      1.55843647911061
  N   -1.06375791877274      1.07065251005254      2.48235897456354
