13
Coordinates from ORCA-job run
  C   0.87305821347171      0.41100325864003      0.12942310070271
  C   -0.45847537605681     -0.23519437810966      0.47075584685796
  F   1.79416361261343      0.18789537878412      1.10464178975962
  H   -0.26196042385159     -1.28585323674336      0.71263997089044
  H   0.78199489328230      1.47643148973995     -0.07672670408108
  N   1.41009294669559     -0.22318592301103     -1.12915592433539
  O   2.07376799486997      0.50024644906371     -1.86314061579163
  O   1.18569261899230     -1.42161744100173     -1.28857381396909
  N   -1.33144623605274     -0.05045552443006     -0.68541076217440
  H   -2.27735359710186      0.16980298930348     -0.40687967247037
  H   -1.34229415074393     -0.89523952471722     -1.24123044338124
  C   -1.00000704221406      0.41950848804749      1.66309744694071
  N   -1.44723345390431      0.94665797443428      2.61155978105174
