13
Coordinates from ORCA-job run
  C   0.79749914075782     -0.27329579846121     -0.44665981864497
  C   -0.49093646367242     -0.28035120105135      0.36138076348903
  F   0.54390935314914      0.07113356525964     -1.72900714034078
  H   -0.22492067855450     -0.55622745848805      1.38465248276821
  H   1.28457653414658     -1.24797854417417     -0.40762437448647
  N   1.75601301955261      0.72407653144736      0.15788306191907
  O   2.10485325876841      0.44405162820363      1.30092485894052
  O   2.08921477166275      1.69188773419958     -0.50777155326275
  N   -1.35226581152993     -1.30649750488474     -0.19789238031565
  H   -1.69636331924046     -1.01392821107688     -1.10462215379490
  H   -2.14933486354294     -1.46361743810650      0.40562795208199
  C   -1.07589488520711      1.07650729975049      0.38375388860894
  N   -1.58635005628992      2.13423939738218      0.39835441303772
