13
Coordinates from ORCA-job run
  C   0.79607280154924     -0.28398525474105     -0.44346203566625
  C   -0.48609764516179     -0.27115689694368      0.37463044813981
  F   0.53134331131807      0.02107019428726     -1.73349994925066
  H   -0.21114228532679     -0.51644115619226      1.40332211154210
  H   1.28679766586786     -1.25542649444341     -0.37888964881093
  N   1.75506015672059      0.73444108717235      0.12374909077777
  O   2.07244974839476      1.68815736745718     -0.56951447291964
  O   2.11727950329194      0.48683189396189      1.27016632940356
  N   -1.34850369988648     -1.31557415766196     -0.14767943321426
  H   -2.13986259624098     -1.45801187403884      0.46689757659609
  H   -1.70136242116454     -1.05013171568602     -1.05935588016596
  C   -1.07585965807596      1.08375649804558      0.36075712016924
  N   -1.59617488128591      2.13647050878297      0.33387874339909
