13
Coordinates from ORCA-job run
  C   0.95529016909514     -0.52467984391623      0.05057650852298
  C   -0.53852004918897     -0.46760187656417      0.37540681412807
  F   1.23116831255410     -1.64555249507803     -0.64744476959146
  H   -0.79645625907252     -1.49878870248916      0.63915245329063
  H   1.59108117994836     -0.47825915185258      0.93851924352264
  N   1.33036233577051      0.67098344730972     -0.79571397587002
  O   2.02375137378840      0.48555912834976     -1.78098679369473
  O   0.90629003467316      1.74345719987650     -0.37350151542060
  N   -1.29017275541574     -0.10422254967904     -0.81089615324272
  H   -2.23286967516838     -0.46524712486969     -0.75837639026041
  H   -1.33605326432455      0.90263451643281     -0.90743198343973
  C   -0.79486006237438      0.36553103387813      1.56467499140057
  N   -1.04901134028514      1.01718641860199      2.50802157065477
