13
Coordinates from ORCA-job run
  C   0.86307845796955     -0.53790899376591      0.06111343479782
  C   -0.61903513557437     -0.43175854360275      0.46371482100018
  F   0.98151269416619     -1.55370161988425     -0.83200280548151
  H   -0.84538227492538     -1.38958295389048      0.94775938054221
  H   1.53521543751297     -0.69667039456549      0.90458635784884
  N   1.29893846442295      0.73722162915528     -0.60132340384591
  O   1.06900862580255      0.85343498591638     -1.80040524161521
  O   1.81078716136272      1.56963883986184      0.14207638429991
  N   -1.55181018544253     -0.25488924889775     -0.62684876137946
  H   -1.39514154621525      0.62230446942437     -1.10787302299252
  H   -1.44148939489487     -1.00653820211460     -1.29620061387704
  C   -0.78667671128345      0.62543640525288      1.46699569239049
  N   -0.91800559290101      1.46201362711049      2.27940777831221
