13
Coordinates from ORCA-job run
  C   0.87927832669428     -0.51263547100521      0.00496782766916
  C   -0.57563633081274     -0.44538860197944      0.50337697933501
  F   0.96652324636002     -1.52397290673214     -0.89660815054947
  H   -0.74202680564327     -1.40264564601534      1.01215235928830
  H   1.60897596804652     -0.65390760954352      0.80246738328257
  N   1.23921970618231      0.77406555587846     -0.68070432265046
  O   1.79143650645328      1.61332847476329      0.02505353803885
  O   0.90400108156137      0.89534953935047     -1.85448529822959
  N   -1.58339078363582     -0.30862651140843     -0.52450733812366
  H   -1.50281565300460     -1.07205687638978     -1.18462135611975
  H   -1.47511790258382      0.56062008775271     -1.03256093864459
  C   -0.70699913181881      0.61865504788855      1.50515489312167
  N   -0.80444822779882      1.45721491744032      2.32031442358195
