13
Coordinates from ORCA-job run
  C   0.92146309240133     -0.50576880978119      0.05714283573963
  C   -0.54457698767224     -0.36366243799477      0.45645092073444
  F   1.04442339099790     -1.61941648771589     -0.70988500972702
  H   -0.80752076896040     -1.33049578269416      0.91599136109028
  H   1.60161847656716     -0.56047164569752      0.90749756082021
  N   1.33519617826738      0.69403944679531     -0.75787461409741
  O   1.48427074542249      0.54998308379673     -1.96022188420562
  O   1.46868415765589      1.71856279617042     -0.09938957272013
  N   -1.31048375066492     -0.02628028155929     -0.73217985458389
  H   -2.28413606678880      0.12022254870572     -0.49926134457875
  H   -1.24806522015361     -0.78116645615537     -1.40518258192932
  C   -0.72670280247943      0.66431005995745      1.48551200912207
  N   -0.93317044459275      1.44114396617253      2.34040017433551
