13
Coordinates from ORCA-job run
  C   0.87788800062814     -0.51280270206459      0.05656064839483
  C   -0.59303213958153     -0.42570000317029      0.50238782229743
  F   0.99360878227426     -1.55762507751429     -0.80284048657749
  H   -0.77681497355590     -1.36077107510157      1.04530307855862
  H   1.57978048555120     -0.62468940466907      0.88311297975318
  N   1.26419281069455      0.74660659991826     -0.66447797732986
  O   0.96093934861153      0.82721547566835     -1.85036314610830
  O   1.80320343974944      1.60750752908563      0.02514378996217
  N   -1.56615434636492     -0.33340027836544     -0.56305465832424
  H   -1.46721503058563     -1.12684199487297     -1.18413219947070
  H   -1.43658323196022      0.51091383591203     -1.10696120676774
  C   -0.75697308516205      0.68115776104097      1.45149752890007
  N   -0.88384006029885      1.56942933413298      2.20782382671198
