15

C	-0.440291	-0.008465	-1.470516
C	0.0	0.0	0.0
Cl	0.435296	-1.245631	-2.351725
H	1.094797	0.0	0.0
N	-1.963863	-0.315576	-1.560111
O	-2.627996	0.013543	-0.584753
O	-2.38659	-0.803014	-2.596447
C	-0.280017	1.285288	-2.128535
N	-0.192582	2.326426	-2.666837
N	-0.415316	-1.238937	0.630868
H	0.3523	-1.582207	1.196111
H	-1.23769	-1.106061	1.204435
C	-0.445497	1.214541	0.688724
N	-0.772418	2.170091	1.290093
Br	3.364402	0.0	0.0
