15

C	-0.399771	-0.002678	-1.479191
C	0.0	0.0	0.0
Cl	0.222306	-1.443602	-2.277693
H	1.095928	0.0	0.0
N	-1.939563	-0.016339	-1.651203
O	-2.361007	0.100962	-2.793185
O	-2.61517	-0.140793	-0.636453
C	0.068194	1.192426	-2.177243
N	0.429231	2.152045	-2.753213
N	-0.418221	-1.205891	0.675965
H	-1.293781	-1.07905	1.162533
H	0.313222	-1.480342	1.319334
C	-0.454837	1.248762	0.623195
N	-0.81319	2.229663	1.163047
Br	3.346663	0.0	0.0
