14

C	0.0	0.0	0.0
C	-0.552048	0.317504	-1.365913
Br	1.953513	0.0	0.0
H	-0.250466	1.299317	-1.727407
H	-0.281997	-1.017337	0.266252
H	-1.648368	0.239941	-1.285379
C	-0.506725	0.995989	1.02524
H	-0.129757	0.746594	2.018661
H	-1.599458	0.94796	1.025311
H	-0.179318	2.008262	0.774723
N	-0.113747	-0.658477	-2.39916
O	-0.10267	-1.848097	-2.093067
O	0.180652	-0.213507	-3.509109
Cl	-3.729224	0.0	0.0
