14

C	0.0	0.0	0.0
C	-0.552078	0.364524	-1.354294
Br	1.95375	0.0	0.0
H	-1.648233	0.281598	-1.277236
H	-0.282162	-1.02589	0.230855
H	-0.252028	1.358867	-1.681573
C	-0.505505	0.958799	1.060468
H	-1.598347	0.91454	1.058139
H	-0.174522	1.978716	0.850362
H	-0.131411	0.670768	2.044655
N	-0.110982	-0.57405	-2.421165
O	-0.098029	-1.773628	-2.15789
O	0.184237	-0.088726	-3.513856
Cl	-3.733275	0.0	0.0
