14

C	0.0	0.0	0.0
C	-0.240865	-0.266965	-1.500549
Br	1.953112	0.0	0.0
H	0.423864	0.380026	-2.073361
H	-0.314529	-0.854097	0.597686
H	-0.026209	-1.308683	-1.733641
C	-0.571752	1.287126	0.538636
H	-1.664772	1.202051	0.504795
H	-0.254089	1.432149	1.574614
H	-0.256032	2.143027	-0.060155
N	-1.576313	0.030611	-2.108804
O	-1.870582	1.217743	-2.203752
O	-2.190269	-0.913968	-2.591647
Cl	-3.935737	0.0	0.0
