14

C	0.0	0.0	0.0
C	-0.245626	-0.264899	-1.505021
Br	1.953147	0.0	0.0
H	0.443701	0.356223	-2.076518
H	-0.321183	-0.851503	0.598668
H	-0.061994	-1.313899	-1.733114
C	-0.562776	1.295767	0.529783
H	-0.243819	2.142576	-0.078813
H	-1.655194	1.212986	0.498379
H	-0.241453	1.452922	1.561267
N	-1.566224	0.074617	-2.131134
O	-1.827788	1.269737	-2.221366
O	-2.196799	-0.849505	-2.631445
Cl	-3.878501	0.0	0.0
