13

C	-0.562326	-0.028336	-1.385772
C	0.0	0.0	0.0
F	0.007676	0.973448	-2.147026
H	1.087499	0.0	0.0
H	-0.334708	0.930779	0.468249
H	-0.37536	-0.846539	0.571302
N	-0.216544	-1.315153	-2.137401
O	0.207345	-2.269889	-1.501739
O	-0.462333	-1.298198	-3.342173
N	-1.980891	0.023516	-1.438831
H	-2.309888	0.796994	-0.876969
H	-2.273839	0.149349	-2.400789
Cl	3.547503	0.0	0.0
