13

C	-0.601098	0.019131	-1.379633
C	0.0	0.0	0.0
F	-0.178455	1.10976	-2.063235
H	1.091696	0.0	0.0
H	-0.359335	-0.880211	0.534875
H	-0.346225	0.898382	0.519491
N	-0.144057	-1.214079	-2.156997
O	-0.553685	-2.282044	-1.702594
O	0.545048	-1.06376	-3.151762
N	-2.038847	-0.020249	-1.4848
H	-2.406883	0.763567	-0.958292
H	-2.36282	-0.875748	-1.050674
Cl	3.517174	0.0	0.0
