16

C	0.0	0.0	0.0
C	-0.631808	0.343008	-1.33585
Cl	1.749107	0.0	0.0
H	-1.653105	0.684469	-1.101835
H	-0.35315	-0.97837	0.317715
N	-0.429914	0.928922	1.128516
O	-0.899842	2.01931	0.847175
O	-0.227214	0.486573	2.255955
C	-0.725699	-0.890262	-2.211837
H	0.258866	-1.327617	-2.401812
H	-1.191657	-0.637223	-3.161306
H	-1.369454	-1.605889	-1.699312
N	0.046002	1.47089	-2.059624
O	0.673867	2.302409	-1.41061
O	-0.126099	1.526342	-3.27786
Cl	-3.491932	0.0	0.0
