16

C	0.0	0.0	0.0
C	-0.609492	0.305765	-1.358144
Cl	1.749192	0.0	0.0
H	-1.626087	0.679921	-1.151996
H	-0.355744	-0.968405	0.344779
N	-0.429537	0.968384	1.09597
O	-0.945323	2.026831	0.781247
O	-0.176134	0.585971	2.235334
C	-0.714515	-0.957188	-2.18736
H	-1.389775	-1.633703	-1.660427
H	-1.147371	-0.731602	-3.159193
H	0.262203	-1.427745	-2.331363
N	0.112969	1.391023	-2.102461
O	0.068241	1.352375	-3.332461
O	0.654275	2.28662	-1.460016
Cl	-3.461062	0.0	0.0
