17

C	-0.383141	-0.046503	-1.503488
C	0.0	0.0	0.0
Cl	-2.132559	-0.487022	-1.72386
H	1.097057	0.0	0.0
C	-0.201157	1.237525	-2.177454
N	-0.057483	2.242633	-2.768976
C	0.473708	-1.110866	-2.176346
H	1.52589	-0.851538	-2.019762
H	0.240362	-1.166034	-3.240146
H	0.27694	-2.079856	-1.715005
N	-0.400089	-1.130259	0.755997
H	-1.24419	-1.579577	0.441397
H	0.369247	-1.766057	0.881771
N	-0.553118	1.256062	0.599318
O	0.124781	2.275586	0.481366
O	-1.66133	1.181648	1.129622
Cl	3.302284	0.0	0.0
