17

C	-0.51958	-0.007143	-1.463206
C	0.0	0.0	0.0
Cl	0.297974	1.261687	-2.429818
H	1.090454	0.0	0.0
C	-0.166096	-1.308152	-2.03806
N	0.052636	-2.366714	-2.498942
C	-2.028373	0.19578	-1.60043
H	-2.314686	0.077639	-2.64649
H	-2.575302	-0.534498	-1.00013
H	-2.303124	1.195404	-1.267312
N	-0.412876	-1.119527	0.781869
H	0.309076	-1.825892	0.761407
H	-1.313749	-1.504835	0.544145
N	-0.522457	1.260117	0.642665
O	0.165452	2.272879	0.57574
O	-1.639573	1.193207	1.161548
Cl	3.282501	0.0	0.0
