17

C	-0.398367	-0.050792	-1.491393
C	0.0	0.0	0.0
Cl	-2.194556	-0.319599	-1.641567
H	1.092178	0.0	0.0
C	-0.112891	1.181405	-2.224695
N	0.123789	2.116329	-2.896921
C	0.333459	-1.210447	-2.155186
H	0.033789	-2.147305	-1.684694
H	0.091624	-1.249044	-3.218458
H	1.407519	-1.060054	-2.010624
N	-0.411811	-1.105083	0.786145
H	0.322636	-1.794508	0.841536
H	-1.304533	-1.500375	0.534367
N	-0.531128	1.280491	0.593941
O	0.069965	2.313142	0.30254
O	-1.54101	1.215646	1.292879
Cl	3.269102	0.0	0.0
