17

C	-0.489667	0.087848	-1.464139
C	0.0	0.0	0.0
Cl	0.031907	-1.423884	-2.277994
H	1.090354	0.0	0.0
C	-1.955262	0.116683	-1.501992
N	-3.12968	0.169044	-1.519554
C	0.116499	1.258948	-2.231551
H	1.199219	1.232146	-2.088733
H	-0.270146	2.208169	-1.861406
H	-0.126277	1.160438	-3.290701
N	-0.510692	-1.132435	0.678509
H	-1.418079	-0.939317	1.083466
H	0.139797	-1.413765	1.399139
N	-0.423914	1.308365	0.685202
O	0.232715	2.317843	0.451828
O	-1.409402	1.266164	1.42682
Cl	3.290206	0.0	0.0
