17

C	-0.611013	-0.00649	-1.421479
C	0.0	0.0	0.0
Cl	0.157091	1.199154	-2.501747
H	1.091346	0.0	0.0
C	-0.359997	-1.327267	-2.005483
N	-0.242275	-2.362974	-2.5465
C	-2.117019	0.244426	-1.397783
H	-2.320527	1.257369	-1.047223
H	-2.525467	0.134474	-2.403115
H	-2.597849	-0.4778	-0.734479
N	-0.464792	-1.153018	0.709409
H	0.302082	-1.522513	1.258107
H	-1.232688	-0.909106	1.321414
N	-0.447162	1.286742	0.675232
O	0.070419	2.331945	0.30263
O	-1.339549	1.209222	1.526479
Cl	3.250994	0.0	0.0
