17

C	-0.487516	0.038175	-1.466119
C	0.0	0.0	0.0
Cl	0.101826	-1.467979	-2.243853
H	1.090378	0.0	0.0
C	-1.952741	0.004145	-1.510715
N	-3.127751	0.009909	-1.541098
C	0.069402	1.216575	-2.257989
H	-0.361211	2.156207	-1.912823
H	-0.164235	1.082461	-3.315192
H	1.151342	1.241853	-2.112411
N	-0.504861	-1.119294	0.706896
H	-1.413647	-0.921537	1.105252
H	0.147193	-1.378624	1.433981
N	-0.435469	1.321328	0.644641
O	-1.43812	1.296451	1.364503
O	0.223995	2.326099	0.399008
Cl	3.285972	0.0	0.0
