15

C	-0.319398	-0.103378	-1.476194
C	0.0	0.0	0.0
F	0.090117	1.049717	-2.136942
H	1.088526	0.0	0.0
H	-0.321589	-0.9004	0.527437
C	0.52935	-1.247275	-2.018414
H	0.170232	-2.211172	-1.650767
H	0.495953	-1.240446	-3.109506
H	1.541872	-1.059613	-1.641827
C	-1.75505	-0.293778	-1.772412
N	-2.881023	-0.554103	-1.983488
N	-0.612634	1.137516	0.694485
O	-1.253	1.968838	0.046624
O	-0.437933	1.191785	1.911936
F	2.577	0.0	0.0
