15

C	-0.315663	0.211108	-1.47331
C	0.0	0.0	0.0
F	-1.638397	0.64257	-1.680267
H	1.088836	0.0	0.0
H	-0.434713	-0.91105	0.403817
C	0.666379	1.160325	-2.137075
H	0.581426	1.11215	-3.225114
H	1.662159	0.866184	-1.784411
H	0.455931	2.169451	-1.788865
C	-0.228158	-1.119791	-2.112667
N	-0.187164	-2.174189	-2.6277
N	-0.474331	1.098593	0.850293
O	-0.398332	2.256252	0.436604
O	-0.884047	0.797679	1.973922
F	2.573028	0.0	0.0
