15

C	-0.296961	0.207791	-1.479647
C	0.0	0.0	0.0
F	-1.620734	0.619588	-1.710009
H	1.088784	0.0	0.0
H	-0.434879	-0.913531	0.397475
C	0.684155	1.166725	-2.128527
H	0.61397	1.115488	-3.216703
H	1.676175	0.87992	-1.7616
H	0.460695	2.174687	-1.784504
C	-0.176207	-1.122654	-2.115685
N	-0.107095	-2.179979	-2.622034
N	-0.49234	1.097279	0.840926
O	-0.916115	0.797458	1.959618
O	-0.427784	2.252928	0.422269
F	2.578317	0.0	0.0
