15

C	-0.308689	-0.110909	-1.495224
C	0.0	0.0	0.0
F	-0.235918	1.210389	-1.964152
H	1.089106	0.0	0.0
H	-0.439652	0.900575	0.422451
C	0.747822	-0.917446	-2.226962
H	1.710788	-0.599644	-1.809023
H	0.673362	-0.730828	-3.301054
H	0.610292	-1.978179	-2.021315
C	-1.682924	-0.564675	-1.794574
N	-2.772358	-0.926654	-2.043508
N	-0.471692	-1.14587	0.775685
O	-0.749619	-0.957347	1.961098
O	-0.511623	-2.251007	0.224434
F	2.58315	0.0	0.0
