13
Coordinates from ORCA-job run
  C   -0.67381761049132     -0.00806227039809      0.55233253636355
  C   0.31954757360842     -0.15127923619714     -0.59136821093201
  H   -0.60371075217630      1.01289397955145      0.96212437301261
  H   0.24636069293416     -1.17183009554268     -0.97762996419455
  H   -0.38981614823123     -0.69359580164196      1.35755995044375
  H   0.02092050814675      0.51641758903201     -1.40888983684107
  N   -2.02019557509151     -0.37372005067831      0.10903462779757
  H   -2.66164517552406     -0.34391332089542      0.89235789595388
  H   -2.34646053140523      0.30900250631263     -0.56500611394685
  C   1.74980146569160      0.16521871561037     -0.16686548607045
  H   2.44656580944640      0.05901470395893     -1.00134065192016
  H   2.07919799663198     -0.50897507889684      0.62840594133289
  H   1.83425174646033      1.18882835978506      0.20828493900083
