13
Coordinates from ORCA-job run
  C   -0.71508278790335     -0.20859861047152      0.57950942926711
  C   0.29182547105547      0.20741270578651     -0.49324368580044
  H   -0.46998162324581      0.29434762623900      1.52115718605334
  H   0.18501713178178      1.28286989233308     -0.67939724952208
  H   -0.61840472336765     -1.28284968592181      0.77021362781041
  H   0.03623523442890     -0.29825313527432     -1.43220437477923
  N   -2.12066102086891      0.06424600756701      0.28427634221814
  H   -2.24577879870964      1.05696001799512      0.12395235445326
  H   -2.38353550580449     -0.40719944671553     -0.57332254276504
  C   1.73170826517473     -0.11378915624326     -0.10322236215693
  H   1.86111673484403     -1.18655262601437      0.06367700889579
  H   2.01060409358333      0.40167552826307      0.81978307376371
  H   2.43693752903162      0.18973088245702     -0.88017880743805
