13
Coordinates from ORCA-job run
  C   -0.87965387033689     -0.57558156697862      0.13185591211053
  C   0.38532907113874     -0.45980348202948     -0.70907572723177
  H   -1.61378074884905     -1.17784771815666     -0.41168951372517
  H   0.11560440044669     -0.01991601240183     -1.67390971090782
  H   -0.64501871893079     -1.12021352633594      1.06141938098690
  H   0.77181201123477     -1.46679703199551     -0.90340377742901
  N   -1.47062790392002      0.74487026795336      0.36435319004451
  H   -0.94789390826524      1.23138920910900      1.08202213293597
  H   -2.41489480605853      0.63988794782640      0.71434575975291
  C   1.46463075489980      0.38659130684135     -0.04141710636192
  H   1.14080987473455      1.42456367308078      0.06042651586947
  H   2.38607808878164      0.39015281270730     -0.62815058249350
  H   1.70760575512434      0.00170412037987      0.95422352644891
