17

C	-0.53797	-0.03236	-1.428952
C	0.0	0.0	0.0
Cl	-0.062301	1.472451	-2.299166
H	1.088803	0.0	0.0
H	-0.361062	-0.897282	0.507386
C	0.148535	-1.199683	-2.125702
H	1.232849	-1.0927	-2.049976
H	-0.146551	-2.138465	-1.645227
H	-0.145423	-1.236588	-3.177246
C	-2.053706	-0.134075	-1.492151
H	-2.377587	-0.2031	-2.533258
H	-2.385703	-1.027917	-0.955524
H	-2.531436	0.733039	-1.035411
N	-0.545266	1.133071	0.785292
O	-1.610324	0.932589	1.384299
O	0.062014	2.198978	0.777624
Br	3.55851	0.0	0.0
