17

C	-0.531016	-0.080541	-1.437389
C	0.0	0.0	0.0
Cl	-0.38198	1.612011	-2.072696
H	1.089056	0.0	0.0
H	-0.394564	0.87176	0.516751
C	0.329255	-0.970156	-2.31798
H	-0.002528	-0.90367	-3.357516
H	0.249939	-2.00294	-1.975435
H	1.375508	-0.667376	-2.239178
C	-2.006144	-0.446393	-1.489097
H	-2.597144	0.218055	-0.854283
H	-2.376065	-0.369629	-2.513738
H	-2.143181	-1.475908	-1.14813
N	-0.465194	-1.168392	0.792778
O	-1.160805	-0.942166	1.786374
O	-0.151078	-2.294353	0.408192
Br	3.538043	0.0	0.0
