15

C	0.0	0.0	0.0
C	-0.559685	-0.264894	-1.390885
Br	1.945151	0.0	0.0
H	-1.659025	-0.200838	-1.288228
H	-0.223875	0.501486	-2.089663
N	-0.370359	1.436184	0.38782
O	-0.472718	1.678995	1.582416
O	-0.472532	2.251082	-0.521973
C	-0.509601	-0.966777	1.038319
H	-0.109037	-0.721746	2.019774
H	-1.60261	-0.897847	1.047653
H	-0.203885	-1.977674	0.762465
C	-0.177602	-1.583206	-1.87841
N	0.131133	-2.639223	-2.28891
Br	-3.834318	0.0	0.0
