15

C	0.0	0.0	0.0
C	-0.537995	-0.267738	-1.400082
Br	1.945222	0.0	0.0
H	-1.638104	-0.190058	-1.32643
H	-0.170284	0.485513	-2.097927
N	-0.389298	1.426686	0.393118
O	-0.488487	2.24565	-0.513429
O	-0.509487	1.659683	1.588123
C	-0.495069	-0.987844	1.027149
H	-1.589528	-0.958839	1.017888
H	-0.120189	-0.730615	2.015658
H	-0.143278	-1.984537	0.753997
C	-0.15607	-1.596906	-1.858579
N	0.155433	-2.666549	-2.229378
Br	-3.806901	0.0	0.0
