16

C	0.0	0.0	0.0
C	-0.490799	-0.00172	-1.432265
Br	1.954109	0.0	0.0
H	0.025036	-0.77898	-1.995592
H	-1.558943	-0.258529	-1.332412
N	-0.642552	0.956723	0.756427
H	-1.693963	0.739689	0.557202
H	-0.462746	0.801224	1.744103
N	-0.241437	-1.458621	0.592187
O	-0.226276	-2.416003	-0.172678
O	-0.390624	-1.526318	1.807742
C	-0.359348	1.364421	-2.088878
H	-0.675948	1.304194	-3.134709
H	-0.996455	2.085541	-1.577257
H	0.670094	1.732148	-2.063539
H	-2.981926	0.0	0.0
