16

C	0.0	0.0	0.0
C	-0.479401	-0.265041	-1.407079
Br	2.002157	0.0	0.0
H	-1.526416	-0.579434	-1.265699
H	0.097958	-1.076852	-1.848237
N	-0.613947	1.094418	0.562534
H	-0.417724	1.131987	1.558132
H	-1.668079	0.861905	0.415156
N	-0.230548	-1.304148	0.866241
O	-0.343537	-1.133719	2.075764
O	-0.257064	-2.388201	0.297126
C	-0.456879	0.998805	-2.256872
H	-0.626355	0.746503	-3.308384
H	0.495161	1.530294	-2.17751
H	-1.252448	1.669404	-1.93027
H	-2.958238	0.0	0.0
