16

C	0.0	0.0	0.0
C	-0.486636	-0.101894	-1.446212
Br	1.948613	0.0	0.0
H	-1.58432	-0.074298	-1.31583
H	-0.181902	0.856701	-1.886117
N	-0.554366	1.09364	0.700454
H	-0.383269	1.92715	0.145838
H	-1.592829	0.887303	0.643406
N	-0.366027	-1.261403	0.814954
O	-0.544597	-1.12851	2.015542
O	-0.395074	-2.325777	0.206327
C	-0.061586	-1.240045	-2.367043
H	-0.267124	-0.950307	-3.403285
H	1.003224	-1.471053	-2.287255
H	-0.624349	-2.144661	-2.148281
H	-3.017867	0.0	0.0
