16

C	0.0	0.0	0.0
C	-0.515983	-0.104312	-1.42735
Br	1.944119	0.0	0.0
H	-1.612764	-0.09703	-1.285837
H	-0.232429	0.856381	-1.86757
N	-0.583473	1.105043	0.612835
H	-0.368717	1.099604	1.604751
H	-1.625994	0.915988	0.494018
N	-0.290787	-1.310796	0.830319
O	-0.389089	-1.16115	2.043738
O	-0.3574	-2.38578	0.248407
C	-0.086179	-1.250016	-2.335361
H	-0.643072	-2.156949	-2.110958
H	0.97999	-1.475824	-2.25699
H	-0.293374	-0.968997	-3.373119
H	-3.024147	0.0	0.0
