16

C	0.0	0.0	0.0
C	-0.216504	0.05227	-1.550332
Br	1.938391	0.0	0.0
H	0.42499	-0.710116	-1.993084
H	0.221396	1.018387	-1.830491
N	-0.698814	0.903363	0.796211
H	-0.611285	1.824164	0.373903
H	-1.748338	0.588968	0.63474
N	-0.339742	-1.415973	0.520272
O	-0.366713	-2.322775	-0.306241
O	-0.497498	-1.548158	1.724088
C	-1.595001	-0.059195	-2.187389
H	-2.28176	0.70981	-1.848026
H	-1.44455	0.012827	-3.274901
H	-2.072771	-1.005147	-1.948744
H	-3.044793	0.0	0.0
