16

C	0.0	0.0	0.0
C	-0.299974	-0.006646	-1.518838
Br	1.974955	0.0	0.0
H	-1.371578	0.178059	-1.611217
H	0.208783	0.882352	-1.905804
N	-0.354661	1.285155	0.580621
H	0.446499	1.897012	0.500458
H	-0.502732	1.065572	1.566757
N	-0.70346	-1.037217	0.777005
O	-0.69964	-0.852107	2.03769
O	-0.67605	-2.204311	0.289472
C	0.085674	-1.230266	-2.343027
H	-0.541217	-2.076276	-2.072832
H	-0.049423	-0.998389	-3.40634
H	1.126114	-1.51793	-2.189055
H	-2.055949	0.0	0.0
