16

C	0.0	0.0	0.0
C	-0.23892	0.04442	-1.535451
Br	1.942663	0.0	0.0
H	0.321752	-0.791818	-1.95346
H	0.287852	0.95247	-1.840014
N	-0.696449	0.95834	0.702061
H	-0.543652	0.831906	1.699855
H	-1.754571	0.693643	0.485064
N	-0.28669	-1.451871	0.550062
O	-0.385378	-1.545242	1.769146
O	-0.370177	-2.384739	-0.240712
C	-1.620706	0.067152	-2.174291
H	-1.452384	0.131718	-3.25817
H	-2.214804	0.914105	-1.843313
H	-2.204511	-0.81572	-1.93679
H	-3.037982	0.0	0.0
