13

C	-0.524122	-0.090352	-1.42129
C	0.0	0.0	0.0
Br	-0.23162	1.5318	-2.502316
H	1.101263	0.0	0.0
H	-1.610357	-0.246409	-1.432552
H	0.001804	-0.884259	-1.957596
N	-0.367682	-1.225026	0.707409
H	0.353608	-1.910071	0.528096
H	-1.268945	-1.582368	0.408615
N	-0.650894	1.11832	0.696723
H	-0.358703	1.015113	1.662562
H	-0.205024	1.968716	0.369036
F	2.712609	0.0	0.0
