13

C	-0.596192	0.038185	-1.390062
C	0.0	0.0	0.0
Br	-0.214336	1.704033	-2.373797
H	1.100323	0.0	0.0
H	-1.686257	-0.03705	-1.357316
H	-0.183237	-0.769122	-1.991767
N	-0.430553	-1.319576	0.526225
H	0.43087	-1.787262	0.801417
H	-0.948016	-1.114358	1.373322
N	-0.473404	1.083126	0.863327
H	-1.151627	1.663063	0.381602
H	0.33138	1.667735	1.059364
F	2.702295	0.0	0.0
