13

C	-0.346375	0.124071	-1.448223
C	0.0	0.0	0.0
Br	-2.309237	0.362129	-1.797482
H	1.105883	0.0	0.0
H	-0.084547	-0.782651	-1.987477
H	0.118941	0.999706	-1.898747
N	-0.478653	-1.267958	0.540479
H	-1.352005	-1.092992	1.026708
H	0.197719	-1.532943	1.247893
N	-0.385482	1.162361	0.810424
H	-1.110574	1.706255	0.356273
H	0.44163	1.740421	0.905855
F	2.655034	0.0	0.0
