13

C	-0.522028	-0.348352	-1.380376
C	0.0	0.0	0.0
Br	-0.20981	1.04334	-2.736251
H	1.096106	0.0	0.0
H	-1.60717	-0.489194	-1.369569
H	-0.008367	-1.233168	-1.754967
N	-0.369006	-1.076543	0.918866
H	-1.257783	-1.503704	0.675779
H	0.367152	-1.770738	0.882392
N	-0.64692	1.228998	0.48146
H	-0.361044	1.294559	1.453249
H	-0.195621	2.00539	0.005539
F	2.717302	0.0	0.0
