13

C	-0.428203	-0.002257	-1.428705
C	0.0	0.0	0.0
Br	-2.419585	-0.002878	-1.646009
H	1.097276	0.0	0.0
H	-0.096472	-0.905175	-1.934984
H	-0.096784	0.89924	-1.937718
N	-0.398069	-1.246957	0.654007
H	-1.333172	-1.165887	1.041943
H	0.253907	-1.405728	1.413391
N	-0.397573	1.249475	0.64972
H	0.257737	1.412937	1.405363
H	-1.330661	1.168447	1.042487
F	2.655147	0.0	0.0
