13

C	-0.297093	0.041991	-1.465328
C	0.0	0.0	0.0
Br	-2.247801	-0.137137	-1.909787
H	1.09839	0.0	0.0
H	0.180488	-0.783473	-1.990813
H	-0.006541	0.999319	-1.89052
N	-0.39367	-1.251212	0.658839
H	0.413168	-1.863818	0.636704
H	-1.158868	-1.701357	0.167177
N	-0.509076	1.192992	0.658946
H	0.052263	1.308315	1.495756
H	-1.457488	1.004297	0.971409
F	2.655351	0.0	0.0
