15
Coordinates from ORCA-job run
  C   -0.84422493561982      0.41288215998042      0.01005952139753
  C   0.37025611193456     -0.29048011222605      0.65483957210426
  Cl  -1.80331488968009      1.19277708541070      1.36532827015309
  H   -0.04254764572771     -1.04533159444389      1.33615588997081
  C   -0.40171089828919      1.49828558890381     -0.86949805522430
  N   -0.03589134091358      2.34807733273433     -1.59340449744762
  N   -1.60338384383803     -0.52649946414244     -0.73938456177794
  H   -2.36259074631491     -0.07706480518576     -1.23681577543107
  H   -1.98499995653999     -1.24159008607936     -0.13011007423264
  C   1.14680944435495      0.65428977476425      1.45840775818048
  N   1.82264762447561      1.38630920237887      2.07956085356311
  C   1.26658064103806     -0.95714219219660     -0.39334016201837
  H   0.69233725348304     -1.67437514776212     -0.97724462839922
  H   2.09023373073475     -1.47119079527739      0.10493304048770
  H   1.68779945090236     -0.20894694685876     -1.06748715132583
