15
Coordinates from ORCA-job run
  C   -0.77613997616920      0.29720387804792     -0.27804084707672
  C   0.45052923287484     -0.47336005912129      0.26297972955890
  Cl  -0.60867761479817      2.06404932981990      0.20281648271398
  H   0.30982412344964     -1.50080603089965     -0.09380946641343
  C   -0.74952460168060      0.27139669243209     -1.74407847329245
  N   -0.71572539606980      0.22641911437180     -2.91735740353569
  N   -1.97400333554804     -0.30344710556045      0.18313833945793
  H   -2.79365215863816      0.14468186398916     -0.20767483859070
  H   -2.02824324405926     -0.28203397153497      1.19566670188253
  C   0.37417903455988     -0.50537734268729      1.72441346511639
  N   0.30013099616812     -0.53138951876695      2.89617678642097
  C   1.80082942226207      0.05708870476341     -0.21700078978817
  H   1.82598440812484      0.08772810376457     -1.30785527178157
  H   2.59358945962317     -0.60923167196487      0.12647324926463
  H   1.99189964990066      1.05607801334663      0.17215233606341
