15
Coordinates from ORCA-job run
  C   -0.79242496641782      0.50040827173007     -0.07142819485438
  C   0.41288119052626     -0.48163672761471      0.01599492833599
  Cl  -0.73701101712886      1.60136582020081      1.34284860570395
  H   0.33997985858492     -1.10130963022973     -0.88809617862853
  C   -0.63069303542589      1.30033512866647     -1.29281452012787
  N   -0.47149404157050      1.88683608119228     -2.29802954607204
  N   -2.09301731302954     -0.11315168615346     -0.09386171539670
  H   -2.20764991161936     -0.68121068262141     -0.92585459490897
  H   -2.23006386131174     -0.68246353755711      0.73435065423752
  C   0.20380884775691     -1.36569884541538      1.16285784723263
  N   0.02067298082445     -2.07146681535519      2.08347771609749
  C   1.78923870028820      0.18270447258540      0.05409372902254
  H   2.56716722971062     -0.58115829003636      0.00715216998397
  H   1.90839970456229      0.84855402313890     -0.80278140745455
  H   1.91920563425007      0.75589241746943      0.97109050682893
