15
Coordinates from ORCA-job run
  C   -0.82588708433858      0.42615644259217     -0.04646614449282
  C   0.51694525651655      0.01860580362495      0.60451276681635
  Cl  -2.15750345417672     -0.31384223269112      1.00348286523011
  H   0.45332069867856      0.29314927017389      1.66228688921099
  C   -1.01770526545144      1.87569572282927      0.05476632446484
  N   -1.16812187116276      3.03801213698070      0.13553908029261
  N   -0.88229796265213      0.03180919176082     -1.40140128224260
  H   -1.69511503719301      0.40394781844020     -1.87597901236031
  H   -0.86019659521337     -0.97455311120436     -1.50191311140108
  C   1.59442085940452      0.80391053962795     -0.00364091781395
  N   2.48538273689230      1.40490185768688     -0.47663812608948
  C   0.82230659921590     -1.47643593124702      0.47887206708636
  H   1.02039011490213     -1.74858764921655     -0.55903698490663
  H   1.71848632057397     -1.70979208421101      1.05537592191156
  H   -0.00242531599593     -2.07297777514675      0.86923966429405
