15
Coordinates from ORCA-job run
  C   -0.64252879884453      0.56831088669938     -0.19069530600961
  C   0.33045405508306     -0.49447466551041      0.36202730743870
  Cl  0.03733874506110      2.20552714657351      0.03850624447340
  H   -0.17352300687909     -1.46067376951376      0.21937762756604
  C   -0.79686590511217      0.35872849963668     -1.64354265590871
  N   -0.98103995411424      0.13716509177859     -2.78369664740064
  N   -1.88188026181057      0.50331329671325      0.54048338217142
  H   -2.51615648613688      1.23304855865464      0.23517315982421
  H   -2.32576317410887     -0.39782292332135      0.39516258342180
  C   0.50226794612757     -0.29658325465434      1.80240260836479
  N   0.71164873240532     -0.17456322095761      2.95089584433701
  C   1.68239716434499     -0.53323037550442     -0.35241345346800
  H   2.28886507656429     -1.34059959006647      0.06035033269786
  H   1.54664428674902     -0.71388217586102     -1.42027742813716
  H   2.21814158067101      0.40573649533333     -0.21375359937109
