15
Coordinates from ORCA-job run
  C   -0.85136740223714      0.39796303746248     -0.01868044619623
  C   0.35099817628505     -0.28813451093843      0.66615305482144
  Cl  -1.87297577243488      1.15249776305151      1.30467440793375
  H   -0.07287421250266     -1.05511095467271      1.32684012554411
  C   -0.39618357818421      1.49608182084486     -0.87577197609359
  N   -0.01939147523653      2.35488155588564     -1.58312003387063
  N   -1.56578927844051     -0.54980122536664     -0.80087399509624
  H   -2.31441375222129     -0.11048599929080     -1.32281965099701
  H   -1.95619540455630     -1.27569847528931     -0.21036971607384
  C   1.08023173058776      0.66442738078423      1.50424376174807
  N   1.72041075428294      1.40204744259500      2.15581255159242
  C   1.29760563275755     -0.93086645972215     -0.35238990966339
  H   2.11092660193787     -1.43445322192512      0.17271909110422
  H   0.75846715983166     -1.65319778214243     -0.96272796396215
  H   1.73055082013069     -0.17015037127611     -1.00468930079093
