15
Coordinates from ORCA-job run
  C   -0.86762394904759      0.30905097752780      0.09496915422697
  C   0.56519780879611     -0.04109176211081      0.56838512956656
  Cl  -2.04781601355388     -0.59550305418602      1.09399692627834
  H   0.64278871848839      0.26915692565310      1.61613147559908
  C   -1.12355220812693      1.74128108688420      0.34394716768837
  N   -1.31242640061564      2.89328529633790      0.48617727208295
  N   -1.04444658970995     -0.08776719385803     -1.27809090872428
  H   -1.99770302016088      0.08859968309746     -1.57455444333677
  H   -0.41742948525863      0.44683063487070     -1.87272364870422
  C   1.49785941190699      0.77089898654711     -0.21884436582081
  N   2.22618472840236      1.39658345381370     -0.89581999606891
  C   0.90510104584867     -1.52685832113719      0.43071311054453
  H   0.25622769133502     -2.12260496892398      1.07149162464813
  H   1.94025115979000     -1.69025320067061      0.73495489249670
  H   0.77838710190600     -1.85160854384536     -0.60073339047663
