15
Coordinates from ORCA-job run
  C   -0.85272449743095      0.37184176920559      0.00323027698728
  C   0.51098621699186     -0.03601573466910      0.60940322305621
  Cl  -2.13707770629985     -0.60042514698356      0.91144508790705
  H   0.42155813196774      0.07443919651151      1.69470628336173
  C   -1.14322210833874      1.77527048022081      0.31061404997297
  N   -1.37328671847850      2.90048921852196      0.55762344740746
  N   -0.87321485650168      0.17719609057326     -1.39613605576684
  H   -0.78627967847847     -0.80084492464074     -1.64021096148772
  H   -1.70657825253712      0.56118225581419     -1.82331055164996
  C   1.53522914834429      0.90062195576751      0.13983064834809
  N   2.38455927421784      1.62445744710885     -0.22529153523867
  C   0.91866851602918     -1.47245012996727      0.27129426324310
  H   1.13816932766854     -1.57611126616848     -0.79257419347648
  H   1.82686256555193     -1.72681913028359      0.81953388716613
  H   0.13535063729393     -2.17383208101092      0.55984213016965
