15
Coordinates from ORCA-job run
  C   -0.82741828955987      0.42519129922414     -0.02104098436632
  C   0.52604025414867      0.00146492840133      0.59704062436704
  Cl  -2.14126225792257     -0.34849216125182      1.02630402669195
  H   0.47759550303284      0.24306545978755      1.66356136873079
  C   -1.01949607542017      1.87077007274626      0.12638138051724
  N   -1.16454857997487      3.02965122388576      0.25355724045436
  N   -0.90375637979838      0.07070991447093     -1.38621747476849
  H   -1.72401199905793      0.45580188096813     -1.83695103937143
  H   -0.88359529911574     -0.93241184040085     -1.51625305416859
  C   1.59224995291039      0.80765087728351     -0.00328960954517
  N   2.46916862350575      1.42749707175147     -0.47822803244804
  C   0.83221807962216     -1.48825957747970      0.42117642346454
  H   1.73754614973187     -1.73705156267457      0.97659638751963
  H   1.01469676660152     -1.72829822888043     -0.62749855863504
  H   0.01457355129634     -2.09828935783169      0.80586130155754
