15
Coordinates from ORCA-job run
  C   -0.66430554589840      0.65815355901774     -0.08996609894297
  C   0.29610108145776     -0.55473857894165      0.08787112805867
  Cl  -0.08017278636753      2.00518955680408      0.93972191984438
  H   -0.09405534696796     -1.32666721039703     -0.58923052283150
  C   -0.59717546088243      1.08093552060292     -1.49530676550977
  N   -0.53557369134753      1.35783385106156     -2.63526205199749
  N   -2.04019416580726      0.41572968660887      0.25051521780334
  H   -2.44755085156376     -0.27697340932742     -0.36764784429444
  H   -2.11834072449641      0.10818450288549      1.21399633689279
  C   0.14822410588664     -1.06276125270137      1.45187234698885
  N   0.01378064243070     -1.46521387136035      2.54686080002602
  C   1.75903250035618     -0.28017549189039     -0.26085439260031
  H   2.32941096060424     -1.20904272274378     -0.20871496663098
  H   1.83528079142223      0.11422474829462     -1.27592513934204
  H   2.19653849117352      0.43632111208671      0.43307003253547
