15
Coordinates from ORCA-job run
  C   -0.90058450030880      0.43861741137882      0.05370491137633
  C   0.49468669544830     -0.02029488741334      0.58149638252579
  Cl  -2.14571720291934     -0.35488042925842      1.07812018966799
  H   0.56484430610243      0.28152974640877      1.63236268770168
  C   -1.01722429403238      1.88902389082426      0.25804500277202
  N   -1.07005111087935      3.05082524353803      0.42405434322106
  N   -1.19595945223990      0.14462179257839     -1.31975102253181
  H   -1.14214624257697     -0.84945414907104     -1.50206966111022
  H   -0.57465743781877      0.65234831239994     -1.93999795503237
  C   1.50799408924600      0.71169667370983     -0.18197160130598
  N   2.29958809666830      1.27460564951264     -0.84282962218714
  C   0.73943696257943     -1.52580780676356      0.45976493267518
  H   -0.00879848381495     -2.08521662794192      1.02003354846974
  H   1.72436593900484     -1.76560516820734      0.86305913204579
  H   0.72422263554116     -1.84400965169506     -0.58402126828806
