15
Coordinates from ORCA-job run
  C   -0.90132778693898      0.49713716030544      0.06643568130220
  C   0.32385760117892     -0.23285702255473      0.68445168560547
  Cl  -1.79329052631349      1.26611424420378      1.42385995834862
  H   -0.08825535557246     -0.94085278246393      1.41414169666989
  C   -0.43100482494745      1.54755161574496     -0.84426118073986
  N   -0.01637129241421      2.34325923544736     -1.60245728720435
  N   -1.82271168565505     -0.34477232327384     -0.64395303499705
  H   -2.09907626472330     -1.14109982145017     -0.08186987271249
  H   -1.44465629836672     -0.64812388546780     -1.53234245390422
  C   1.17998359880803      0.70797715382367      1.40766844268832
  N   1.90531569536169      1.44646682529647      1.96222563471798
  C   1.13992803787611     -0.98239722714658     -0.37159618452652
  H   1.53007523002577     -0.29310368268143     -1.12355251545655
  H   1.98652128100810     -1.48147006044368      0.10212282676071
  H   0.53101259067305     -1.74382942933948     -0.86087339655216
