15
Coordinates from ORCA-job run
  C   -0.84363360240047      0.41090714770398     -0.05522134301894
  C   0.33317040648670     -0.26069375910222      0.68613538392537
  Cl  -1.87707412016407      1.24625815717385      1.20916803706977
  H   -0.11686942908678     -0.98645624259075      1.37546279898179
  C   -0.35248961917705      1.45817741025111     -0.95504176042905
  N   0.05403386725080      2.27670659700600     -1.69308979909076
  N   -1.55940004189294     -0.56205014525667     -0.80444901630640
  H   -1.97219661672270     -1.25260208678335     -0.18728904032150
  H   -2.29135746791023     -0.13692395355071     -1.36070856846207
  C   1.06295188832620      0.71995041046625      1.49061024345920
  N   1.70241925077171      1.47978516217559      2.11683295302500
  C   1.28702407648644     -0.96938675080138     -0.28042237996653
  H   0.74661826438254     -1.71241325935604     -0.86438322022866
  H   1.74531053178149     -0.24974304417102     -0.96144327695691
  H   2.08149261186838     -1.45951564316466      0.28483898831969
