15
Coordinates from ORCA-job run
  C   -0.88138539130685      0.28448414450654     -0.00909383771332
  C   0.48161089816048     -0.06511751526769      0.63890678195609
  Cl  -2.16159584020849     -0.70587543763532      0.75886983847939
  H   0.40308288322336      0.17866381747242      1.70399214253246
  C   -1.21145206103470      1.69234181457127      0.28658806837154
  N   -1.45206972673934      2.82878795042628      0.46965278978973
  N   -0.85439958534108     -0.02834009996518     -1.41459688701841
  H   -0.16602749410034      0.55472687340025     -1.88223720754245
  H   -1.76181841335283      0.14752947210095     -1.83092352964707
  C   1.49020961942084      0.81437730139074      0.04078983613112
  N   2.28770753440234      1.49437899860194     -0.49002483508008
  C   0.88127030598607     -1.53169258350486      0.46070291524639
  H   0.16695996045787     -2.18087167172637      0.96553483465797
  H   1.86799463853609     -1.69269454708323      0.89800702740294
  H   0.90991267189658     -1.79169851728773     -0.59616793756630
