15
Coordinates from ORCA-job run
  C   -0.87241699575062      0.30589044314387      0.06873894788068
  C   0.55334628235169     -0.01881929037044      0.57979959718365
  Cl  -2.06550508810524     -0.57588161496505      1.07295160597512
  H   0.60800611027164      0.32303369649442      1.61912647426226
  C   -1.14275025548002      1.74321320079369      0.26837034095103
  N   -1.34250100576299      2.89742180664368      0.37261500947968
  N   -1.02016457711548     -0.13453049170623     -1.29439943878335
  H   -0.38345204447604      0.38401103042380     -1.89294284079478
  H   -1.96797467994434      0.02795193705076     -1.61526758583689
  C   1.49629483171535      0.77574383085338     -0.21284962014820
  N   2.24212023597332      1.37958172898821     -0.89055479641995
  C   0.90651262510993     -1.50543937568681      0.49351815898288
  H   1.93595822010336     -1.65169994558780      0.82462861114860
  H   0.80450729282348     -1.86153840901960     -0.53029372210603
  H   0.24801904828594     -2.08693854705585      1.13755925822534
