15
Coordinates from ORCA-job run
  C   -0.76283745155797      0.40282949469413     -0.16811306541039
  C   0.43131232337303     -0.45059085204134      0.30887729235686
  Cl  -0.59973363083594      2.08005477555044      0.42796933301552
  H   0.23648305113825     -1.46623209295517     -0.06303501690301
  C   -0.74512826539723      0.45889610900948     -1.64298973128462
  N   -0.77223047592909      0.42924739472659     -2.81837605660867
  N   -1.98100819765046     -0.13858905100661      0.37794964175477
  H   -2.77327573634386      0.44426458127885      0.13228719175017
  H   -2.13919240235765     -1.07419891052292      0.01785652060207
  C   0.43379057116357     -0.51130630155434      1.77153760399125
  N   0.51540008600016     -0.57592709107290      2.94081674800695
  C   1.78564345809731      0.01855626617033     -0.22493218587216
  H   2.56733953616784     -0.66024632800221      0.11878422330859
  H   2.01593775783783      1.02053470063020      0.13676159249848
  H   1.78649937629420      0.02270730509547     -1.31639409120579
