15
Coordinates from ORCA-job run
  C   -0.83816456351774      0.41969892829755     -0.06310431845788
  C   0.33229646855165     -0.24692788479740      0.69266068486274
  Cl  -1.85773486549015      1.30019367446286      1.18170020193845
  H   -0.12463369453757     -0.94824717123929      1.40240280605723
  C   -0.33719061917311      1.43722019592668     -0.99121741966384
  N   0.07042758938503      2.23004488677656     -1.75627089797442
  N   -1.56788312391269     -0.56337570638401     -0.78528370870638
  H   -2.29633730151394     -0.14354175971866     -1.35010694321983
  H   -1.98731790192838     -1.23257947076510     -0.14934361719589
  C   1.07730390889473      0.74589254906308      1.46767467256909
  N   1.72961821695179      1.51429012268889      2.06977932810821
  C   1.27399423394345     -0.99322225439061     -0.25749301053703
  H   0.72276996662546     -1.74564234780097     -0.81886332190450
  H   2.06496121241869     -1.47684422655291      0.31819053120826
  H   1.73789047330277     -0.29795953556663     -0.95972498708418
