15
Coordinates from ORCA-job run
  C   -0.85284639976261      0.37188662615265      0.02890204081640
  C   0.52112503743685     -0.05255360107365      0.59943532486519
  Cl  -2.12130568379608     -0.62585077369520      0.93274533868269
  H   0.45106555827847      0.02807331742705      1.68878088489974
  C   -1.13732784331156      1.76606871514106      0.38073568108969
  N   -1.36197824540450      2.88436005588181      0.66195599657128
  N   -0.89826375275466      0.21652626642118     -1.37432300043345
  H   -1.73974161197085      0.60979348973763     -1.77630709618200
  H   -0.81092441845131     -0.75334615457337     -1.64876089955041
  C   1.53774186588127      0.89628830666389      0.13760696167377
  N   2.38136969829952      1.62835689739402     -0.22455862433912
  C   0.92240000676054     -1.47903425468341      0.21437817356770
  H   0.14300951793577     -2.18818046082019      0.49425819380588
  H   1.12611354600492     -1.55207166729977     -0.85511313516941
  H   1.83856272485424     -1.74931676267374      0.74126415970204
