15
Coordinates from ORCA-job run
  C   -0.90977695688311      0.48251874556731      0.05662518929695
  C   0.31092560595669     -0.24441530626889      0.68751320238624
  Cl  -1.84511976099855      1.20716161706640      1.40932962106350
  H   -0.10858428917400     -0.97493681944885      1.39019936579788
  C   -0.43274814576878      1.55981373175252     -0.81845311116366
  N   -0.00881095008098      2.37351871876311     -1.55213816657189
  N   -1.80126697599704     -0.35541934229795     -0.69518323125391
  H   -2.07962992520871     -1.16857492167924     -0.15879827694994
  H   -1.39798060117033     -0.63193966135559     -1.58121714950491
  C   1.13508214457109      0.69244506425445      1.45159994476477
  N   1.83261051288596      1.43313341629596      2.03803670853195
  C   1.16277699208261     -0.95764001086060     -0.36558593667062
  H   1.55855369957084     -0.24561034082395     -1.09301276498767
  H   0.57745374234973     -1.71740722406160     -0.88527768312879
  H   2.00651490786458     -1.45364766690310      0.11636228839010
