15
Coordinates from ORCA-job run
  C   -0.85304610843237      0.37079500111965      0.02644186819755
  C   0.51846849146802     -0.05481481671942      0.60188344634861
  Cl  -2.12499322690837     -0.63059641648851      0.92102282211973
  H   0.44335765753420      0.02114757265305      1.69125995858421
  C   -1.14035752444967      1.76355845873254      0.38137422742958
  N   -1.36742344720047      2.88061236979513      0.66552213397786
  N   -0.89165728275829      0.21988511469319     -1.37748887613257
  H   -1.72970683698651      0.61674136831152     -1.78286339680959
  H   -0.80582693501265     -0.74942853093521     -1.65430824564443
  C   1.53651280142483      0.89697742571290      0.14929223899855
  N   2.38122935833732      1.63140528175180     -0.20532250267967
  C   0.92259509833758     -1.47933148955335      0.21264890637760
  H   1.83606908002410     -1.75146587830390      0.74326592757527
  H   1.13169135476079     -1.54743851485300     -0.85612687149757
  H   0.14208751986149     -2.19004694591639      0.48539836315487
