15
Coordinates from ORCA-job run
  C   -0.90759005445776      0.48663792632816      0.02119988830208
  C   0.29379098004863     -0.22708714616151      0.70184446241727
  Cl  -1.87400561067786      1.24986568937916      1.33039328786479
  H   -0.14547600696315     -0.93686134158163      1.41367157318661
  C   -0.40574099810538      1.53947436813910     -0.86970612492102
  N   0.01957193843897      2.33605117606091     -1.62105758440380
  N   -1.78279236966583     -0.36796800387343     -0.73068590087486
  H   -1.35984862526856     -0.66641905193189     -1.60024656500841
  H   -2.07575305788787     -1.16733986059726     -0.18154504287390
  C   1.10238156339880      0.72682363974986      1.46170400628173
  N   1.78947086105422      1.47776634906524      2.04749599955804
  C   1.16884154836494     -0.97093141029818     -0.31006525197413
  H   1.99730158792628     -1.45812871141891      0.20615058585665
  H   1.58685804020460     -0.27981106466805     -1.04518425695683
  H   0.59299020358994     -1.74107255819156     -0.82496907645423
