15
Coordinates from ORCA-job run
  C   -0.84230720864233      0.41448315894983     -0.04815539176279
  C   0.33657902241125     -0.26511061181130      0.68276558703135
  Cl  -1.86434034577477      1.24869933122185      1.22586184386416
  H   -0.11278268808765     -0.99271415259228      1.37061260644093
  C   -0.35273032374772      1.46349008554597     -0.94697743221519
  N   0.05255647878147      2.28338635547518     -1.68416930318234
  N   -1.56668020035104     -0.55270691188050     -0.79682662384080
  H   -1.97742835740849     -1.24447636146170     -0.17960844799081
  H   -2.30162261674808     -0.12239496106650     -1.34516809615372
  C   1.07494961315474      0.70859869681786      1.48769371987512
  N   1.72043294769423      1.46218961629315      2.11516219421541
  C   1.28153959244060     -0.97261483356780     -0.29343047935347
  H   2.07838452675268     -1.46761788193961      0.26418498523671
  H   0.73476259200581     -1.71113618813230     -0.87708319639174
  H   1.73768696751929     -0.25107534185182     -0.97386196577283
