15
Coordinates from ORCA-job run
  C   -0.75609647486571      0.51692718955163     -0.20997798897591
  C   0.37691566827576     -0.48203741033622      0.16821417779348
  Cl  -0.51575844229870      2.03232215432452      0.71784562469740
  H   0.19200934752059     -1.36908233882342     -0.45267884112300
  C   -0.62691052754907      0.81964924820448     -1.64182267939921
  N   -0.50484429249140      0.99580609911817     -2.79675687025944
  N   -2.09628285366108      0.06039475465852      0.04263564741638
  H   -2.31415622679354     -0.74837906434966     -0.52871669312227
  H   -2.21359986605697     -0.16786423834386      1.02401709402572
  C   0.18885074549085     -0.88449659096769      1.56236050916918
  N   0.02285153323418     -1.20356435798083      2.68034803082976
  C   1.79735888826608      0.02000608884977     -0.09125835839172
  H   2.51176634403260     -0.78148306347678      0.10390355454805
  H   1.90213379014531      0.32820545786273     -1.13328530119383
  H   2.03576236675109      0.86359607170860      0.55517209398540
