15
Coordinates from ORCA-job run
  C   -0.74998366206894      0.51916421997984     -0.22522380379923
  C   0.36918990005302     -0.47725948387875      0.19749184214395
  Cl  -0.41864221400281      2.10801428761218      0.53682945124143
  H   0.12661954902139     -1.41325102549603     -0.32382139400947
  C   -0.68263274013783      0.67680004981507     -1.68452746039654
  N   -0.61007138111303      0.73794095089373     -2.85525730460626
  N   -2.08947728428886      0.13651079388018      0.13250223796985
  H   -2.35938635710914     -0.71638341701814     -0.34470661571918
  H   -2.16566573160963      0.01022553741224      1.13609508878472
  C   0.23837629653078     -0.73531245667908      1.63188900335147
  N   0.12755071350152     -0.92698430410270      2.78516470309621
  C   1.78969524791679     -0.05328601859107     -0.17572097387458
  H   2.08560119197846      0.83979144122307      0.37316339469798
  H   2.48797428019548     -0.85695949808556      0.06378016497356
  H   1.85185219113276      0.14898892303501     -1.24665833385391
