18

C	0.0	0.0	0.0
C	-0.420938	-0.055042	-1.526234
Br	1.944908	0.0	0.0
H	0.468927	-0.345719	-2.091527
N	-0.613118	0.925992	0.855064
H	-1.638996	0.684723	0.738897
H	-0.455666	1.856861	0.487447
N	-0.288892	-1.424985	0.599444
O	-1.045552	-1.490485	1.55632
O	0.274731	-2.370183	0.067163
C	-0.860448	1.348231	-1.957046
H	-0.112232	2.124185	-1.751689
H	-1.044645	1.340943	-3.037643
H	-1.799551	1.563263	-1.444022
N	-1.436349	-1.069593	-1.76708
H	-1.702376	-1.004075	-2.744077
H	-2.247612	-0.796306	-1.177223
F	-2.962156	0.0	0.0
