18

C	0.0	0.0	0.0
C	-0.373638	-0.084916	-1.541848
Br	1.987273	0.0	0.0
H	0.504602	-0.514588	-2.027515
N	-0.652807	0.973028	0.712848
H	-1.690325	0.74443	0.510678
H	-0.479097	0.850904	1.705146
N	-0.215878	-1.438717	0.636283
O	-0.634558	-1.472996	1.787605
O	0.067969	-2.424404	-0.037007
C	-0.589284	1.339658	-2.040618
H	0.215377	2.01371	-1.738905
H	-0.664162	1.312762	-3.129823
H	-1.531499	1.706804	-1.630973
N	-1.507391	-0.893663	-1.930773
H	-1.290108	-1.863289	-1.738006
H	-2.294744	-0.616386	-1.317555
F	-2.9498	0.0	0.0
