18

C	0.0	0.0	0.0
C	-0.232592	-0.006965	-1.566795
Br	1.960244	0.0	0.0
H	0.41363	0.828192	-1.853331
N	-0.655195	1.053364	0.603165
H	-1.716716	0.754456	0.416443
H	-0.460945	1.03931	1.600162
N	-0.361049	-1.356869	0.690558
O	-0.239351	-1.36635	1.912549
O	-0.773466	-2.29749	0.023335
C	-1.596315	0.322133	-2.160356
H	-2.333812	-0.438675	-1.931227
H	-1.995011	1.259318	-1.777552
H	-1.432799	0.409338	-3.245103
N	0.36031	-1.202717	-2.179167
H	-0.321972	-1.947726	-2.121852
H	0.514653	-0.995029	-3.15993
F	-2.864833	0.0	0.0
