18

C	0.0	0.0	0.0
C	-0.215117	-0.148053	-1.579865
Br	1.951892	0.0	0.0
H	0.327706	0.744134	-1.922117
N	-0.650544	1.063888	0.617434
H	-0.465842	1.901663	0.075002
H	-1.70403	0.756152	0.480978
N	-0.422183	-1.269479	0.746807
O	-0.408433	-1.224085	1.967924
O	-0.714698	-2.259406	0.081807
C	-1.614368	-0.047255	-2.177442
H	-2.212387	-0.917117	-1.92541
H	-1.47094	0.022429	-3.266053
H	-2.178352	0.805096	-1.816777
N	0.513387	-1.294394	-2.144037
H	-0.075347	-2.109349	-2.024998
H	0.608795	-1.127213	-3.139662
F	-2.869733	0.0	0.0
