18

C	0.0	0.0	0.0
C	-0.412916	0.069991	-1.507857
Br	2.013448	0.0	0.0
H	0.478636	-0.189109	-2.081972
N	-0.65261	0.880172	0.822919
H	-0.480402	0.634409	1.791459
H	-1.689276	0.675195	0.600503
N	-0.182094	-1.51624	0.484881
O	-0.798026	-1.665917	1.536455
O	0.31496	-2.410601	-0.178719
C	-0.824943	1.507206	-1.843564
H	-0.087612	2.247573	-1.520426
H	-1.780953	1.70329	-1.358532
H	-0.954691	1.587052	-2.929106
N	-1.427969	-0.923881	-1.83625
H	-1.642146	-0.814506	-2.822008
H	-2.25885	-0.677262	-1.268459
F	-2.964314	0.0	0.0
