18

C	0.0	0.0	0.0
C	-0.385472	0.219209	-1.530098
Br	1.969978	0.0	0.0
H	0.499741	-0.086618	-2.091183
N	-0.643774	0.822452	0.892933
H	-0.46154	0.515133	1.842348
H	-1.680499	0.639023	0.6565
N	-0.22453	-1.531913	0.34693
O	0.055867	-2.371014	-0.503113
O	-0.636142	-1.784501	1.473677
C	-0.626065	1.710561	-1.736253
H	0.170427	2.324429	-1.309634
H	-1.570973	1.974242	-1.258697
H	-0.706966	1.897149	-2.809203
N	-1.502309	-0.515978	-2.078025
H	-1.272979	-1.500584	-2.065474
H	-2.294057	-0.369258	-1.426917
F	-2.934654	0.0	0.0
