18

C	0.0	0.0	0.0
C	-0.436516	-0.190491	-1.494745
Br	1.952291	0.0	0.0
H	0.448278	-0.546477	-2.027758
N	-0.662246	1.010691	0.659834
H	-0.468496	0.959534	1.653447
H	-1.693755	0.765589	0.49445
N	-0.217307	-1.416845	0.73491
O	-0.871966	-1.381043	1.772174
O	0.294525	-2.41434	0.253751
C	-0.851513	1.168733	-2.069314
H	-0.10615	1.950337	-1.893097
H	-1.799365	1.451428	-1.609694
H	-0.998941	1.059289	-3.149851
N	-1.453831	-1.223506	-1.633122
H	-2.283501	-0.881059	-1.114011
H	-1.670068	-1.300208	-2.620437
F	-3.001892	0.0	0.0
