15

C	-0.56693	0.014133	-1.421839
C	0.0	0.0	0.0
Cl	0.147565	-1.359389	-2.333004
H	1.097336	0.0	0.0
H	-0.345106	-0.928564	0.466142
C	-2.084175	-0.133408	-1.430997
H	-2.346739	-1.09249	-0.9782
H	-2.514005	0.674796	-0.839292
H	-2.474492	-0.106169	-2.449477
C	-0.193798	1.256884	-2.103685
N	0.031948	2.280144	-2.635031
N	-0.550635	1.153519	0.729422
H	0.114361	1.914201	0.63124
H	-0.563307	0.92557	1.716126
Br	3.651278	0.0	0.0
