15

C	-0.44108	0.001597	-1.461743
C	0.0	0.0	0.0
Cl	-0.062326	1.607315	-2.198879
H	1.093022	0.0	0.0
H	-0.333762	-0.957787	0.416484
C	0.324561	-1.064268	-2.234921
H	1.393606	-0.885265	-2.099204
H	0.078051	-2.049644	-1.830249
H	0.067263	-1.038501	-3.295055
C	-1.889651	-0.188405	-1.5784
N	-3.037166	-0.416746	-1.685532
N	-0.628622	1.079097	0.756956
H	-0.096106	1.924703	0.585923
H	-0.51773	0.873736	1.742708
Br	3.649379	0.0	0.0
