15

C	-0.572522	0.01788	-1.420099
C	0.0	0.0	0.0
Cl	0.143444	-1.349593	-2.340223
H	1.097418	0.0	0.0
H	-0.344763	-0.929664	0.463994
C	-2.089197	-0.133755	-1.422749
H	-2.517404	0.674876	-0.830289
H	-2.349236	-1.092932	-0.969106
H	-2.481676	-0.105375	-2.440841
C	-0.216063	1.264701	-2.102754
N	-0.010879	2.289518	-2.639178
N	-0.548953	1.152253	0.733205
H	0.116032	1.91311	0.635697
H	-0.560147	0.922829	1.719597
Br	3.638815	0.0	0.0
