15

C	-0.458738	-0.047678	-1.464391
C	0.0	0.0	0.0
Cl	-0.092231	1.544463	-2.227667
H	1.092578	0.0	0.0
H	-0.36251	0.926342	0.459196
C	0.27312	-1.143506	-2.223029
H	-0.025137	-1.161626	-3.273025
H	1.346454	-0.957533	-2.136288
H	0.036785	-2.099344	-1.752671
C	-1.912509	-0.226847	-1.530126
N	-3.076814	-0.384748	-1.561331
N	-0.458529	-1.213523	0.671884
H	0.298427	-1.584155	1.231154
H	-1.247304	-1.026608	1.27459
Br	3.613446	0.0	0.0
