15

C	-0.451959	-0.023615	-1.467159
C	0.0	0.0	0.0
Cl	-0.120551	1.594054	-2.191514
H	1.097796	0.0	0.0
H	-0.366185	0.916324	0.475999
C	0.309759	-1.083536	-2.24733
H	1.3778	-0.873333	-2.15219
H	0.097248	-2.055007	-1.798443
H	0.014877	-1.086417	-3.29847
C	-1.900805	-0.236038	-1.544401
N	-3.061336	-0.417917	-1.579315
N	-0.452837	-1.229796	0.6455
H	0.2972	-1.594234	1.217686
H	-1.259035	-1.063821	1.231804
Br	3.619112	0.0	0.0
