15

C	-0.575162	-0.00224	-1.419133
C	0.0	0.0	0.0
Cl	0.145731	-1.377589	-2.324683
H	1.097309	0.0	0.0
H	-0.343806	-0.923315	0.477371
C	-2.091166	-0.161268	-1.416744
H	-2.345606	-1.116886	-0.952362
H	-2.521703	0.651818	-0.831791
H	-2.486264	-0.145937	-2.434051
C	-0.226364	1.23809	-2.117493
N	-0.026758	2.258592	-2.664233
N	-0.549772	1.16143	0.718403
H	-0.556943	0.945394	1.707924
H	0.112765	1.922504	0.607453
Br	3.638114	0.0	0.0
