15

C	-0.38832	-0.034378	-1.499496
C	0.0	0.0	0.0
Cl	-0.074599	1.59331	-2.201517
H	1.094536	0.0	0.0
H	-0.384769	0.920599	0.444828
C	0.445554	-1.060118	-2.254764
H	0.218947	-1.043574	-3.322505
H	1.500415	-0.832385	-2.083711
H	0.233322	-2.057468	-1.86445
C	-1.821722	-0.296667	-1.651071
N	-2.969823	-0.539812	-1.72411
N	-0.441133	-1.153657	0.75998
H	-1.397429	-1.416915	0.562105
H	0.173668	-1.938389	0.604037
Br	3.640664	0.0	0.0
