15

C	-0.353111	0.07542	-1.501124
C	0.0	0.0	0.0
Cl	-2.149164	0.327975	-1.712735
H	1.095097	0.0	0.0
H	-0.387847	-0.934051	0.413623
C	0.386164	1.210043	-2.190363
H	0.094628	2.158432	-1.736306
H	0.155384	1.2414	-3.256211
H	1.458843	1.055243	-2.035635
C	-0.058284	-1.203242	-2.146089
N	0.165601	-2.23473	-2.662704
N	-0.426837	1.129177	0.801688
H	0.229358	1.89176	0.703574
H	-1.355563	1.442825	0.551578
Br	3.589387	0.0	0.0
