15

C	-0.503942	-0.021208	-1.463059
C	0.0	0.0	0.0
Cl	0.146158	-1.473249	-2.304825
H	1.09299	0.0	0.0
H	-0.343935	0.949714	0.428077
C	-2.026199	-0.06591	-1.569474
H	-2.403834	-0.986004	-1.121445
H	-2.45456	0.794514	-1.047552
H	-2.34028	-0.042211	-2.613914
C	-0.028292	1.167787	-2.172536
N	0.254107	2.156977	-2.740655
N	-0.433708	-1.099729	0.835145
H	0.111126	-1.92361	0.619736
H	-1.416599	-1.31236	0.735198
Br	3.62986	0.0	0.0
