15

C	0.0	0.0	0.0
C	-0.403741	-0.104625	-1.514645
Br	2.018255	0.0	0.0
H	0.501901	-0.328724	-2.081541
N	-0.547394	1.149382	0.61995
H	-0.345844	1.114842	1.614782
H	-1.583455	0.953824	0.478783
C	-0.29636	-1.269518	0.693578
N	-0.424306	-2.237843	1.348678
C	-0.842367	1.225656	-2.000891
N	-1.157113	2.217272	-2.548173
N	-1.343907	-1.183564	-1.740007
H	-2.178725	-0.908664	-1.182402
H	-1.564799	-1.213613	-2.729472
F	-2.768639	0.0	0.0
