15

C	0.0	0.0	0.0
C	-0.516431	-0.155188	-1.448172
Br	1.946391	0.0	0.0
H	-1.606265	-0.263049	-1.251982
N	-0.576037	1.199205	0.526985
H	-0.317151	1.289633	1.50417
H	-1.613293	0.942551	0.451869
C	-0.346748	-1.217856	0.764402
N	-0.579808	-2.179798	1.399113
C	0.010635	-1.357276	-2.094771
N	0.375106	-2.314369	-2.670908
N	-0.158424	1.039539	-2.223317
H	-0.264876	1.811865	-1.569392
H	-0.87383	1.157956	-2.933174
F	-2.787083	0.0	0.0
