15

C	0.0	0.0	0.0
C	-0.411775	-0.191005	-1.527388
Br	1.957963	0.0	0.0
H	0.488175	-0.42161	-2.102485
N	-0.524724	1.127152	0.697287
H	-0.30928	1.96731	0.168593
H	-1.556288	0.931148	0.618417
C	-0.360053	-1.21486	0.752656
N	-0.544723	-2.150956	1.437429
C	-0.880936	1.119888	-2.029765
N	-1.193839	2.130271	-2.542263
N	-1.347966	-1.28164	-1.690421
H	-1.595868	-1.351781	-2.671933
H	-2.171143	-0.986482	-1.122601
F	-2.751785	0.0	0.0
