15

C	0.0	0.0	0.0
C	-0.440404	-0.161208	-1.497008
Br	2.0082	0.0	0.0
H	0.460219	-0.333393	-2.090037
N	-0.510421	1.192961	0.580512
H	-0.273035	1.204299	1.567166
H	-1.546278	1.011896	0.479923
C	-0.30602	-1.227021	0.763675
N	-0.428002	-2.164036	1.464109
C	-1.011142	1.109389	-1.999216
N	-1.433695	2.040712	-2.577954
N	-1.303054	-1.315095	-1.666801
H	-1.535393	-1.39705	-2.650514
H	-2.146382	-1.06153	-1.117224
F	-2.718573	0.0	0.0
