15

C	0.0	0.0	0.0
C	-0.231399	-0.017841	-1.603555
Br	1.954702	0.0	0.0
H	0.370815	-0.866556	-1.955055
N	-0.623418	1.033987	0.732459
H	-0.436255	1.921247	0.272904
H	-1.649383	0.793628	0.62685
C	-0.408642	-1.312627	0.515479
N	-0.638646	-2.400629	0.894034
C	0.37708	1.210894	-2.140837
N	0.775766	2.234585	-2.559139
N	-1.585949	-0.122964	-2.10282
H	-1.885984	0.791605	-2.419038
H	-2.230289	-0.302344	-1.286143
F	-2.940614	0.0	0.0
