13
Coordinates from ORCA-job run
  C   -0.69370767756949     -0.09077036362654      0.04133552903707
  C   0.76167296278948     -0.08806995751972     -0.42424079831747
  Cl  -1.62128005133705     -0.76392304352827     -1.41268961399370
  H   1.06178501701211     -1.09601811454594     -0.70605877299758
  H   0.90465373314197      0.61071386549056     -1.24629022488797
  N   -0.82842398045213     -0.84237525430243      1.22430466417431
  H   -1.77397217830080     -0.85203041825191      1.58254022791937
  H   -0.46729710891042     -1.78352433444437      1.13318595197492
  C   -1.21966528284497      1.26066370603861      0.25068154171538
  N   -1.67355209594617      2.33043155111382      0.42066670510806
  N   1.63954742060109      0.33422039719364      0.70513351662203
  O   1.65036216841443      1.53234198903043      0.97136921455210
  O   2.25987707340195     -0.55166002264788      1.28706205909347
