13
Coordinates from ORCA-job run
  C   -0.67660183326393     -0.03176822665094      0.07347603709664
  C   0.68082778113323      0.68099545621351      0.07885099802607
  Cl  -1.06764145731919     -0.61921461074055     -1.57318560766416
  H   0.80876005978145      1.22452000276563      1.01537332361293
  H   0.76535527972551      1.34525242607301     -0.77875462368319
  N   -0.64367184309580     -1.16252732070032      0.95245405425528
  H   -0.29647480849577     -0.91237729386709      1.87122000242521
  H   -1.55553842596499     -1.59526070126704      1.02749727272318
  C   -1.69299187340009      0.98514800491537      0.41228401054284
  N   -2.48781109065196      1.78146178744581      0.75393611322951
  N   1.78538883947478     -0.31543358324499      0.01016198907877
  O   2.24094392174753     -0.69688231265355      1.08629467653228
  O   2.13945545032923     -0.68391362828884     -1.10460824617537
