13
Coordinates from ORCA-job run
  C   -0.81144344273375     -0.08325544627895      0.05644826481833
  C   0.64118172589828     -0.17216405638913     -0.42813899864645
  Cl  -1.76675759543672     -0.66024739191320     -1.35867948183687
  H   0.81216953091376      0.43727569076991     -1.31597533182708
  H   0.89793446264609     -1.20892908801703     -0.65385061780330
  N   -1.18174440627398     -0.88236111732302      1.18852553840607
  H   -0.96440118713012     -1.85793643048964      1.02309539480303
  H   -0.69782278577788     -0.54981632586546      2.01338780602213
  C   -1.17079763852024      1.31837251656994      0.30369610178655
  N   -1.43544965587813      2.44911245058950      0.47713330788947
  N   1.63829393304185      0.29275014488563      0.59270036671314
  O   2.80542228893984      0.28666830547834      0.22336496764094
  O   1.23341477031100      0.63153074798311      1.70329268203405
