13
Coordinates from ORCA-job run
  C   -0.61910852441751     -0.09044156228214      0.22665950877365
  C   0.88047703177598     -0.31360266574419      0.40352445377416
  Cl  -0.90305433058704      0.35993538901041     -1.52715818359771
  H   1.19249013364645     -1.18510435701464     -0.16987500334384
  H   1.09664274870362     -0.44401796948352      1.46489818882217
  N   -1.27393115387058     -1.29136217896383      0.61996108190816
  H   -1.03382521321891     -2.05641591030101      0.00064868233921
  H   -2.28001199558126     -1.17892789092790      0.63667100103012
  C   -1.14019366119107      1.01263363054220      1.03853187956233
  N   -1.63119198355493      1.83650683874729      1.71629746942471
  N   1.69681243622308      0.83372715064329     -0.08133433162786
  O   1.44569583960432      1.92967729425264      0.40996037468500
  O   2.56719867246786      0.58739223152141     -0.91078512175012
