13
Coordinates from ORCA-job run
  C   -0.74720513527971      0.03094424089325      0.23344734247863
  C   0.69874035316540      0.56722887029740      0.14744775667934
  Cl  -1.20111513899581     -0.48953260664324     -1.43081835687933
  H   0.76241068832144      1.42697774023512     -0.51618594291191
  H   1.04980167725563      0.81570677080963      1.15149616106020
  N   -1.01402845340574     -1.03905610323535      1.14486442214963
  H   -1.05378860192142     -0.70275568450213      2.09915577115574
  H   -0.30766004466297     -1.75934776047284      1.05743420887080
  C   -1.58372438125855      1.18196202220337      0.59599379740493
  N   -2.20564939741039      2.12233146617448      0.92533488346740
  N   1.63239157204897     -0.45969604611388     -0.39617363015225
  O   1.68335483942180     -1.53493640026084      0.20058788527619
  O   2.28647202272139     -0.15782650938498     -1.38758429859936
