13
Coordinates from ORCA-job run
  C   -0.72386751383830     -0.18043540135060      0.01710899380946
  C   0.73269922415398     -0.19094253208960     -0.43620848526027
  Cl  -1.65865103153035     -0.75381232173685     -1.40546123581438
  H   0.87119293000736      0.39018265436596     -1.34654523767329
  H   1.04139513639805     -1.22477921757840     -0.59950465938504
  N   -0.94158672340700     -1.11645739125892      1.08703402138802
  H   -1.93125037114078     -1.18602563137467      1.29404057248568
  H   -0.45089029883454     -0.78845026342893      1.91151829130766
  C   -1.16999162589219      1.19842215486365      0.29218554612562
  N   -1.53135544404308      2.28683742866203      0.54994866584383
  N   1.67796680891008      0.38660694518456      0.57372039190285
  O   1.28358701524435      0.53775425284481      1.72904170332128
  O   2.80075189397241      0.64209932289694      0.15912143194859
