13
Coordinates from ORCA-job run
  C   -0.80297286356752     -0.13370287387859      0.06695352006036
  C   0.63955327533011     -0.07449032867414     -0.47490205128366
  Cl  -1.80203028610972     -0.55708327268605     -1.36468322420505
  H   0.71677360844517      0.58689750881282     -1.33497231582074
  H   0.97346986710219     -1.08350158516375     -0.72287034177842
  N   -1.09304681745422     -1.08853454001744      1.09878653965884
  H   -0.91262426345875     -2.02686327481929      0.75965870887833
  H   -0.49857051806554     -0.91023960987282      1.90088827021068
  C   -1.18905135325082      1.20633260933624      0.52927954394079
  N   -1.44644484163499      2.28711973124546      0.91037889176341
  N   1.57285501768546      0.46502592747129      0.55974160729872
  O   1.61228506990852     -0.12767452035108      1.63769501203522
  O   2.22880410507011      1.45771422859735      0.26104583924150
