13
Coordinates from ORCA-job run
  C   -0.69569444975994     -0.03964643019541      0.15976046657169
  C   0.79164631636571     -0.34861033143166      0.37837814069041
  Cl  -0.97257726399819      0.03010444829834     -1.61093870843526
  H   1.01865264597226     -1.32686122814321     -0.04251183324602
  H   1.01467710878215     -0.31561509783270      1.44705306505715
  N   -1.55687728990212     -1.05778096407212      0.70559463112208
  H   -1.55401298974506     -1.03733540313219      1.71844141177700
  H   -1.29643595900823     -1.97649751921860      0.36736903897463
  C   -1.08781249348861      1.24267904189231      0.75509961002908
  N   -1.44828817189280      2.22281788294237      1.29214420130881
  N   1.70314771897074      0.62657963763724     -0.28656781797868
  O   1.61242335243589      1.79503671078498      0.07963409766979
  O   2.47015147526821      0.18512925247064     -1.13745630354069
