13
Coordinates from ORCA-job run
  C   -0.62370858079666     -0.09001150399648      0.16953735747118
  C   0.88191598035798     -0.32140057212546      0.05452366771696
  Cl  -1.20569979396192      0.70156412630260     -1.32123286012439
  H   1.06881731487413     -0.91485500609158     -0.83689097156792
  H   1.24735362356005     -0.81819619854592      0.95538307606813
  N   -1.23656967111245     -1.40043891794568      0.24601287270595
  H   -1.02853450139989     -1.81876843846197      1.14789160476465
  H   -2.24379921529370     -1.31179310706490      0.16617960471479
  C   -0.98154299766318      0.78010514849976      1.30319208378619
  N   -1.35224422855530      1.37985009585703      2.24399365353824
  N   1.63802321155206      0.95430387276747     -0.07218950944908
  O   1.70557271595329      1.65169228796652      0.93792473134865
  O   2.12941614248559      1.20894821283862     -1.16832531097337
