13
Coordinates from ORCA-job run
  C   -0.79759284386410     -0.04779280240941      0.00784669560946
  C   0.67621419479180     -0.20267357303766     -0.38753288730801
  Cl  -1.68976302635539     -0.58613945757306     -1.46316933555361
  H   0.92769567900462      0.39584869719815     -1.26349155853185
  H   0.90004086382652     -1.25032957993518     -0.59712277148966
  N   -1.27154385276969     -0.82601219222110      1.11541496328068
  H   -1.08835422786810     -1.81086968394208      0.96391349203379
  H   -0.82454240002860     -0.51260596175471      1.96825430800296
  C   -1.10966826793809      1.36890333752938      0.23186070340851
  N   -1.33759704316793      2.51003804401617      0.38924264803715
  N   1.62911270072238      0.22047437268837      0.69184971386254
  O   1.17280845735759      0.58071307990124      1.77533774447840
  O   2.81518976628899      0.16044571953989      0.39459628416965
