13
Coordinates from ORCA-job run
  C   -0.73382961838963     -0.01380525499213      0.14929615005841
  C   0.68570097248408      0.59451642841053      0.17723815810175
  Cl  -0.97110038499102     -0.68589871950012     -1.50620543341138
  H   0.90934530209598      0.93754285058776      1.18981158163377
  H   0.78340901601440      1.40282140501171     -0.54438405862740
  N   -1.05084255928263     -1.02368565411198      1.11123813281819
  H   -0.30601018885315     -1.70766891319901      1.16310731736226
  H   -1.21799687309709     -0.61886408222174      2.02412647835888
  C   -1.66105193164512      1.11139488686574      0.32260173938523
  N   -2.37844297118417      2.02147114823040      0.51431005478899
  N   1.72111729204013     -0.41837747155346     -0.17479005783428
  O   2.46088549829618     -0.16425459724005     -1.11822474192254
  O   1.75981644651205     -1.43519202628765      0.51787467928813
