13
Coordinates from ORCA-job run
  C   -0.68639585327127     -0.03120495256620      0.24854103532549
  C   0.66975545276427      0.66703160483761      0.12193730634109
  Cl  -0.90939218050611     -1.02425378759925     -1.29316884942488
  H   0.67716288156771      1.35047763588803     -0.72319000468239
  H   0.88902155158422      1.18610755066757      1.05733856331546
  N   -0.81239844249965     -0.76348852703423      1.44677568552676
  H   -0.06307191292408     -1.43608796121625      1.54866760141851
  H   -1.71722993871419     -1.20844322617041      1.52683886258086
  C   -1.72017789487132      1.00916915027452      0.19840929721914
  N   -2.52657760496146      1.86282247867373      0.17631137735324
  N   1.78312153644052     -0.30076962569468     -0.11026942828201
  O   1.86848758034670     -1.25331236117086      0.66365433766653
  O   2.54769482504467     -0.05804797888957     -1.03584578435780
