13
Coordinates from ORCA-job run
  C   -0.60396903317542     -0.11315579124063      0.10869941268465
  C   0.89633233877262     -0.36202821680646      0.25213226168611
  Cl  -0.95567595677220      0.34826446005964     -1.58000801395152
  H   1.12498680149276     -0.65183061469567      1.27969108781243
  H   1.18293605859904     -1.13440928574503     -0.45705287525018
  N   -1.25778248068574     -1.37945811649010      0.36956512970486
  H   -1.18585852840471     -1.59939601732966      1.35857748342203
  H   -2.24207264553083     -1.31039239338974      0.13468580311854
  C   -1.08855357952225      0.97349330354365      0.97705089771919
  N   -1.56261583398471      1.75176066290783      1.71984402066041
  N   1.69928111212713      0.85625557091297     -0.04206025295324
  O   1.63440870044854      1.76521701861710      0.78279925831245
  O   2.35858304663577      0.85667941965611     -1.07792421296574
