13
Coordinates from ORCA-job run
  C   -0.68146895873856      0.00204556067042      0.19794297939002
  C   0.70011370492277      0.65735767573417      0.27024642062981
  Cl  -0.81293020448422     -0.75605478162566     -1.48307136010753
  H   0.78995980523800      1.45412737381740     -0.46360665169936
  H   0.86272604409477      1.02867733809320      1.28428499745097
  N   -0.92056760524159     -0.88554699411305      1.26662848568284
  H   -1.84265902690970     -1.29885825826832      1.21839481048868
  H   -0.20198625891599     -1.59595912265947      1.32191094736993
  C   -1.67743749175347      1.07906639310188      0.21787068130119
  N   -2.45524209941755      1.95855888811792      0.25078451426162
  N   1.80029155146198     -0.30953476437716     -0.02041781427527
  O   1.79012768331104     -1.37316792978676      0.59709671643926
  O   2.64807285643251      0.04028862129544     -0.83206472693214
