13
Coordinates from ORCA-job run
  C   -0.73190523739393      0.01192058169905      0.12990387476351
  C   0.69655422612533      0.58769515065469      0.24822905250895
  Cl  -0.93624325038752     -0.50703118427129     -1.58333533641615
  H   0.89763326627523      0.83725833826822      1.29235180170214
  H   0.82797324324937      1.45378928253354     -0.39690620973400
  N   -1.09189789669874     -1.07283338315910      0.99084255986304
  H   -0.35999534035877     -1.77264041036084      0.99970388133896
  H   -1.27211897370475     -0.74568665385749      1.93214921082242
  C   -1.64259716992937      1.13645322910176      0.37864449495243
  N   -2.33137473643790      2.05593293746471      0.62325969213899
  N   1.72375793861221     -0.41052575579701     -0.16412919190942
  O   1.72742344048914     -1.48357541797706      0.43886274873560
  O   2.49279049015970     -0.08975671429921     -1.06257657876647
