13
Coordinates from ORCA-job run
  C   -0.62552161921121     -0.05821819512651      0.32795579778673
  C   0.86195861464518     -0.34493741174507      0.13914362804519
  Cl  -1.19441980479989      0.87689511505052     -1.14240495727843
  H   1.00110125928906     -1.02422544915418     -0.70038629372427
  H   1.26025856968072     -0.77250146364448      1.06050006862546
  N   -1.27910911252946     -1.31120739435696      0.49432768942236
  H   -1.20822894160586     -1.87360376106945     -0.34546184939992
  H   -2.25498513992217     -1.19403683394926      0.73743471648484
  C   -0.91065303510093      0.77624289947877      1.49830146331411
  N   -1.21109874213117      1.38292258835948      2.45791237894295
  N   1.65270555996742      0.88001361576446     -0.16422560117640
  O   1.57037996765963      1.79830008622586      0.64547358315337
  O   2.33761242405869      0.86335620416681     -1.18257062419600
