13
Coordinates from ORCA-job run
  C   -0.72261429781709     -0.17293776716460      0.01070063409415
  C   0.70779931637521      0.01634398613974     -0.48405304074335
  Cl  -1.68550195215072     -0.51254183267779     -1.46714347440882
  H   0.76392783425341      0.77863899500063     -1.25955656435373
  H   1.07498195296087     -0.93709838942326     -0.86726671231221
  N   -0.82639350631771     -1.32059746669681      0.87148944749985
  H   -0.31894183393958     -1.13083806757944      1.72881590730150
  H   -1.79815674639415     -1.50326172678561      1.09375024181817
  C   -1.24577358413208      1.08379205068655      0.57880336267515
  N   -1.66820370151303      2.06686051429705      1.06536595164189
  N   1.66109963165204      0.44454511423651      0.59053737291852
  O   2.74510784264866      0.85690758291189      0.19975954974423
  O   1.31266904437418      0.33118700705516      1.76479732412466
