13
Coordinates from ORCA-job run
  C   -0.62294348246455     -0.08696502912370      0.30956531002664
  C   0.88098143757140     -0.30544966131313      0.16485611710998
  Cl  -1.19075821906033      0.82067382064284     -1.17822809628221
  H   1.27126494400031     -0.71437487298807      1.09798611238435
  H   1.07574651537804     -0.97695014037054     -0.66986493399824
  N   -1.22344282562010     -1.36839478717883      0.45910457761951
  H   -1.10167302629312     -1.92748006052184     -0.37710227678177
  H   -2.21077775816392     -1.29511223306943      0.67136142792799
  C   -0.97965736411472      0.73413813033523      1.46972751870819
  N   -1.33512701664680      1.32674674240316      2.41926121345419
  N   1.62322425383111      0.95471059825163     -0.11637398639478
  O   1.47836479225785      1.86640704384524      0.69195188691159
  O   2.33479774932481      0.97105044908746     -1.11624487068544
