13
Coordinates from ORCA-job run
  C   -0.70798925600317     -0.00788313029308      0.24519287292685
  C   0.79032202934724     -0.31034683130200      0.10681760550557
  Cl  -1.22067440770104      0.84798358807450     -1.24521151136421
  H   1.15514897054765     -0.76070784680362      1.03248582431948
  H   0.94338437742679     -0.97383801071402     -0.74289765950384
  N   -1.50318990505324     -1.20327743338405      0.36847001304713
  H   -1.30551705851580     -1.85224429284464     -0.38395117490024
  H   -1.36037660694657     -1.64773398850666      1.26762268732373
  C   -0.99589582499543      0.84163712630059      1.40610641642382
  N   -1.26520528930247      1.45069562314481      2.37329568896276
  N   1.61885424392354      0.90448957392311     -0.14181404587983
  O   1.60748124921000      1.76107581921639      0.73790604195477
  O   2.24465747806248      0.94914980318867     -1.19702275881598
