13
Coordinates from ORCA-job run
  C   -0.67592273735954      0.06438997648718      0.07906104540595
  C   0.76172301090637      0.59601546765292      0.10154787552947
  Cl  -1.14642726355434     -0.39803401601884     -1.58644593166504
  H   0.96264449207930      1.07589513750457      1.05981252826702
  H   0.92716399865294      1.28198036528106     -0.72680546045731
  N   -0.78471700797000     -1.09759437437124      0.91069729113259
  H   -1.74488502742602     -1.41094054061845      0.97779421543667
  H   -0.40562376648602     -0.93032729295200      1.83582962838418
  C   -1.55183053185466      1.18776706016363      0.46966357935820
  N   -2.23638529552127      2.06412674695184      0.85190216206203
  N   1.72944894505315     -0.52960180346883     -0.02206701725533
  O   2.02613831866542     -0.89170043137463     -1.15551887278646
  O   2.13967286481467     -1.01197629523720      1.03152895658803
