13
Coordinates from ORCA-job run
  C   -0.68523741232834      0.04989650817901      0.09960755221580
  C   0.73066245164983      0.63738031438702      0.13205320040875
  Cl  -1.17502252217902     -0.30893918167198     -1.58631305132577
  H   0.93434136017511      1.05239886513884      1.11957256449370
  H   0.84819443360401      1.38975588997304     -0.64513267627480
  N   -0.72882784685132     -1.17174523591533      0.84585051807216
  H   -0.32261195942597     -1.06301782753375      1.76787986383605
  H   -1.67353586672003     -1.52762209339589      0.91664160606899
  C   -1.59359852537825      1.10749610587697      0.58700300249022
  N   -2.28599229412780      1.94473406229594      1.03674949894716
  N   1.73878640950709     -0.43513935484456     -0.09631666171937
  O   2.18945545034716     -0.98013668861061      0.90914059745308
  O   2.02538632172752     -0.69606136387869     -1.25973601466597
