13
Coordinates from ORCA-job run
  C   -0.68411255559444     -0.04462466313516      0.23516816886155
  C   0.70614221575865      0.43002756646046     -0.19484577943274
  Cl  -0.88726640921999     -1.75122263318541     -0.44237159779182
  H   0.90824947303546      1.39830301064485      0.26823886606044
  H   0.77836077066133      0.48730172983952     -1.27787368243568
  N   -0.89338933078336      0.06857037005026      1.62538148451781
  H   -0.18491372758200     -0.43397748481011      2.14484914645404
  H   -1.82244133906069     -0.22793466473916      1.89412945087366
  C   -1.66737551096907      0.77923645232129     -0.47725455333965
  N   -2.43740505937930      1.46200482375940     -1.04328154034779
  N   1.78665782977283     -0.49970687335157      0.25036335108187
  O   2.62217210968928     -0.82037076343254     -0.58580640143739
  O   1.77732153367133     -0.84960687042183      1.42930308693570
