13
Coordinates from ORCA-job run
  C   -0.62271441746088     -0.06694874071906      0.35226938228383
  C   0.85597479250058     -0.32306214999897      0.07206131882574
  Cl  -1.26586645218676      0.97756909530351     -1.00961011565614
  H   0.95949977270699     -0.93151752019252     -0.82495148466150
  H   1.30000547748391     -0.81840105858257      0.93674297306607
  N   -1.26006104986600     -1.33569505742952      0.44722688643198
  H   -1.22717854741487     -1.82727568259799     -0.43816373988257
  H   -2.22365085203074     -1.24839723702251      0.74558453280645
  C   -0.85715156429222      0.66781159821927      1.59828696443888
  N   -1.11498692105686      1.19283398132885      2.61665600904225
  N   1.62377610223102      0.93019435302839     -0.16850300095651
  O   2.25744821393123      1.00304601046212     -1.21707644116618
  O   1.57590544545458      1.77884240820101      0.71647671542768
