13
Coordinates from ORCA-job run
  C   -0.70900811969302      0.01415904532085      0.30094380885883
  C   0.76349553581696     -0.31294198334358      0.01965212343633
  Cl  -1.30548685651935      1.00921118015095     -1.06799874775814
  H   0.82930741752939     -0.90311661724616     -0.89308083847129
  H   1.18426029527289     -0.85154920318729      0.87155690979958
  N   -1.53041842213782     -1.16662141664080      0.38473305816925
  H   -1.40886465134284     -1.75498383319537     -0.43090248915686
  H   -1.33792354885187     -1.68860118626726      1.23136149056188
  C   -0.88243984232824      0.76817821554138      1.54720124894022
  N   -1.06259478518587      1.29907919671016      2.57911931925199
  N   1.61013394213195      0.89705758810477     -0.18965564316711
  O   1.68890956284952      1.67694061254036      0.75549295894905
  O   2.16162947245831      1.01218840151198     -1.28042319941371
