13
Coordinates from ORCA-job run
  C   -0.77496803906470     -0.07814583232469     -0.01902245166501
  C   0.68722659030657     -0.13646161213759     -0.48758885021098
  Cl  -1.71637850928667     -0.53661686022753     -1.52021622515838
  H   0.91987623191327     -1.15078985003909     -0.80986605251154
  H   0.88028629239124      0.58741006395578     -1.27624915496323
  N   -1.08194861825479     -0.94075969544138      1.05963570449951
  H   -1.22792823281589     -0.47535489200904      1.94147555347437
  H   -0.45572494355363     -1.72718040144352      1.14760479520882
  C   -1.15880963142409      1.29538791576159      0.31622393913137
  N   -1.45963233897855      2.39066821479775      0.61542969712395
  N   1.58375448996418      0.17921988658537      0.65888605528749
  O   1.89980671570548     -0.76260323126006      1.38612444705298
  O   1.90443999309757      1.35522629378241      0.81356254273066
