13
Coordinates from ORCA-job run
  C   -0.63507800563124     -0.05441368313404      0.21658532465826
  C   0.84509097775910     -0.31993462860271     -0.05132207090084
  Cl  -1.30095573344899      0.91885206796304     -1.12412786664467
  H   1.26376948660799     -0.92145506640253      0.75798486014505
  H   0.93319349901919     -0.82090856212414     -1.01199223762721
  N   -1.29405170802384     -1.34465256271631      0.20005247198041
  H   -1.03251959860039     -1.86821807705997      1.03020350890659
  H   -2.29981078365906     -1.21456135599349      0.21567653718828
  C   -0.86461154238401      0.69221744925120      1.46544727360692
  N   -1.12826728919355      1.18729741700527      2.49868968809100
  N   1.64040587919095      0.93688367993472     -0.11144715244297
  O   2.07062244207421      1.27619129199593     -1.21030421183481
  O   1.80121237628964      1.53270202988302      0.95155387487399
