13
Coordinates from ORCA-job run
  C   -0.63426776733628     -0.05944117146930      0.21490663505183
  C   0.84882973196721     -0.31260368727552     -0.04882806322353
  Cl  -1.30352149763698      0.91149383598471     -1.12606334642059
  H   0.94377108850258     -0.81224091868867     -1.00956624725936
  H   1.27004885666529     -0.91120031508624      0.76137246710776
  N   -1.28314339059745     -1.35447066525230      0.19356041042241
  H   -2.28994592782813     -1.23243265493985      0.20645348648253
  H   -1.01962621894341     -1.87850751362681      1.02276800782683
  C   -0.87368687479868      0.68313962743848      1.46436555334867
  N   -1.14478565853590      1.17415427609744      2.49761326426141
  N   1.63386249814143      0.95075827748794     -0.10550514556461
  O   1.78664034161567      1.54677341053298      0.95857336320277
  O   2.06482481878466      1.29457749879715     -1.20265038523614
