13
Coordinates from ORCA-job run
  C   -0.63344117384137     -0.08483116627292      0.23065867036956
  C   0.85268143250466     -0.30290324154155     -0.04763590813235
  Cl  -1.35937260703117      0.78594406360030     -1.14861982353078
  H   1.30837658423904     -0.84112762017227      0.78589263661573
  H   0.94760820818257     -0.85145095849773     -0.98130341175638
  N   -1.23723104164755     -1.40026614907973      0.29439688200462
  H   -0.94091515027645     -1.86707189313603      1.14644252303851
  H   -2.24727993488970     -1.31148122090922      0.32079785084901
  C   -0.87583114242823      0.71822676712589      1.44155743916935
  N   -1.14524044985780      1.25733377343699      2.45098582975764
  N   1.59284126165507      0.98066137242806     -0.18944612550699
  O   1.74417805592401      1.64017846474379      0.83669225636036
  O   1.99162595746692      1.27678780827443     -1.31241881923828
