13
Coordinates from ORCA-job run
  C   -0.72435293577928     -0.17429250544865      0.01111256543435
  C   0.70613749249778      0.01516090267877     -0.48365231329146
  Cl  -1.68689790907813     -0.51516103278723     -1.46693844796768
  H   1.07377206701991     -0.93814287909656     -0.86686995179515
  H   0.76182665590996      0.77735334208477     -1.25927717491246
  N   -0.82841945940927     -1.32133144198747      0.87246268863130
  H   -1.80014234501867     -1.50273019778817      1.09641486984822
  H   -0.31890360832450     -1.13236959726056      1.72857039010478
  C   -1.24558055160777      1.08367631928224      0.57790873553194
  N   -1.65025820762132      2.07494167073990      1.06300636602146
  N   1.65967631135910      0.44430449389619      0.59049830346608
  O   1.31403576687718      0.32618883494585      1.76507756693297
  O   2.74110672317502      0.86240209074091      0.19868640199564
