13

C	-0.526736	-0.050976	-1.422712
C	0.002415	-0.004692	0.00287
Cl	0.163046	1.430659	-2.277845
H	1.0942	-0.012016	0.003473
H	-0.301288	0.947027	0.453114
C	-0.025324	-1.212006	-2.171475
N	0.289624	-2.14613	-2.809674
N	-1.953849	-0.072066	-1.473844
H	-2.283353	0.003706	-2.429792
H	-2.323256	0.698612	-0.930104
C	-0.517011	-1.107712	0.793205
N	-0.896672	-1.995566	1.46376
H	2.695298	0.039833	-0.000482
