13

C	-0.547323	0.044687	-1.422887
C	0.005354	0.039019	0.005473
Cl	0.077749	1.501025	-2.269182
H	1.097715	0.059063	0.000641
H	-0.263389	-0.915636	0.473528
C	-0.068935	-1.148949	-2.137215
N	0.218878	-2.138468	-2.699934
N	-1.999065	0.072367	-1.565738
H	-2.370265	-0.754477	-1.106267
H	-2.340639	0.8844	-1.059245
C	-0.584247	1.122559	0.768835
N	-1.070769	2.00385	1.377674
H	2.67772	-0.183037	-0.054946
