13

C	-0.555184	0.003524	-1.425578
C	0.006465	-0.010224	-0.000471
Cl	0.005666	1.524757	-2.199033
H	1.099437	-0.018799	-7.6e-05
H	-0.300743	0.914569	0.500024
C	-0.030098	-1.129382	-2.203275
N	0.312748	-2.064541	-2.824989
N	-2.007163	-0.027076	-1.556711
H	-2.335706	-0.897612	-1.147252
H	-2.380117	0.733998	-0.997231
C	-0.534595	-1.150528	0.71744
N	-0.985867	-2.084619	1.272321
H	2.702475	0.070581	0.009317
