16

C	-0.426901	-0.065365	-1.454315
C	0.0	0.0	0.0
F	-1.799779	-0.390423	-1.526486
H	1.094795	0.0	0.0
H	-0.317421	-0.952751	0.440224
C	-0.304306	1.248904	-2.118286
N	-0.239637	2.294996	-2.647433
C	0.354792	-1.116896	-2.21648
H	0.186249	-2.085485	-1.741072
H	1.421177	-0.886048	-2.16042
H	0.024507	-1.16355	-3.256471
C	-0.576437	1.173315	0.776977
H	-1.66782	1.201299	0.709854
H	-0.296477	1.093644	1.829597
H	-0.180016	2.120016	0.403723
Br	3.648353	0.0	0.0
