16

C	-0.404634	-0.120557	-1.464121
C	0.0	0.0	0.0
F	-1.779546	-0.423052	-1.567067
H	1.09464	0.0	0.0
H	-0.355979	0.953591	0.400199
C	-0.240662	1.179258	-2.1463
N	-0.145285	2.216434	-2.688325
C	0.37466	-1.19489	-2.198786
H	0.153015	-2.165698	-1.752911
H	0.088799	-1.217659	-3.252679
H	1.444423	-0.996724	-2.096003
C	-0.506798	-1.156679	0.855135
H	-0.098284	-2.111544	0.518808
H	-1.597	-1.221137	0.850584
H	-0.169063	-1.011371	1.883498
Br	3.642798	0.0	0.0
