16

C	-0.411855	0.03653	-1.464011
C	0.0	0.0	0.0
F	-0.140999	-1.207414	-2.047142
H	1.095075	0.0	0.0
H	-0.320136	0.943924	0.456501
C	-1.873467	0.235988	-1.603971
N	-3.029796	0.416791	-1.702669
C	0.361677	1.08657	-2.238738
H	0.119204	2.085249	-1.868983
H	1.426893	0.900275	-2.081162
H	0.117985	1.027047	-3.301713
C	-0.560555	-1.190144	0.76306
H	-0.221181	-2.121944	0.310102
H	-1.655317	-1.188909	0.783833
H	-0.197133	-1.169751	1.792542
Br	3.680977	0.0	0.0
