16

C	-0.407071	0.06645	-1.466064
C	0.0	0.0	0.0
F	-0.168873	-1.187106	-2.041976
H	1.09477	0.0	0.0
H	-0.362002	-0.951151	0.401174
C	-1.860642	0.310959	-1.616559
N	-3.011023	0.523344	-1.720941
C	0.399513	1.087328	-2.247379
H	0.178731	2.100644	-1.906446
H	1.458635	0.877722	-2.076098
H	0.163827	1.010803	-3.31104
C	-0.501599	1.173794	0.834171
H	-0.140221	1.065412	1.858829
H	-1.593769	1.234436	0.858751
H	-0.109196	2.121772	0.459217
Br	3.67814	0.0	0.0
