16

C	-0.427907	-0.058955	-1.45427
C	0.0	0.0	0.0
F	-1.802741	-0.37839	-1.526212
H	1.094819	0.0	0.0
H	-0.317693	-0.954373	0.436452
C	-0.302298	1.257526	-2.114191
N	-0.245094	2.304986	-2.641757
C	0.348577	-1.111402	-2.22045
H	0.174434	-2.081563	-1.749205
H	1.416429	-0.886271	-2.163166
H	0.0183	-1.151871	-3.260593
C	-0.575777	1.170219	0.781949
H	-1.66722	1.198413	0.71557
H	-0.295298	1.086415	1.834166
H	-0.17958	2.118412	0.412353
Br	3.64702	0.0	0.0
