12

C	-0.608964	-0.039092	-1.396569
C	0.0	0.0	0.0
Cl	-0.25404	-1.590187	-2.233197
H	1.098738	0.0	0.0
H	-1.696638	0.021139	-1.315206
H	-0.357823	-0.885215	0.535719
C	-0.180015	1.07779	-2.237489
N	0.114126	1.982562	-2.92574
N	-0.486305	1.242314	0.628039
H	0.328246	1.839893	0.737122
H	-0.820047	1.042167	1.56199
H	2.932303	0.0	0.0
