12

C	-0.381176	-0.012638	-1.487852
C	0.0	0.0	0.0
Cl	-0.101929	1.591125	-2.244226
H	1.095397	0.0	0.0
H	0.278725	-0.716555	-2.004474
H	-0.413435	0.893517	0.474738
C	-1.777676	-0.385459	-1.707683
N	-2.910572	-0.681739	-1.813673
N	-0.396246	-1.208972	0.701136
H	-1.306317	-1.559849	0.430446
H	0.309484	-1.918494	0.550208
H	2.886314	0.0	0.0
