14

C	-0.443007	-0.089046	-1.447862
C	0.0	0.0	0.0
Cl	-2.209765	-0.192054	-1.607751
H	1.093763	0.0	0.0
H	-0.00937	-0.982357	-1.886736
N	0.04912	1.067265	-2.273405
O	-0.351543	2.18419	-1.969388
O	0.807324	0.788858	-3.196746
N	-0.378932	-1.249249	0.654725
H	0.357266	-1.490833	1.306918
H	-1.24883	-1.150935	1.159464
C	-0.50959	1.183896	0.696302
N	-0.958134	2.0506	1.348313
Br	3.3809	0.0	0.0
