14

C	-0.58708	-0.044482	-1.402791
C	0.0	0.0	0.0
Cl	0.09006	1.19143	-2.462823
H	1.09546	0.0	0.0
H	-1.670407	0.064045	-1.383161
N	-0.352209	-1.395371	-2.027811
O	-1.21467	-1.765658	-2.822852
O	0.664702	-2.002449	-1.723928
N	-0.517901	-1.17602	0.719601
H	-0.880964	-0.905546	1.623906
H	0.273359	-1.791451	0.873887
C	-0.458048	1.237004	0.633875
N	-0.852779	2.195712	1.186171
Br	3.444013	0.0	0.0
