19

C	-0.415743	0.041571	-1.484065
C	0.0	0.0	0.0
Br	-2.383872	-0.036315	-1.734427
H	1.115533	0.0	0.0
C	0.077049	1.324143	-2.16573
H	-0.34754	2.194789	-1.645431
H	-0.237337	1.380683	-3.21702
H	1.175648	1.367844	-2.110114
N	0.075618	-1.166717	-2.25643
O	0.039692	-1.003352	-3.558971
O	-0.426037	-2.30447	-1.83577
C	-0.423952	-1.257091	0.78542
H	0.193877	-2.119107	0.483521
H	-1.485167	-1.504305	0.635636
H	-0.246548	-1.107293	1.865145
N	-0.471075	1.185318	0.765491
O	-1.748368	1.140504	1.05135
O	0.316127	1.43933	1.787718
Br	2.683991	0.0	0.0
