19

C	-0.422605	0.042862	-1.468534
C	0.0	0.0	0.0
Br	0.088653	1.655662	-2.445906
H	1.114606	0.0	0.0
C	0.187608	-1.128134	-2.220831
H	-0.254398	-2.068577	-1.891624
H	0.010632	-1.023106	-3.288555
H	1.261007	-1.127797	-2.015509
N	-1.943195	-0.004643	-1.582383
O	-2.426399	-0.58602	-2.549871
O	-2.58568	0.558347	-0.700941
C	-0.429274	-1.294518	0.677314
H	-1.512362	-1.425723	0.692553
H	-0.073622	-1.27702	1.704902
H	0.049241	-2.13884	0.186222
N	-0.433793	1.17299	0.835538
O	-0.210928	2.2983	0.408485
O	-0.93404	0.93427	1.93515
Br	3.425864	0.0	0.0
