19

C	-0.634883	0.144518	-1.388175
C	0.0	0.0	0.0
Br	0.023573	-1.280733	-2.544911
H	1.11474	0.0	0.0
C	-2.147998	0.094625	-1.36733
H	-2.470637	-0.886232	-1.020719
H	-2.5429	0.862864	-0.700697
H	-2.546826	0.263502	-2.366415
N	-0.17311	1.450872	-2.056633
O	1.008091	1.554731	-2.33219
O	-1.047099	2.294748	-2.251415
C	-0.406906	-1.268268	0.730383
H	-1.477139	-1.336119	0.92281
H	0.116051	-1.284761	1.68668
H	-0.069407	-2.130227	0.156492
N	-0.413185	1.201403	0.811952
O	-0.012657	2.29568	0.420946
O	-1.113783	1.029339	1.813422
Br	3.446123	0.0	0.0
