19

C	-0.40911	-0.016288	-1.472282
C	0.0	0.0	0.0
Br	0.235765	1.616551	-2.299222
H	1.091702	0.0	0.0
C	0.222239	-1.206044	-2.175211
H	0.015405	-1.158723	-3.245872
H	-0.188464	-2.132836	-1.774468
H	1.300176	-1.170605	-2.002574
N	-1.928054	-0.109389	-1.667863
O	-2.413491	-1.170027	-1.275201
O	-2.550615	0.79761	-2.196342
C	-0.4653	-1.160538	0.869381
H	-1.548474	-1.187565	0.977944
H	0.006865	-1.035539	1.846997
H	-0.116184	-2.106793	0.457464
N	-0.489822	1.248471	0.660465
O	0.300672	1.902863	1.330028
O	-1.691039	1.499401	0.526026
Br	3.47693	0.0	0.0
