16
Coordinates from ORCA-job run
  C   0.52662064224902     -0.02096524042798     -0.41455952024260
  C   -0.76199394260120      0.46928681171273      0.25698940751364
  Br  0.09263996070872     -0.45549103567692     -2.29997566703845
  H   -1.13700573058085      1.33460185288671     -0.29807300582441
  H   -0.46252729118189      0.83468672304653      1.24931094549622
  N   1.11472485119009     -1.21651161381163      0.14971010618333
  H   1.41841406359640     -1.02124141677522      1.09871188710940
  H   0.44526058790874     -1.97585288124190      0.17368079633293
  C   1.57911100863831      1.07357053446087     -0.43420509905150
  H   2.46886245541145      0.72546913379717     -0.95847908151289
  H   1.85395316454383      1.32574066926515      0.59666682169015
  H   1.20043297464275      1.97390071523474     -0.91957575449046
  C   -1.86745260679978     -0.56670870973661      0.41495549200551
  H   -1.55173045936245     -1.40149115863118      1.04493584940471
  H   -2.18045987842887     -0.96182670017597     -0.55254175747258
  H   -2.73984979993428     -0.11516768392649      0.89244857989699
