16
Coordinates from ORCA-job run
  C   0.50490471042507     -0.02582467184974     -0.31312275612721
  C   -0.79434208899562      0.52880479339118      0.25862262744400
  Br  0.07995732648383     -0.61379934756351     -2.24663141382559
  H   -1.16661906373405      1.29436774223777     -0.42640897147187
  H   -0.51652272541448      1.03133236529518      1.19336751852620
  N   0.99218339556605     -1.10374137866515      0.45676980677324
  H   0.33710069075102     -1.87288046612218      0.50115134718472
  H   1.87705337575448     -1.44675686457945      0.10480580726369
  C   1.56785594811389      1.04608449467283     -0.45943001377498
  H   1.19904705123246      1.87809509069055     -1.05908569602729
  H   2.46212933622724      0.64715180112883     -0.94297247806391
  H   1.83599779865147      1.40588973593164      0.53814028583611
  C   -1.88103925559811     -0.50135927205581      0.54020321984433
  H   -2.11687555594581     -1.08057660287451     -0.35440320941864
  H   -2.79551917540134     -0.00174103224239      0.86690324606190
  H   -1.58731176811609     -1.18504638739523      1.34009067977530
