16
Coordinates from ORCA-job run
  C   0.51118336781566     -0.40626531781992     -0.30476112451042
  C   -0.74067035081496     -0.50150431256005      0.56225174404555
  Br  0.06894271520398     -1.02271303815865     -2.13698533264610
  H   -1.06594746064963     -1.54455338140243      0.54513177573287
  H   -0.41742580663614     -0.28864334042936      1.59153319557474
  N   1.47739108940995     -1.35831229425771      0.20497091026933
  H   2.33930695080911     -1.30570999781517     -0.32688126365533
  H   1.68570714905246     -1.12883726036594      1.17194092560853
  C   1.04041622565423      1.01621068347897     -0.43834742056484
  H   1.96335568188471      1.02191932120559     -1.02205715942840
  H   1.26041953214618      1.40462184323475      0.56294472352908
  H   0.32706850782916      1.68235733439312     -0.92449637724285
  C   -1.88645846849499      0.43219596918634      0.19435744074100
  H   -2.19274221006944      0.28856021840670     -0.84299443940916
  H   -2.75106766263321      0.22829914256223      0.83003264442585
  H   -1.61847926050708      1.48137443034151      0.33335975753013
