15

C	-0.529171	0.00482	-1.462324
C	0.0	0.0	0.0
Br	0.31727	-1.426343	-2.486052
H	1.098907	0.0	0.0
C	-1.973715	-0.230086	-1.454808
N	-3.130384	-0.43364	-1.424497
C	-0.251449	1.271982	-2.137416
N	-0.022439	2.295588	-2.667699
N	-0.457486	-1.200971	0.641434
H	0.246685	-1.539768	1.28337
H	-1.338706	-1.044922	1.118241
N	-0.557848	1.206258	0.628529
H	-0.030715	2.012427	0.300321
H	-0.346804	1.130651	1.619547
Br	3.507913	0.0	0.0
