18

C	0.0	0.0	0.0
C	-0.585825	0.11985	-1.417642
Cl	1.782452	0.0	0.0
H	-1.680484	0.12847	-1.24309
N	-0.373973	1.220436	0.855975
O	-0.546145	1.02777	2.051511
O	-0.396227	2.314561	0.304442
C	-0.489536	-1.248918	0.699067
H	-0.081719	-1.298083	1.706281
H	-1.581711	-1.207318	0.735422
H	-0.163422	-2.123155	0.135411
C	-0.251989	-1.116199	-2.128773
N	0.04573	-2.074403	-2.739742
C	-0.172675	1.302422	-2.304008
H	0.910867	1.436465	-2.302743
H	-0.647804	2.217067	-1.965348
H	-0.493982	1.095305	-3.327152
Cl	-3.667586	0.0	0.0
