18

C	-0.653957	0.046441	-1.383036
C	0.0	0.0	0.0
Cl	-0.083134	-1.285434	-2.40391
H	1.095192	0.0	0.0
N	-2.092022	0.056853	-1.399254
H	-2.361068	0.729327	-0.685512
H	-2.402362	-0.862139	-1.108079
N	-0.207651	1.360328	-2.050424
O	0.90464	1.402429	-2.555873
O	-0.993924	2.302759	-1.95643
C	-0.43091	-1.239137	0.767026
H	0.198032	-1.307471	1.65917
H	-1.481018	-1.187254	1.076106
H	-0.265523	-2.149416	0.190354
N	-0.494683	1.195902	0.718348
H	0.195961	1.930511	0.575521
H	-0.4516	0.985862	1.710132
H	2.893386	0.0	0.0
