18

C	-0.235184	-0.009808	-1.508803
C	0.0	0.0	0.0
Cl	-0.167363	1.692917	-2.201863
H	1.098127	0.0	0.0
N	0.683621	-0.887763	-2.085295
H	1.612528	-0.71122	-1.67255
H	0.694874	-0.835934	-3.093955
N	-1.654711	-0.431412	-1.912766
O	-1.795442	-1.00793	-2.988143
O	-2.564956	-0.148678	-1.138165
C	-0.42146	-1.328164	0.623561
H	0.084835	-1.421221	1.588878
H	-1.50359	-1.373126	0.784207
H	-0.116328	-2.172229	0.002241
N	-0.491654	1.167354	0.694346
H	0.226395	1.471858	1.340378
H	-1.334903	0.949323	1.208518
H	2.8482	0.0	0.0
