18

C	-0.214069	0.069439	-1.51796
C	0.0	0.0	0.0
Cl	-1.926759	0.514786	-2.011256
H	1.097807	0.0	0.0
N	0.697047	0.990809	-2.03446
H	1.616403	0.814734	-1.589743
H	0.772964	0.932087	-3.040779
N	-0.045286	-1.350627	-2.167202
O	-0.89402	-2.205365	-1.938514
O	0.959542	-1.51717	-2.854121
C	-0.555593	-1.207244	0.720589
H	-0.075891	-2.130922	0.396028
H	-0.340013	-1.062825	1.780705
H	-1.637001	-1.313391	0.588045
N	-0.414336	1.228713	0.661481
H	0.168418	1.982269	0.314849
H	-1.374789	1.445438	0.413181
H	2.823799	0.0	0.0
