18

C	-0.402454	0.034147	-1.451264
C	0.0	0.0	0.0
Cl	-2.371387	-0.158907	-1.560267
H	1.09376	0.0	0.0
N	0.021102	1.150286	-2.12819
H	-0.079908	1.998041	-1.597273
H	-0.288281	1.202383	-3.085772
N	0.025215	-1.157973	-2.300624
O	0.482233	-2.144882	-1.743159
O	-0.101962	-1.022242	-3.515713
C	-0.547266	-1.14453	0.831648
H	-0.436358	-2.111385	0.346543
H	-1.600486	-0.976318	1.071527
H	0.025199	-1.151733	1.76157
N	-0.32902	1.2614	0.659874
H	-1.215322	1.653055	0.366261
H	0.435589	1.918291	0.553977
H	2.760144	0.0	0.0
