18

C	-0.377302	0.012883	-1.480615
C	0.0	0.0	0.0
Cl	0.412389	1.397961	-2.272018
H	1.10353	0.0	0.0
N	-0.039179	-1.163101	-2.2338
H	0.957408	-1.316324	-2.091766
H	-0.552331	-1.942142	-1.83902
N	-1.895527	0.200394	-1.614463
O	-2.369787	1.309684	-1.80668
O	-2.549704	-0.830309	-1.438264
C	-0.471617	-1.237849	0.739787
H	-0.057098	-1.195469	1.752229
H	-0.077941	-2.149714	0.287902
H	-1.561061	-1.29379	0.802142
N	-0.579119	1.186364	0.649924
H	-0.095633	2.001148	0.282943
H	-0.315417	1.137052	1.629212
H	2.875335	0.0	0.0
