18

C	-0.244889	-0.018295	-1.505844
C	0.0	0.0	0.0
Cl	-0.142248	1.679067	-2.208501
H	1.098195	0.0	0.0
N	0.652905	-0.919192	-2.083665
H	0.654388	-0.871984	-3.092824
H	1.587833	-0.750294	-1.68406
N	-1.672382	-0.41421	-1.903347
O	-1.829152	-0.954856	-2.995222
O	-2.572257	-0.14945	-1.111035
C	-0.420059	-1.320001	0.640386
H	-1.500195	-1.357562	0.815784
H	0.099581	-1.407565	1.599134
H	-0.128747	-2.170943	0.022278
N	-0.489015	1.174319	0.687173
H	0.251764	1.517138	1.285588
H	-1.295527	0.9484	1.252203
H	2.846821	0.0	0.0
