18

C	-0.282342	-0.014316	-1.514362
C	0.0	0.0	0.0
Cl	-0.249485	1.633292	-2.191791
H	1.097282	0.0	0.0
N	0.637691	-0.826417	-2.242991
H	0.394439	-1.799886	-2.11672
H	1.560069	-0.656823	-1.822622
N	-1.703493	-0.548289	-1.730415
O	-1.821034	-1.705077	-2.137772
O	-2.634682	0.156191	-1.354003
C	-0.426581	-1.317526	0.638353
H	0.019983	-1.365112	1.634773
H	-0.073569	-2.188228	0.081878
H	-1.517647	-1.387526	0.737884
N	-0.491647	1.161712	0.704067
H	0.253213	1.509217	1.296364
H	-1.298806	0.939355	1.271948
H	2.839431	0.0	0.0
