18

C	-0.173434	-0.021162	-1.52976
C	0.0	0.0	0.0
Cl	-0.162539	1.728969	-2.214753
H	1.098498	0.0	0.0
N	0.798814	-0.839923	-2.06916
H	1.712405	-0.652437	-1.612871
H	0.835862	-0.835151	-3.078488
N	-1.568396	-0.472511	-1.985572
O	-2.520161	-0.063825	-1.323684
O	-1.653732	-1.205633	-2.967779
C	-0.486735	-1.312081	0.597564
H	-0.027592	-1.414005	1.58264
H	-0.187069	-2.163416	-0.016679
H	-1.574468	-1.31329	0.719324
N	-0.510137	1.125163	0.747926
H	-1.433547	1.373948	0.41546
H	0.104573	1.913787	0.600172
H	2.869778	0.0	0.0
