15

C	0.0	0.0	0.0
C	-0.526371	0.068037	-1.425249
F	1.371593	0.0	0.0
H	-1.625995	0.082395	-1.389485
H	-0.322265	-0.955222	0.424396
N	-0.461337	1.174046	0.677804
H	-0.219424	1.085995	1.658244
H	-1.483251	1.164441	0.619549
N	-0.11237	-1.102655	-2.258717
O	-0.174436	-0.957111	-3.475787
O	0.182707	-2.141193	-1.674464
N	-0.038937	1.298575	-2.111239
O	-0.857017	2.197554	-2.279139
O	1.147378	1.326198	-2.430614
Cl	-3.472699	0.0	0.0
