15

C	0.0	0.0	0.0
C	-0.516954	0.156351	-1.422287
F	1.374867	0.0	0.0
H	-1.616419	0.136677	-1.397912
H	-0.319216	-0.9831	0.358033
N	-0.470045	1.123172	0.750288
H	-1.492407	1.104529	0.689886
H	-0.227665	0.973726	1.72284
N	-0.055149	-0.941222	-2.328209
O	0.193999	-2.026841	-1.812749
O	-0.033303	-0.696505	-3.530658
N	-0.063024	1.448672	-2.013231
O	-0.916396	2.317676	-2.164668
O	1.131273	1.549073	-2.281399
Cl	-3.468343	0.0	0.0
