18

C	0.0	0.0	0.0
C	-0.523543	-0.231074	-1.429213
Cl	1.806002	0.0	0.0
H	-1.609599	-0.305392	-1.28659
C	-0.37844	1.332494	0.481606
N	-0.599454	2.419438	0.869008
C	-0.490378	-1.075344	0.954172
H	-0.150604	-2.042033	0.584442
H	-1.583466	-1.032471	0.958693
H	-0.103012	-0.897987	1.959495
N	-0.027635	-1.523225	-1.901158
H	0.862936	-1.394607	-2.369295
H	-0.685157	-1.894848	-2.575144
C	-0.223133	0.930072	-2.370544
H	-0.596653	0.684348	-3.36849
H	-0.715125	1.847745	-2.042454
H	0.854394	1.111996	-2.441195
Cl	-3.764996	0.0	0.0
