18

C	0.0	0.0	0.0
C	-0.45101	-0.171156	-1.470751
Cl	1.795659	0.0	0.0
H	0.188126	-0.968556	-1.868887
C	-0.413381	1.311807	0.505466
N	-0.736738	2.352861	0.94337
C	-0.514334	-1.099386	0.916897
H	-0.080116	-0.991554	1.912161
H	-0.231558	-2.074002	0.511728
H	-1.60301	-1.034945	0.990815
N	-0.105973	1.053589	-2.195602
H	-0.114252	0.850934	-3.188503
H	-0.843609	1.734789	-2.035127
C	-1.912794	-0.575999	-1.599733
H	-2.175248	-0.571387	-2.66217
H	-2.110923	-1.579646	-1.218367
H	-2.611051	0.088509	-1.082546
Cl	-4.898773	0.0	0.0
