18

C	0.0	0.0	0.0
C	-0.543869	0.136971	-1.437214
Cl	1.799706	0.0	0.0
H	-1.630373	0.111663	-1.28614
C	-0.385384	1.169425	0.796516
N	-0.642793	2.116827	1.442261
C	-0.50199	-1.273873	0.65626
H	-1.594373	-1.221868	0.679975
H	-0.177209	-2.11937	0.051043
H	-0.108119	-1.361418	1.670987
N	-0.149617	-1.039133	-2.208312
H	-0.931305	-1.344557	-2.772308
H	0.624176	-0.814566	-2.821958
C	-0.161805	1.452693	-2.1022
H	0.920711	1.515795	-2.252782
H	-0.651869	1.511979	-3.07792
H	-0.48224	2.312258	-1.510517
Cl	-3.805074	0.0	0.0
