18

C	0.0	0.0	0.0
C	-0.418444	-0.224263	-1.486029
Cl	1.806108	0.0	0.0
H	0.147274	-1.112504	-1.796134
C	-0.401597	1.338233	0.435627
N	-0.688706	2.435622	0.742159
C	-0.519717	-1.069915	0.943287
H	-0.081514	-0.952954	1.935931
H	-1.607349	-0.984638	1.016727
H	-0.257873	-2.056066	0.552368
N	-0.042771	0.86506	-2.373407
H	-0.653554	1.656858	-2.203231
H	0.911589	1.15924	-2.203346
C	-1.906016	-0.489257	-1.622504
H	-2.206919	-1.437725	-1.180409
H	-2.145516	-0.517445	-2.687522
H	-2.536828	0.267566	-1.150502
Cl	-4.847315	0.0	0.0
