10
Coordinates from ORCA-job run
  C   -0.54544664555114      0.18575002789151      0.34586313798846
  C   0.46187007065899     -0.30179876218245     -0.40356408330771
  H   -0.29367754856988      0.80796923459258      1.19852283749637
  H   0.37125882144698     -0.93811576472681     -1.27284687979401
  N   -1.87196862798294     -0.08943833435937      0.17867509485755
  H   -2.52668088215768      0.55391686113475      0.58700993493505
  H   -2.16538043079178     -0.48903432294583     -0.69746191300943
  N   1.82616048917999      0.01253526527014     -0.05879574988284
  O   2.69098842911410     -0.46532961399053     -0.79648073779458
  O   2.05487632465336      0.72354540931601      0.92007835851114
