10
Coordinates from ORCA-job run
  C   -0.55027643194995      0.24098430293648      0.30196479743061
  C   0.47041392513169     -0.23767767165248     -0.43493858532967
  H   -0.31752468267428      0.71418209004376      1.25036480826848
  H   0.40051782722029     -0.72487182918946     -1.39749329390271
  N   -1.86482384904652      0.25318617760743     -0.06543036378631
  H   -2.54324093436901      0.34678365858358      0.66963459283186
  H   -2.14836075414094     -0.34177987262832     -0.82637936322049
  N   1.82265603949190     -0.10995732057947      0.04910068737872
  O   2.70108043784460     -0.57547875620313     -0.68038260862338
  O   2.02855842249223      0.43562922108161      1.13355932895289
