10
Coordinates from ORCA-job run
  C   -0.55437784887084      0.17017010282824      0.34006153860394
  C   0.46833024623054     -0.27510205937161     -0.41477204643511
  H   -0.31950388533119      0.68001459864009      1.26874094186001
  H   0.39602150904357     -0.80394531311990     -1.35490574888206
  N   -1.88100218441829     -0.02229994179000      0.08280695442435
  H   -2.14606206747821     -0.30492581933666     -0.84632417293909
  H   -2.52818788575787      0.60049874551138      0.53291855347996
  N   1.82539200068078     -0.06538958704716      0.02519323446330
  O   2.03362824732798      0.52068192587647      1.08786296160041
  O   2.70576186857352     -0.49870265219086     -0.72158221617571
