10
Coordinates from ORCA-job run
  C   -0.55484298002639      0.15534165446599      0.34735411625802
  C   0.46909088635010     -0.26065234282806     -0.42225928055345
  H   -0.32153580418989      0.65126893752917      1.28393326824531
  H   0.39782465013085     -0.77371732053815     -1.37119970582718
  N   -1.88054066182196     -0.05315310649285      0.09541238360498
  H   -2.14547604580617     -0.32005496407338     -0.83852507916139
  H   -2.53218098303267      0.55683612223051      0.55680191904285
  N   1.82604000129717     -0.03964693437841      0.01247276500376
  O   2.70728732793998     -0.44611835377947     -0.74821597617436
  O   2.03333360915898      0.52989630786465      1.08422558956145
