10
Coordinates from ORCA-job run
  C   -0.55233599489433      0.24469954460502      0.29467242515531
  C   0.47147759692140     -0.25276750905062     -0.42556891842754
  H   -0.32072021423793      0.77738168544982      1.21129234345170
  H   0.40220303497367     -0.79545397163410     -1.35799330880677
  N   -1.87052388611153      0.20383676888516     -0.05612019317189
  H   -2.54381955563100      0.32799233141333      0.67899534348176
  H   -2.14913940618376     -0.43863238265832     -0.77920080154752
  N   1.82545579306507     -0.06463186854943      0.03281483920973
  O   2.03052950117303      0.54604388202570      1.08213587366933
  O   2.70687313092538     -0.54846848048656     -0.68102760301411
