10
Coordinates from ORCA-job run
  C   -0.75929659580133     -0.50508399827550      0.25654191095851
  C   0.57654633042829     -0.56898945632447      0.49185674057039
  H   -1.36110420156064     -1.29611638069862      0.69525967959168
  H   1.03240669310078     -1.35998005029687      1.06601828567825
  N   -1.45400860596787      0.45008417389347     -0.39881426222605
  H   -2.40009264798655      0.25513514590322     -0.67053807899545
  H   -0.92582458608143      1.12617010716291     -0.92728184559268
  N   1.50883441830847      0.37730550445040     -0.02953717831809
  O   2.69975079846443      0.19936376958997      0.22914086494831
  O   1.08178839709586      1.32211118459550     -0.71364611661486
