10
Coordinates from ORCA-job run
  C   -0.74909477724514     -0.29792030260362      0.49677743553304
  C   0.57833052964826     -0.58428199997385      0.47367329051855
  H   -1.35055912180741     -0.87134563845799      1.19669397572469
  H   1.02465077871815     -1.34160432667415      1.09845260042516
  N   -1.41798911615267      0.64868861380445     -0.19500980180774
  H   -0.92613402764623      1.12008183141411     -0.93720103120876
  H   -2.42038649159938      0.61618674050056     -0.21718169200341
  N   1.50177832945019      0.06276595831756     -0.40069375243436
  O   2.67855219909449     -0.29712439920548     -0.34770399388603
  O   1.08085169753974      0.94555352287842     -1.16680703086114
