10
Coordinates from ORCA-job run
  C   -0.75494540433620     -0.34080192345146      0.44238787914445
  C   0.57443460961881     -0.61373441876122      0.43862760055106
  H   -1.34499895924130     -0.91574765354189      1.15197767393526
  H   1.02045862020893     -1.35112629164218      1.08759067922778
  N   -1.46606876555743      0.49800409971160     -0.34749558037139
  H   -0.93136370823276      1.14659374377012     -0.90420191286080
  H   -2.36105847562144      0.78963200734338      0.00360196165723
  N   1.50331822344813      0.07361869717500     -0.39820812074506
  O   2.69714036255822     -0.19843441566387     -0.27116896136968
  O   1.06308349715503      0.91199615506051     -1.20311121916885
