10
Coordinates from ORCA-job run
  C   -0.57172667185619      0.00135503869504      0.35402605018165
  C   0.49317626518315      0.06431805169798     -0.46830277108192
  H   -0.38985528954123     -0.08825591158694      1.42006484476310
  H   0.47363182340903      0.16147931026347     -1.54484967754072
  N   -1.87914026396767      0.11112096674544     -0.02179386312236
  H   -2.10225953703753     -0.00131494966249     -0.99694784452085
  H   -2.56955470629287     -0.25048679153322      0.61207693829160
  N   1.82506981117500      0.01489636340566      0.08154978826228
  O   2.74679314228431      0.07862028770398     -0.73510420625574
  O   1.97386542664399     -0.09073236572893      1.29928074102296
