10
Coordinates from ORCA-job run
  C   -0.56914812500758     -0.16077398888773      0.32001398141507
  C   0.49098238452954      0.27560296456576     -0.38688030732588
  H   -0.38124703726765     -0.75974176795718      1.20515854673495
  H   0.46658430885909      0.88452959019625     -1.27984965121424
  N   -1.87647234601742      0.13979689167427      0.06771277441341
  H   -2.56991535667704     -0.47326427179569      0.45831684467685
  H   -2.10873863340100      0.51597060047462     -0.83668840779312
  N   1.82534901465967     -0.05702310168274      0.04675297680987
  O   1.98013885712025     -0.74107650174915      1.05879077702994
  O   2.74246693320214      0.37797958516161     -0.65332753474684
