10
Coordinates from ORCA-job run
  C   -0.58334603337035      0.07203736657321      0.32626006016678
  C   0.51094362222421     -0.16964820475100     -0.42093420387623
  H   -0.44114359408419      0.45521209088016      1.33149923723058
  H   0.53276401690912     -0.55713085470845     -1.42995650562845
  N   -1.87282717518012     -0.18753722158955     -0.03744238231805
  H   -2.06604343587460     -0.35289269838576     -1.01141109882533
  H   -2.59593888157921      0.30355432914900      0.45763434072918
  N   1.82056939287842      0.08166458609331      0.12749427136132
  O   1.92344882194453      0.51557937775673      1.27517384960081
  O   2.77157326613218     -0.15983877101765     -0.61931756844060
