10
Coordinates from ORCA-job run
  C   -0.74779318158517     -0.33459919632938      0.47348218787024
  C   0.58387117289357     -0.59969537543686      0.44637409975911
  H   -1.34468042546454     -0.95329094519077      1.13791183379532
  H   1.03772996689952     -1.37896059122064      1.03782384082440
  N   -1.42741165512242      0.63627984425889     -0.17300186842908
  H   -2.42858933983488      0.58278834600074     -0.20987444000651
  H   -0.93932857016430      1.14904680627784     -0.88983248604057
  N   1.50457414780904      0.10886246980182     -0.38231114735754
  O   2.68697789689142     -0.23293396313993     -0.33507020975938
  O   1.07564998767776      1.02250260497828     -1.10650181065599
