10
Coordinates from ORCA-job run
  C   -0.74493973754379     -0.38898508821049      0.43576487191692
  C   0.49405891049675     -0.80698806863074      0.06871337581332
  H   -1.38024535948741     -1.13249489059474      0.90916568718657
  H   0.84062679609447     -1.81658467225076      0.22267715459556
  N   -1.27796109796711      0.84765563075572      0.34429805610598
  H   -0.77369763264142      1.53482655083625     -0.19286362464962
  H   -2.26555141763554      0.96207423985507      0.47837703425146
  N   1.44383784837478      0.03840761185414     -0.57854808941241
  O   2.52960486335224     -0.45784434770739     -0.88158834692592
  O   1.13426682695703      1.21993303409294     -0.80599611888186
