10
Coordinates from ORCA-job run
  C   -0.55800104476143      0.24218487767449      0.28584824490814
  C   0.47914934101738     -0.24986231042803     -0.41871128629734
  H   -0.34394442994347      0.76969187496787      1.20962533618080
  H   0.42828442355575     -0.78441359117424     -1.35699647862966
  N   -1.86984256282560      0.20321258347888     -0.08968096824104
  H   -2.55604964794191      0.31659696627086      0.63531369673169
  H   -2.13274477592539     -0.43621164852775     -0.82145615726846
  N   1.82454700531286     -0.06241311184485      0.06605344950948
  O   2.71994883913285     -0.53992747509807     -0.63436531424890
  O   2.00865285237898      0.54114183468085      1.12336947735529
