10
Coordinates from ORCA-job run
  C   -0.76204101204330     -0.35447664862628     -0.43655431420764
  C   0.57284276269518     -0.60356332769376     -0.45515994332751
  H   -1.37609297364517     -0.99564299078679     -1.06285492055673
  H   1.01212278984073     -1.39874051095556     -1.03637305996718
  N   -1.42661910115885      0.62931173151396      0.20668459384767
  H   -2.42453322929923      0.56469167650878      0.28776845136710
  H   -0.91517884854301      1.16700217390300      0.88812873218007
  N   1.51624908559143      0.13204366855878      0.32394967511530
  O   2.69819091972750     -0.20488684249809      0.24858155814074
  O   1.10505960683473      1.06426107007596      1.03482922740818
