13

C	0.0	0.0	0.0
C	-0.62166	-0.021268	-1.394366
Br	1.937552	0.0	0.0
H	-1.753327	-0.035654	-1.03399
H	-0.263008	-0.956727	0.464256
N	-0.500128	1.160921	0.682566
H	-1.523721	1.000495	0.640736
H	-0.205538	1.120303	1.651614
C	-0.305875	-1.23197	-2.131508
N	-0.068034	-2.231506	-2.703038
C	-0.325415	1.170242	-2.173634
N	-0.119161	2.115563	-2.841009
F	-2.79118	0.0	0.0
