13

C	0.0	0.0	0.0
C	-0.498397	-0.166295	-1.465897
Br	2.012298	0.0	0.0
H	0.374824	-0.271717	-2.121953
H	-0.223613	-0.916925	0.547731
N	-0.474043	1.207224	0.57161
H	-1.515095	1.00606	0.486915
H	-0.221343	1.214158	1.554591
C	-1.242247	0.992763	-1.970532
N	-1.740665	1.890888	-2.539039
C	-1.275387	-1.40075	-1.620755
N	-1.706582	-2.467015	-1.85647
F	-2.586622	0.0	0.0
