13

C	0.0	0.0	0.0
C	-0.523978	0.216288	-1.454809
Br	1.942874	0.0	0.0
H	0.336774	0.273518	-2.132497
H	-0.261059	-1.018058	0.296671
N	-0.481878	1.028816	0.864916
H	-1.518032	0.84779	0.753717
H	-0.206045	0.797598	1.81416
C	-1.260417	1.471855	-1.631848
N	-1.745162	2.496797	-1.934698
C	-1.323964	-0.926085	-1.910602
N	-1.775131	-1.879386	-2.427514
F	-2.602341	0.0	0.0
