18

C	0.0	0.0	0.0
C	-0.549862	-0.184841	-1.465276
Cl	1.754832	0.0	0.0
H	-1.394506	-0.858918	-1.381307
N	-0.536677	1.072584	0.727579
H	-0.280888	1.938279	0.268626
H	-1.57731	0.871276	0.622588
N	-0.370682	-1.28955	0.789712
O	-0.553188	-1.184751	1.989587
O	-0.372645	-2.333189	0.150289
N	0.434386	-0.809484	-2.412518
O	0.359776	-2.021484	-2.619536
O	1.244506	-0.063295	-2.969118
C	-1.015608	1.128395	-2.05937
H	-1.303946	0.975321	-3.102599
H	-1.897627	1.401446	-1.485594
H	-0.238241	1.894706	-2.033764
F	-2.726778	0.0	0.0
