18

C	0.0	0.0	0.0
C	-0.278443	-0.032125	-1.555789
Cl	1.775513	0.0	0.0
H	0.48711	-0.682834	-1.967336
N	-0.654147	0.966944	0.701387
H	-0.457115	0.859493	1.690383
H	-1.719097	0.709446	0.48012
N	-0.310403	-1.469892	0.525306
O	-0.211443	-2.409516	-0.257273
O	-0.580661	-1.55958	1.715403
N	0.088914	1.324787	-2.098672
O	-0.699056	2.248569	-1.924671
O	1.135402	1.408281	-2.749825
C	-1.606159	-0.40802	-2.184964
H	-1.457024	-0.365737	-3.271725
H	-1.863697	-1.424505	-1.896809
H	-2.406558	0.232098	-1.836709
F	-2.849742	0.0	0.0
