15

C	-0.398903	0.024262	-1.472829
C	0.0	0.0	0.0
Cl	-2.187503	0.226374	-1.690609
H	1.097328	0.0	0.0
H	0.051724	0.908229	-1.925953
C	-0.000457	-1.174364	-2.205331
N	0.288789	-2.146914	-2.796473
C	-0.498671	-1.23532	0.736592
H	-0.134631	-2.154638	0.270985
H	-1.593028	-1.266062	0.771517
H	-0.116868	-1.208898	1.759781
N	-0.407909	1.274547	0.585989
H	-1.334827	1.19844	0.983291
H	0.238549	1.501296	1.327891
Cl	3.426516	0.0	0.0
