15

C	-0.345454	0.017795	-1.500801
C	0.0	0.0	0.0
Cl	-2.115793	0.282476	-1.794363
H	1.09759	0.0	0.0
H	0.158049	0.868188	-1.963225
C	0.036001	-1.201573	-2.205218
N	0.313409	-2.19212	-2.772633
C	-0.543686	-1.225329	0.708614
H	-0.194694	-2.146745	0.237679
H	-1.638868	-1.226506	0.721958
H	-0.184	-1.204465	1.737456
N	-0.409316	1.214089	0.688801
H	0.208352	1.975547	0.432648
H	-1.363651	1.464556	0.452389
Cl	3.40542	0.0	0.0
