15

C	-0.45409	-0.005457	-1.463278
C	0.0	0.0	0.0
Cl	0.221418	1.373582	-2.3727
H	1.094724	0.0	0.0
H	-0.084987	-0.908833	-1.957401
C	-1.91578	0.030372	-1.563301
N	-3.089052	0.03267	-1.633413
C	-0.470416	-1.288505	0.671307
H	-0.103388	-2.174707	0.144832
H	-0.066332	-1.317851	1.686165
H	-1.564882	-1.338812	0.728331
N	-0.468746	1.214265	0.653662
H	0.227492	1.520191	1.318502
H	-1.338036	1.047711	1.144435
Cl	3.431079	0.0	0.0
