15

C	-0.40123	-0.018763	-1.488756
C	0.0	0.0	0.0
Cl	0.144878	1.458475	-2.342051
H	1.095628	0.0	0.0
H	0.098468	-0.854718	-1.983403
C	-1.847631	-0.140464	-1.667758
N	-3.009726	-0.249444	-1.802296
C	-0.4857	-1.284732	0.657203
H	-0.063837	-1.327492	1.661524
H	-0.148618	-2.167475	0.106314
H	-1.578312	-1.312581	0.735223
N	-0.47465	1.14922	0.744109
H	0.057011	1.968311	0.479269
H	-1.457598	1.324386	0.562005
Cl	3.454433	0.0	0.0
