15

C	-0.44977	0.011138	-1.464807
C	0.0	0.0	0.0
Cl	0.111057	1.476323	-2.316641
H	1.094817	0.0	0.0
H	-1.8e-05	-0.835393	-1.989585
C	-1.90521	-0.072297	-1.572776
N	-3.075483	-0.167962	-1.621306
C	-0.460441	-1.292049	0.664059
H	-0.136284	-2.169187	0.097841
H	-0.005749	-1.356451	1.655176
H	-1.550901	-1.325221	0.768712
N	-0.515266	1.183901	0.682181
H	-1.062028	0.920021	1.490196
H	0.266803	1.742448	0.998625
Cl	3.437317	0.0	0.0
