15

C	-0.41079	0.006992	-1.474657
C	0.0	0.0	0.0
Cl	-2.195475	0.12543	-1.704378
H	1.102845	0.0	0.0
H	0.009124	0.895742	-1.949525
C	0.048222	-1.176982	-2.195773
N	0.394472	-2.126164	-2.792466
C	-0.529291	-1.20579	0.749142
H	-0.090773	-1.223305	1.750189
H	-1.619246	-1.165527	0.83765
H	-0.246269	-2.135715	0.25159
N	-0.468723	1.257799	0.602662
H	0.314136	1.906864	0.586716
H	-0.67339	1.088747	1.581351
Cl	3.404142	0.0	0.0
