15

C	-0.398474	0.021641	-1.473373
C	0.0	0.0	0.0
Cl	-2.186596	0.235787	-1.691765
H	1.097338	0.0	0.0
H	0.058242	0.900132	-1.931226
C	-0.008192	-1.182974	-2.200982
N	0.282684	-2.148452	-2.801962
C	-0.500527	-1.232627	0.740061
H	-0.136732	-2.153498	0.277165
H	-0.121248	-1.204882	1.764217
H	-1.595053	-1.26208	0.772424
N	-0.406146	1.276455	0.582842
H	-1.335106	1.202548	0.983386
H	0.244022	1.504229	1.324915
Cl	3.425507	0.0	0.0
