13
Coordinates from ORCA-job run
  C   -0.41972573025152      0.16314895123662      0.44509882335596
  C   1.01203407133906     -0.37961968926798      0.61541252270541
  Br  -1.37273100996497     -0.22420376693674      2.11946810531365
  H   1.49452037614797      0.10105170599874      1.47000125041554
  H   0.95753561357317     -1.45264727609604      0.81984625597072
  C   -0.38977375696686      1.61447928022215      0.28266894984123
  N   -0.35328899179946      2.77780741510582      0.11775308700418
  C   -1.15618859693422     -0.49860608926631     -0.71377957645227
  H   -2.17931540491216     -0.12758555121857     -0.77602357835508
  H   -1.18047943569773     -1.57997585353582     -0.56499634267607
  H   -0.64019149379085     -0.27428940672151     -1.65083558162114
  C   1.80464100826310     -0.15075886215158     -0.59193012075403
  N   2.42196335099448      0.03119914263120     -1.57368379474809
