13
Coordinates from ORCA-job run
  C   -0.34292308890208      0.14354217086708      0.25294388973345
  C   1.00702543066607     -0.50004571489264     -0.10538375609565
  Br  -0.65466740209858     -0.08325437622501      2.17642089851749
  H   1.15101521033496     -0.41415480999358     -1.18840378547073
  H   0.96412346002956     -1.56353202710008      0.14664722801698
  C   -0.30862642936494      1.57635622906246     -0.02786192549176
  N   -0.28964109455890      2.71849095620663     -0.30564685075366
  C   -1.47760671668112     -0.52735087334625     -0.51560783087489
  H   -2.43624934509277     -0.08361596273008     -0.24710051836249
  H   -1.50435209921183     -1.59273490097309     -0.27966054024627
  H   -1.31781130351346     -0.39761055796746     -1.58972835799533
  C   2.14299925949709      0.11553473286542      0.57431401144665
  N   3.06571411889600      0.60737513422661      1.10706753757622
