13
Coordinates from ORCA-job run
  C   -0.42885675500616      0.16862295680725      0.43375482865236
  C   1.00731675521086     -0.34973226885031      0.63940161772029
  Br  -1.40209821790049     -0.19002316400117      2.10286444686727
  H   1.47017966308853      0.15967993051547      1.48821912902686
  H   0.96421219005404     -1.41775667788798      0.87112014202706
  C   -0.41571092603722      1.61589443500344      0.23663292151093
  N   -0.39278260702535      2.77620036144476      0.04943513872989
  C   -1.13838757341999     -0.53215971996226     -0.71887975518523
  H   -1.15064884321067     -1.60963665509129     -0.54294669446913
  H   -0.61095704285396     -0.32474848293876     -1.65342457974185
  H   -2.16526261479143     -0.17690831932857     -0.80599511886355
  C   1.81568403064500     -0.14181402281589     -0.56120200009654
  N   2.44731194124684      0.02238162710530     -1.53698007617836
