13
Coordinates from ORCA-job run
  C   -0.40593904429816      0.14623722708016      0.46321772117803
  C   1.01731119736655     -0.43524973999949      0.56587729846426
  Br  -1.32701791397374     -0.31810278138520      2.13596738029767
  H   0.94435323718337     -1.51683753961892      0.71099802331154
  H   1.53102993701368     -0.01363949420135      1.43339978795728
  C   -0.34528965906949      1.60352878927519      0.38677332111376
  N   -0.27789534134536      2.77392590412417      0.29874079578470
  C   -1.18439747026899     -0.43151701539615     -0.71279062585097
  H   -0.68593756440074     -0.16506903393494     -1.64817340418240
  H   -1.22943914123283     -1.51879990828178     -0.62508538858385
  H   -2.20016499608628     -0.03625557340188     -0.72827352113654
  C   1.78431611277971     -0.15539461564030     -0.64711242665881
  N   2.37907064633229      0.06617378138051     -1.63453896169467
