13
Coordinates from ORCA-job run
  C   -0.35187075261290      0.17559418273158      0.21784469876793
  C   1.00628985806580     -0.51252234489069      0.00046415786692
  Br  -0.74768994458804      0.19005193004446      2.13904498232956
  H   0.94198828199404     -1.53783200365442      0.37591831513994
  H   1.19865030492188     -0.55789298042808     -1.07745894920292
  C   -0.29183146950091      1.56222815786610     -0.23671930607437
  N   -0.24934847497125      2.65976073583276     -0.65587035920283
  C   -1.45897461312411     -0.58073753310142     -0.51053924390603
  H   -1.50574539929607     -1.60862783474903     -0.14608404003336
  H   -2.42400560741687     -0.10337301295725     -0.34068180234735
  H   -1.25238344723513     -0.58561465004999     -1.58454500516635
  C   2.11664386942776      0.17544798405789      0.65254768025958
  N   3.01827739433581      0.72351736929807      1.16607887156929
