13
Coordinates from ORCA-job run
  C   -0.43315533863608      0.14080030830845      0.43902304662562
  C   1.00071647646216     -0.39008543436622      0.62781453386693
  Br  -1.42566849707676     -0.32252235105583      2.07085849335887
  H   0.95556153057273     -1.47056406094817      0.79131981229351
  H   1.45407595955192      0.06496049473587      1.51188010980699
  C   -0.41834046909700      1.59749669002789      0.33441371255557
  N   -0.39282258123245      2.76709200618663      0.21864463309028
  C   -1.12965632228638     -0.48452911559141     -0.76386538350791
  H   -0.59031717955126     -0.22033775338169     -1.67709261619386
  H   -2.15467060410169     -0.12134887058814     -0.84066314819098
  H   -1.14662619788627     -1.57098842300800     -0.65620630269738
  C   1.82126218602072     -0.10742266260961     -0.54916711806237
  N   2.45964103726035      0.11844917229022     -1.50795977294527
