13
Coordinates from ORCA-job run
  C   -0.36525466385015      0.23734455499036      0.37686873987255
  C   1.16706414359976      0.12174235112306      0.26073394680831
  Br  -0.94880479957848     -0.73617681906879      1.97798009729267
  H   1.63865233574634      0.49164278960967      1.17439351106002
  H   1.49840989194855      0.75706258127735     -0.56844250277173
  C   -0.70013196901048      1.64589649911595      0.57296085851095
  N   -0.94636332402684      2.78957861262213      0.68795667089283
  C   -1.08670161650490     -0.32475129570825     -0.84284059409737
  H   -0.85708291680462     -1.38521089288771     -0.95528746283247
  H   -2.16470684629661     -0.20427725580599     -0.73547257667020
  H   -0.75821323517468      0.21200204506395     -1.73772455898770
  C   1.59321707273831     -1.25163235144489      0.00744565756298
  N   1.92891592721379     -2.35322081888686     -0.21857178664084
