13
Coordinates from ORCA-job run
  C   -0.34401754757107      0.19763089368581      0.21050789462277
  C   1.01009229505099     -0.50589351260212      0.01952586108421
  Br  -0.66066916315645      0.43553602932300      2.13232201834736
  H   1.15656526891871     -0.68253901644736     -1.05200264200511
  H   0.97205127430336     -1.47745921034168      0.52030807243377
  C   -0.31525545697556      1.52217376374358     -0.40399406717763
  N   -0.30101023817368      2.56461222744830     -0.94726929934952
  C   -1.47352632373241     -0.64309689831340     -0.37718524269056
  H   -2.43471246460124     -0.15242358865394     -0.22415036021870
  H   -1.31113353562394     -0.77347262174432     -1.45095606159162
  H   -1.49658488700866     -1.62134338219866      0.10677702381866
  C   2.14051505794951      0.26229131750611      0.53276952715262
  N   3.05768572062045      0.87498399859468      0.93334727557376
