13
Coordinates from ORCA-job run
  C   -0.34378547160059      0.25652773640924      0.38196442142198
  C   1.17932137551209      0.13306733897018      0.18364073506381
  Br  -0.83303555122752     -0.63580159463628      2.06061915174106
  H   1.46065374155180      0.71902048953020     -0.69867288777009
  H   1.70209421802127      0.55455580006976      1.04569729078127
  C   -0.66864313233393      1.67337213419446      0.52880512207859
  N   -0.90636294288167      2.82209886953737      0.60430973737251
  C   -1.13341082410562     -0.36386032114250     -0.76491804334682
  H   -0.90575387332456     -1.42790242176723     -0.84121237118213
  H   -0.86127812183262      0.13139208917578     -1.70153349019853
  H   -2.20377800997518     -0.24109269805226     -0.59967711515499
  C   1.59405362365141     -1.25334794624170     -0.01210386527236
  N   1.91992496854512     -2.36702947604702     -0.18691868553429
