13
Coordinates from ORCA-job run
  C   -0.31640475918663      0.36758745777370      0.30981024872175
  C   1.18766387810545      0.17964612446389      0.03235253268791
  Br  -0.64513634554267      0.06275410700492      2.22081129720870
  H   1.77033167976921      0.84791521665481      0.67099026899086
  H   1.38303356783828      0.45702211467913     -1.00965969054868
  C   -0.65991123847691      1.75817769407521      0.02204832656633
  N   -0.91640053552911      2.87158514605658     -0.25495088127722
  C   -1.18376956026124     -0.58408928794810     -0.50619903138686
  H   -0.94213321763896     -1.61732841676156     -0.25319531196277
  H   -0.99766545386423     -0.42090458239413     -1.57187265277625
  H   -2.23951630578369     -0.40601046747005     -0.30149766258982
  C   1.61395350743649     -1.20059685964571      0.24524220072773
  N   1.94695478313400     -2.31575824648868      0.39512035563832
