13
Coordinates from ORCA-job run
  C   -0.34297146811885      0.33446821870860      0.31868289445186
  C   1.17871428387575      0.20352372439199      0.11416649994107
  Br  -0.76923130706551     -0.12950171753859      2.17759966456726
  H   1.70680473732394      0.83274575426728      0.83476361376158
  H   1.42350819940272      0.56633236047035     -0.89050888803021
  C   -0.70833132456365      1.73531869426867      0.12164956998903
  N   -0.98255539710763      2.86004789231623     -0.08209906354131
  C   -1.13694150808038     -0.56871498329938     -0.61827671124926
  H   -0.88326138786811     -1.61303002915250     -0.43153996425575
  H   -0.89402894488633     -0.31869024591025     -1.65515016834577
  H   -2.20698635495104     -0.43027896852459     -0.46369065993129
  C   1.63022245502389     -1.17898434081218      0.24486064421040
  N   1.98505801701520     -2.29423635918565      0.33154256843240
