13
Coordinates from ORCA-job run
  C   -0.33869201406643      0.36164570043808      0.29285565173886
  C   1.18187269166023      0.18982704020742      0.11169089641892
  Br  -0.78792317828413      0.03254199901615      2.17507463621645
  H   1.71581309552466      0.85551707452619      0.79420063695367
  H   1.44172777903629      0.48083803250733     -0.91237612939174
  C   -0.67685946286218      1.75203834821675     -0.00193587075299
  N   -0.93074296353965      2.86447385701346     -0.28478047714293
  C   -1.14225049951433     -0.58822696965410     -0.58800317272238
  H   -0.88781199558158     -0.41222253059984     -1.63737100921662
  H   -2.21064942978113     -0.42070509869857     -0.45152397225888
  H   -0.90887864815694     -1.62216390606994     -0.33023554609383
  C   1.60593757285557     -1.18924790858031      0.33665296815126
  N   1.93845705270961     -2.30331563832263      0.49575138810020
