13
Coordinates from ORCA-job run
  C   -0.34798127128799      0.16863502695944      0.22737261688378
  C   1.01253235929773     -0.49990608054726     -0.03076676049763
  Br  -0.69319238794823      0.16282051987841      2.15907996122034
  H   1.17598650618020     -0.53856869423501     -1.11367094046323
  H   0.97272015128427     -1.52749255992987      0.34179576149277
  C   -0.31840990140247      1.55992744742638     -0.21575803055943
  N   -0.29958093825204      2.66330290112855     -0.62091634515134
  C   -1.46457607160760     -0.59618728775108     -0.47710252063684
  H   -1.48715930467212     -1.62806061336978     -0.12184401311401
  H   -1.28829120577833     -0.58796463542263     -1.55638790985794
  H   -2.43074034712968     -0.13391791930541     -0.27544543872107
  C   2.13084187844518      0.19970409282100      0.59490292764787
  N   3.03785053287109      0.75770780234725      1.08774069175672
