13
Coordinates from ORCA-job run
  C   -0.53449180118035     -0.20168358129697      0.07210609386798
  C   0.86877365601321     -0.82389684995963      0.08213342306613
  F   -1.24656703958694     -0.79869616693334     -0.95841894078818
  H   1.42935052619802     -0.46164805441010      0.94857256852499
  H   0.76937877932333     -1.90872921455966      0.17416207538451
  C   -0.53610271519115      1.29782257556061     -0.14686232042246
  H   0.01020362227131      1.80563032628140      0.65020559246501
  H   -0.06852399738249      1.52146086065762     -1.10688577042579
  H   -1.56422501145474      1.66097676051171     -0.15971011803870
  C   -1.19917108528534     -0.54778281223509      1.34272238301534
  N   -1.70327215509602     -0.80898812797495      2.37025384738975
  C   1.59704836781649     -0.50497442843925     -1.14325651795295
  N   2.17759885355466     -0.23049128720235     -2.12502231608561
