13
Coordinates from ORCA-job run
  C   -0.54828932331292     -0.16154285185980      0.06877673497461
  C   0.79995055404936     -0.89440475517380      0.03480473033418
  F   -1.31401352747245     -0.65028893888965     -0.98045287239833
  H   1.39352277739403     -0.62015077462739      0.91152008235106
  H   0.61420261320818     -1.97094981561292      0.07695189756781
  C   -0.42984326699282      1.34185055746616     -0.08131319957924
  H   -1.42443908827783      1.78839625689369     -0.05660966072375
  H   0.17020226721649      1.76499548217383      0.72666675294210
  H   0.03873181293512      1.57087349264396     -1.03968049400773
  C   -1.23070335996488     -0.51171337948824      1.32866759311103
  N   -1.74915046695484     -0.77897626225069      2.34753821218170
  C   1.54346678767028     -0.57636780273619     -1.18160134352580
  N   2.13736222050227     -0.30172120853897     -2.15526843322765
