13
Coordinates from ORCA-job run
  C   -0.44470507191733     -0.05850232592383      0.00522247415727
  C   1.00090304433911     -0.25773768108530     -0.46118425507983
  F   -1.25950121087504     -0.80579637847958     -0.83298714198569
  H   1.67682500498126      0.32496340047854      0.17093094544432
  H   1.07906086634870      0.12138744013113     -1.48423477336429
  C   -0.87246835894610      1.39425955586497     -0.08221568556579
  H   -0.75318088582191      1.74275732486375     -1.11005914738492
  H   -0.27438585967511      2.01712111865601      0.58527859373208
  H   -1.92244444445326      1.48070964608555      0.19926462652500
  C   -0.61155580689181     -0.56880499701179      1.37805731078725
  N   -0.73152073692548     -0.93469475754207      2.48726460826925
  C   1.39714223882784     -1.66364550565977     -0.43761891758448
  N   1.71683122100912     -2.79201684037762     -0.41871863795018
