18
Coordinates from ORCA-job run
  C   -0.92354145018481     -0.28516690804985     -0.20371551642745
  C   0.57915378076849     -0.12294583171050     -0.51700235756060
  Br  -1.66762716894881     -1.73832988581558     -1.32078375790007
  H   0.63642786552373      0.04295861112009     -1.60022457778413
  C   -1.74649222149820      0.96686163552601     -0.50070265241570
  H   -1.56082171698939      1.29032992052638     -1.52732811395920
  H   -1.47364540960249      1.76914780508070      0.18713162105906
  H   -2.81052721744932      0.76026469293159     -0.38350791611800
  C   -1.11012018518141     -0.68596604499606      1.18950903778473
  N   -1.24060865495621     -0.95160974542879      2.32747943974665
  C   1.39521355604236     -1.36212703746212     -0.15798303451245
  H   2.43468283926761     -1.21555898485415     -0.46119392836872
  H   1.02292221547709     -2.25808589724431     -0.65497970047976
  H   1.38268292318688     -1.53468787729387      0.92188284670974
  C   1.14903703948773      1.10253447553379      0.20358480499314
  H   2.22616485600328      1.15481381224837      0.02841067380337
  H   0.71440952559585      2.03836617379607     -0.14993770443597
  H   0.99368942345764      1.03020108609224      1.28436083586536
