18
Coordinates from ORCA-job run
  C   -0.89522099957983     -0.25349148083666     -0.14585882732836
  C   0.58178548273804      0.03080556662660      0.20631964600904
  Br  -1.03736364578489     -1.20392521840577     -1.87398407655716
  H   0.52329041016796      0.49382698674769      1.20271955372118
  C   -1.75108662512516      1.00779134905042     -0.24016814025446
  H   -1.43088273437103      1.62453028036885     -1.07903885833038
  H   -2.80022109439299      0.74677151834465     -0.38304888801913
  H   -1.65225825293339      1.57931857350539      0.68785954860579
  C   -1.46564120700614     -1.15076068211426      0.85866253366721
  N   -1.91605356846635     -1.83041792614233      1.70585472194918
  C   1.23818152238538      1.02896272725874     -0.74352465519423
  H   2.27808656448208      1.17943080992661     -0.44375171528986
  H   0.75020194374279      2.00483421015056     -0.73004562429365
  H   1.23705590701861      0.65178539555579     -1.76873190783349
  C   1.41826387045153     -1.23999809213370      0.32927724435631
  H   0.95369003814498     -1.97400472517232      0.99129316023248
  H   1.56963663957334     -1.70317484627106     -0.64777597773219
  H   2.39953574895507     -0.99128444645920      0.74094226229173
