17

C	-0.466239	-0.019682	-1.473705
C	0.0	0.0	0.0
Cl	-0.043773	1.533819	-2.264901
H	1.090763	0.0	0.0
C	0.263332	-1.149244	-2.196268
H	1.338648	-1.016262	-2.05316
H	0.015153	-1.134311	-3.258546
H	-0.046122	-2.10906	-1.776775
C	-1.916132	-0.204366	-1.592656
N	-3.061025	-0.446416	-1.706082
N	-0.461048	-1.098991	0.783408
H	0.204712	-1.857408	0.771341
H	-1.402324	-1.399488	0.569559
N	-0.509717	1.257504	0.650926
O	0.292809	2.117053	0.99013
O	-1.73231	1.31478	0.803632
Br	3.471536	0.0	0.0
