17

C	-0.440197	0.018946	-1.474157
C	0.0	0.0	0.0
Cl	-2.250758	0.133739	-1.565938
H	1.092585	0.0	0.0
C	0.174882	1.142464	-2.293804
H	-0.20927	2.106866	-1.970265
H	1.256293	1.121676	-2.139203
H	-0.062291	0.994591	-3.348518
C	-0.071561	-1.275177	-2.05169
N	0.243106	-2.279525	-2.572961
N	-0.49672	-1.131496	0.68783
H	0.098011	-1.332103	1.483679
H	-1.450727	-0.982096	0.996527
N	-0.43145	1.319838	0.640789
O	0.178976	2.333836	0.323715
O	-1.369507	1.28406	1.43704
Br	3.400769	0.0	0.0
