17

C	-0.458258	0.059928	-1.465861
C	0.0	0.0	0.0
Cl	-2.25545	0.338383	-1.52015
H	1.092563	0.0	0.0
C	0.249433	1.106944	-2.315771
H	-0.012022	0.960433	-3.365197
H	1.32733	0.983811	-2.171316
H	-0.035124	2.108084	-2.001632
C	-0.231555	-1.265194	-2.051472
N	-0.061949	-2.277082	-2.623755
N	-0.486289	-1.153986	0.659995
H	-1.424482	-1.010588	1.01006
H	0.129569	-1.388827	1.427037
N	-0.410274	1.296272	0.698988
O	-1.200455	1.210225	1.639267
O	0.079919	2.343629	0.289297
Br	3.405527	0.0	0.0
