17

C	-0.485445	-0.082174	-1.461314
C	0.0	0.0	0.0
Cl	-0.25353	1.490365	-2.298325
H	1.090917	0.0	0.0
C	0.346977	-1.141022	-2.175988
H	0.056271	-1.199624	-3.225754
H	1.401197	-0.870851	-2.086096
H	0.183437	-2.102575	-1.688209
C	-1.91265	-0.40797	-1.525136
N	-3.04324	-0.722724	-1.588577
N	-0.452416	-1.157845	0.702497
H	-1.404026	-1.036475	1.028795
H	0.170316	-1.349897	1.476254
N	-0.509794	1.276928	0.634294
O	0.264743	2.21678	0.773271
O	-1.699803	1.272222	0.970177
Br	3.487246	0.0	0.0
