17

C	-0.384385	0.039587	-1.500271
C	0.0	0.0	0.0
Cl	-2.182266	0.198087	-1.690872
H	1.092032	0.0	0.0
C	0.317395	1.138499	-2.284911
H	-0.034922	2.115302	-1.958864
H	1.39012	1.063959	-2.083608
H	0.118529	1.016659	-3.351278
C	-0.034462	-1.272662	-2.052184
N	0.225636	-2.32611	-2.503139
N	-0.474973	-1.102078	0.755041
H	0.179921	-1.869447	0.69346
H	-1.413605	-1.388674	0.510537
N	-0.475312	1.286112	0.625722
O	0.182749	2.29893	0.387828
O	-1.500883	1.250258	1.30223
Br	3.426629	0.0	0.0
