14

C	0.0	0.0	0.0
C	-0.30058	-0.021432	-1.508857
Br	1.909002	0.0	0.0
H	0.151819	-0.937623	-1.891633
H	0.252973	0.811524	-1.945117
N	-0.443519	1.297953	0.652287
O	-0.501117	1.356232	1.868069
O	-0.571072	2.235477	-0.123525
N	-0.448939	-1.270563	0.702004
O	-0.590394	-2.238077	-0.03249
O	-0.498904	-1.280206	1.919097
C	-1.677268	0.050454	-2.004729
N	-2.503381	0.117214	-2.844276
F	-2.262608	0.0	0.0
