14

C	0.0	0.0	0.0
C	-0.327622	0.121839	-1.501588
Br	1.908866	0.0	0.0
H	0.425359	0.76825	-1.954935
H	-0.178422	-0.880211	-1.907237
N	-0.408498	1.254014	0.760108
O	-0.506106	2.249441	0.053856
O	-0.458451	1.227399	1.976731
N	-0.448892	-1.318862	0.614474
O	-0.57816	-1.38817	1.82217
O	-0.504956	-2.258069	-0.16833
C	-1.630395	0.624626	-1.938827
N	-2.432417	1.116812	-2.647814
F	-2.240603	0.0	0.0
