18

C	-0.451323	-0.055721	-1.46152
C	0.0	0.0	0.0
Br	0.249933	1.654979	-2.370335
H	1.094811	0.0	0.0
C	0.244876	-1.188275	-2.188577
H	-0.119824	-2.136023	-1.782193
H	0.033682	-1.153197	-3.261008
H	1.320947	-1.106629	-2.01247
N	-1.863519	-0.120797	-1.600816
H	-2.124674	-0.1204	-2.580361
H	-2.306729	0.670554	-1.150514
C	-0.427407	-1.237522	0.64516
N	-0.753854	-2.220352	1.203355
C	-0.478088	1.193922	0.823626
H	-0.004196	1.140447	1.806998
H	-0.154939	2.120631	0.34906
H	-1.56395	1.211725	0.968954
H	2.770531	0.0	0.0
