18

C	-0.456232	-0.040791	-1.460087
C	0.0	0.0	0.0
Br	0.292424	1.645807	-2.36701
H	1.094792	0.0	0.0
C	0.20098	-1.192854	-2.191824
H	1.279425	-1.145253	-2.021986
H	-0.011111	-1.147165	-3.263521
H	-0.192172	-2.129738	-1.788448
N	-1.871645	-0.062481	-1.592637
H	-2.283384	0.74518	-1.14265
H	-2.136773	-0.049741	-2.570914
C	-0.431166	-1.237622	0.641892
N	-0.761548	-2.223057	1.193452
C	-0.470346	1.192514	0.830984
H	0.027569	1.150063	1.803207
H	-0.166355	2.119704	0.344377
H	-1.552678	1.199806	1.000024
H	2.768613	0.0	0.0
