14
Coordinates from ORCA-job run
  C   -0.71673577991135      0.00781096176641      0.45845496694161
  C   0.75353593490811     -0.36189326958090      0.24493068596207
  F   -1.10661387463913     -0.56513544054567      1.62968367959821
  H   1.33225373737526      0.07910774371682      1.06228735050455
  N   -0.84384494962167      1.52086281574784      0.69059540930238
  O   0.05206206784035      2.01253699629744      1.36289740045352
  O   -1.85022229854231      2.06129744695256      0.26229213742902
  C   -1.58757253874284     -0.41590570481091     -0.63165384054231
  N   -2.27251996625160     -0.83010212760996     -1.49235356798712
  N   1.29296853593527      0.26350248703469     -1.02939528133038
  O   2.38561552369691     -0.13389036590936     -1.39815843849867
  O   0.59989687490290      1.13800055494530     -1.53708871992060
  C   0.92282052419652     -1.80508708243330      0.20002390825222
  N   1.03635620885361     -2.97410501557096      0.17648430983550
