14
Coordinates from ORCA-job run
  C   -0.70348524590592      0.06873830316996      0.46822612022592
  C   0.75230191625017     -0.35624200616422      0.25280012721380
  F   -1.08098637451022     -0.40274821425489      1.68752610105559
  H   1.36208533998300      0.15885467723571      1.00223605032615
  N   -0.78821151615909      1.59843401333483      0.58745762054115
  O   0.10358545853184      2.10465435454572      1.25409192554166
  O   -1.75670997403835      2.14178169947582      0.08329511655866
  C   -1.60731676171697     -0.41427255489692     -0.56903431800187
  N   -2.31783269544931     -0.87445564627590     -1.38461163131867
  N   1.26052675748708      0.11934634779788     -1.09598781154672
  O   2.27429801762486     -0.41546878694344     -1.51290586283275
  O   0.62855402868202      1.03616464590511     -1.60936766676002
  C   0.89195439463467     -1.79867186169599      0.36433654113020
  N   0.98223665458622     -2.96511497123367      0.47093768786692
