14
Coordinates from ORCA-job run
  C   -0.73308495497387      0.12014681871001      0.41372418777021
  C   0.76944336061372     -0.17071123326604      0.37177403553708
  F   -1.12537209909418      0.01020366047505      1.71237136030274
  H   1.27659321009011      0.60117710098155      0.95853375377513
  N   -0.98983454808210      1.58776633181895      0.04059073978415
  O   -0.15956340413390      2.37841116552630      0.46697796949587
  O   -2.02330238965611      1.82944150082763     -0.56116626193825
  C   -1.52146296474101     -0.76645515182532     -0.43417596715448
  N   -2.13465867089949     -1.53955725741794     -1.07279015570184
  N   1.31015221063979     -0.03923510976716     -1.04092619671041
  O   2.44566293285407     -0.44796822085778     -1.21806590778908
  O   0.57125202883284      0.50509924616627     -1.85366293609305
  C   1.05359891228224     -1.49839550831711      0.89127918330304
  N   1.26057637626789     -2.57092334305440      1.32353619541890
