14
Coordinates from ORCA-job run
  C   -0.65232058488668      0.07195851558400      0.53797001005514
  C   0.78698235806917     -0.31946508233881      0.19038907125123
  F   -0.88162337093931     -0.34030458428349      1.81419140974184
  H   1.45350903969057      0.25035264328625      0.84549935070075
  N   -0.77980517753613      1.60244527766161      0.58335189848924
  O   -1.82567832855528      2.08305849413193      0.17972073930609
  O   0.16675881777824      2.17635473319757      1.10373574786434
  C   -1.64260886608279     -0.49651855546038     -0.36892481772748
  N   -2.41800520998042     -1.02390050414577     -1.07762113275761
  N   1.13619938049937      0.10269105891424     -1.22548903435574
  O   2.13759949732092     -0.40045405547479     -1.70711674345797
  O   0.40496294845977      0.94994202682144     -1.72618947548756
  C   0.98714257193059     -1.75008299084807      0.35098684334879
  N   1.12688692423195     -2.90707697704574      0.49849613302891
