14
Coordinates from ORCA-job run
  C   -0.56604440136019      0.49593264508322      0.15608999301635
  C   0.59881211694211     -0.48247532490517     -0.04786092144178
  F   -0.15683439688535      1.75115333811163     -0.08691926786120
  H   0.29090175653299     -1.48811908598702      0.25340948679917
  N   -1.61840684885332      0.10876415638313     -0.91234531013188
  O   -1.91474399689591      0.95976288221003     -1.72824133294277
  O   -2.02316459591504     -1.04041782593857     -0.80919935614465
  C   -1.23550878453201      0.38743339792767      1.44990099409301
  N   -1.84469326781378      0.30663250026938      2.45208470408634
  N   1.75998841794335     -0.10083461167350      0.86926529849308
  O   1.44358019119087      0.29969865378736      1.98034393930603
  O   2.88452891050908     -0.28030516385251      0.43062524046919
  C   1.03872245448705     -0.46784149805139     -1.43564138434088
  N   1.34186244465016     -0.45038406336425     -2.57051208340001
