14
Coordinates from ORCA-job run
  C   -0.64061064443085      0.14998857728784      0.57673740727215
  C   0.79721822307201     -0.29443171162455      0.26399843760482
  F   -0.82685176541394      0.01981093646505      1.90759279851435
  H   1.47000283931214      0.34778157550122      0.83870729839180
  N   -0.72475416448993      1.65163485763683      0.23963107768890
  O   -0.20287240637556      2.38508444522222      1.06273086030383
  O   -1.25832066138803      1.94338517560067     -0.82059319343141
  C   -1.65872272327650     -0.58198423501444     -0.16704688854998
  N   -2.48179455163198     -1.21094860643067     -0.72322291595463
  N   1.08127523854943     -0.03394744601516     -1.20361371063115
  O   1.57074326372951      1.06274545564532     -1.44792956056046
  O   0.76779660510390     -0.91434712682322     -1.99326772311832
  C   0.98008881667314     -1.69836672701920      0.58851494012707
  N   1.12680193056665     -2.82740517043193      0.87776117234304
