14
Coordinates from ORCA-job run
  C   -0.64510935711185      0.34429342833487      0.47780085402406
  C   0.61122747843897     -0.53066272933711      0.35438019149526
  F   -0.41162936287060      1.27146075099622      1.42760445918827
  H   0.79522743736544     -0.97263527793293      1.33748501506296
  N   -0.94614396900581      1.07795004894141     -0.84787300703294
  O   -0.80227170714662      2.28542891066731     -0.84487508512191
  O   -1.30236656397191      0.34065033801071     -1.75295924480692
  C   -1.81158102336503     -0.47006276759861      0.80896265295773
  N   -2.73184089906187     -1.13521216111308      1.11399681271062
  N   1.79812150713806      0.37797177811703      0.08023424993482
  O   1.79951352115838      0.93546412296896     -1.00961184092524
  O   2.62460539164054      0.46772854895463      0.97698526419669
  C   0.52399133172193     -1.55841042213749     -0.66951730450750
  N   0.49725621507036     -2.43296456887192     -1.45361301717590
