14
Coordinates from ORCA-job run
  C   -0.70485704869484      0.14670863218273      0.49679258030207
  C   0.74275454864521     -0.34693653278449      0.34334239797982
  F   -1.07223515933170     -0.05808467517567      1.77995811059807
  H   1.35977924048404      0.23069912874867      1.03692712715240
  N   -0.68401561422789      1.66918920929111      0.25792803078157
  O   -0.22132801577455      2.31786626442262      1.18167154591933
  O   -1.08858733830206      2.05893581572188     -0.82744185688685
  C   -1.64126757877316     -0.48796239778859     -0.42304184004283
  N   -2.39839423394069     -1.04422408045616     -1.12981507657992
  N   1.22324896978820     -0.01927981368809     -1.05800226096551
  O   1.76464670894553      1.07407414954063     -1.17487106702814
  O   0.99664942290572     -0.84688870744923     -1.93004423417966
  C   0.82731285848299     -1.77331745616171      0.60377720841876
  N   0.89729323979320     -2.92077953640371      0.84581933453090
