14
Coordinates from ORCA-job run
  C   -0.77634617812382      0.17059713348172      0.30143269913597
  C   0.69670530621856     -0.20608494486254      0.48081114240652
  F   -1.35615004642381      0.11081469405078      1.53139461346784
  H   1.15964002960630      0.55004719026214      1.12225491931177
  N   -0.88836827278418      1.64263200056719     -0.12261765551479
  O   -0.09426299393537      2.39430556560315      0.42612900396664
  O   -1.79524554041556      1.92966760569865     -0.88648831297815
  C   -1.48679623162665     -0.68686348693172     -0.63989021389888
  N   -2.04763985168183     -1.43499095060916     -1.35219316639218
  N   1.44054336661211     -0.13959822461785     -0.84130463413240
  O   0.86096663794331      0.43149677889893     -1.75816685959145
  O   2.56155925223811     -0.62029436247505     -0.84849269819278
  C   0.82424290354653     -1.53467069109918      1.05714011912706
  N   0.90315161882630     -2.60705830796706      1.52999104328482
