14
Coordinates from ORCA-job run
  C   -0.51454738033279      0.56487390894538      0.18405802107795
  C   0.53655142735175     -0.47426911643482     -0.23101096189858
  F   -0.00032540643433      1.79435132839639      0.28434480157533
  H   0.03492247662419     -1.40399953761560     -0.50548145132162
  N   -1.56017163490338      0.57656065923750     -0.96335703652681
  O   -2.12731984314093     -0.49209545332296     -1.13760494118506
  O   -1.69619579456936      1.62539367301870     -1.56482375171505
  C   -1.21006051960238      0.17070169917321      1.40802711532788
  N   -1.75575397131432     -0.15604207092226      2.39658126455451
  N   1.43285275890239     -0.80990396747519      0.94982596758747
  O   1.84662863474274      0.13749697774415      1.60387556020616
  O   1.66058899012837     -2.00049189439301      1.11717948508973
  C   1.35239369065617      0.03293888425311     -1.32475505685351
  N   2.00143657189188      0.43448490939541     -2.21785901591840
