14
Coordinates from ORCA-job run
  C   -0.65455362312462      0.33350043282134      0.47372861775947
  C   0.62247844283068     -0.51382566826784      0.36508561709330
  F   -0.44710971533712      1.27781851623781      1.41218955769056
  H   0.81784505472886     -0.93375736287626      1.35558412637777
  N   -0.95957392517150      1.04299844652778     -0.86414716675028
  O   -1.31670262345458      0.29011250199181     -1.75602207569037
  O   -0.81296929847052      2.25019530957349     -0.88313314724839
  C   -1.80457274375949     -0.50186107598832      0.80911643258856
  N   -2.71212624547856     -1.18164683287334      1.11999200697620
  N   1.78467064051707      0.42261173093038      0.07559713018320
  O   1.80175455983252      0.91943599884075     -1.04312877506371
  O   2.57431813060691      0.59677099615121      0.99313526754279
  C   0.55776018681398     -1.55872858609959     -0.64266134383274
  N   0.54578115946637     -2.44362440696920     -1.41533624762637
