14
Coordinates from ORCA-job run
  C   -0.54680735252271      0.51126102905379      0.16108056261836
  C   0.58294490273748     -0.50554313493451     -0.05341570847276
  F   -0.09075493721095      1.75364485748490     -0.06676076896770
  H   0.24142884115358     -1.50192546286502      0.24149946341085
  N   -1.61227969269008      0.17612017511409     -0.91134881583566
  O   -2.05540429388622     -0.96028653933293     -0.82460985244452
  O   -1.88300249042009      1.04967633032330     -1.71239157320866
  C   -1.22087317834355      0.41441261736966      1.45353934581752
  N   -1.83301790314099      0.34882220690912      2.45494302902099
  N   1.75442393526393     -0.16643684089728      0.86701392995499
  O   1.44583766628837      0.16119837639392      2.00395236672726
  O   2.87602239969944     -0.29947442882148      0.40499510450451
  C   1.02028880819680     -0.49510878233463     -1.44185953669081
  N   1.32019329487500     -0.48636040346293     -2.57763754643436
