14
Coordinates from ORCA-job run
  C   -0.53944154311754      0.54624898462128      0.15402292091796
  C   0.56447467155650     -0.45845016270214     -0.20533782769363
  F   -0.07602600525823      1.79660252446496      0.24577286931383
  H   0.10867960818716     -1.41343415138618     -0.47271992767802
  N   -1.54981495916960      0.49605115155286     -1.02397742078875
  O   -1.71812138125870      1.53087031663482     -1.64103745305270
  O   -2.06114569302566     -0.60010129937785     -1.20026176251707
  C   -1.25776857640537      0.14868861488401      1.36374830698605
  N   -1.82336200342912     -0.18610487796122      2.33844190069279
  N   1.43076189488606     -0.72853058198752      1.01379453234175
  O   1.64171177040409     -1.90851591457823      1.26123193845934
  O   1.83560434127925      0.25420705468829      1.61910081265894
  C   1.39348859891478      0.05794202940827     -1.28455514799703
  N   2.05295927643638      0.46552631173864     -2.16722374164347
