14
Coordinates from ORCA-job run
  C   -0.52136518496086      0.52534069323562      0.17676139149192
  C   0.55553983387609     -0.54106301822890     -0.06997027465399
  F   0.01899706410817      1.75040750854358      0.06693221701527
  H   0.14553752072604     -1.53168912453662      0.14464771235061
  N   -1.55631688043652      0.34165742331487     -0.95926044764708
  O   -1.74064297531190      1.29067677801580     -1.69650677108923
  O   -2.06744394628589     -0.76886776600109     -0.98214667509369
  C   -1.25521924543752      0.37499451065037      1.43100481460887
  N   -1.91239367121395      0.27654656525952      2.40062009595190
  N   1.69847655485938     -0.32571978614516      0.92028872010115
  O   1.34914394508304     -0.20587390851116      2.08614527253513
  O   2.83488774927875     -0.32665792737836      0.47520457629124
  C   1.04960555202495     -0.46168458352507     -1.43659381386641
  N   1.40019368369019     -0.39806736469341     -2.55612681799568
