14
Coordinates from ORCA-job run
  C   -0.50134055104322      0.56042336800747      0.04323984101940
  C   0.53355497932570     -0.57068662800017     -0.02184790800139
  F   0.06156133668056      1.72960321092057     -0.29944090536877
  H   0.06222634979239     -1.50901486610692      0.27627520651310
  N   -1.58201106483488      0.20724135011238     -1.00570536191296
  O   -2.14406130170857     -0.85838928102223     -0.79785723724359
  O   -1.74678069870600      1.00158082953526     -1.91198729454882
  C   -1.16715051739961      0.65718856654272      1.34038733531263
  N   -1.72210304466807      0.76288969944196      2.37128574398898
  N   1.60620862687550     -0.27014176122538      1.01428683029272
  O   2.59165733979162      0.34702068808112      0.63776297029473
  O   1.34436220295216     -0.66047600758553      2.14580614604289
  C   1.11406068150929     -0.65497265763722     -1.35274749784019
  N   1.54881566143312     -0.74326651106402     -2.44045786854871
