14
Coordinates from ORCA-job run
  C   -0.56004092766499      0.50419548146892     -0.01695642048016
  C   0.59400189531379     -0.50660458632481      0.02568106357854
  F   -0.18609124063570      1.61584191120893     -0.66856682485306
  H   0.26945131827641     -1.40361632043926      0.55612734689379
  N   -1.69220857557396     -0.17981359614070     -0.81876896867736
  O   -2.03556328298714      0.36130881187692     -1.85261695303672
  O   -2.10487691309414     -1.21239464367242     -0.31078786239660
  C   -1.09043727122884      0.82402370206991      1.30659003715682
  N   -1.53396699231346      1.10730977488160      2.35784894686877
  N   1.71322456311099      0.10931715181634      0.85038291420950
  O   2.55143387465705      0.76704196972563      0.25098828751821
  O   1.63259800378093     -0.09633526732365      2.05570498115110
  C   1.05393116275762     -0.80914554658202     -1.32052576893945
  N   1.38854438560142     -1.08112884256539     -2.41310077899337
