13

C	0.0	0.0	0.0
C	-0.476924	-0.118702	-1.439215
Br	1.958294	0.0	0.0
H	-1.573051	-0.188301	-1.397121
H	-0.29242	-0.894606	0.546692
H	-0.15334	0.72679	-2.045616
N	-0.505714	1.154347	0.677902
H	-1.51477	0.998609	0.775029
H	-0.375743	1.976612	0.097523
N	0.021445	-1.340806	-2.119387
O	0.419806	-1.230324	-3.279145
O	-0.024766	-2.395579	-1.48914
Cl	-3.537098	0.0	0.0
