13

C	0.0	0.0	0.0
C	-0.494338	0.118356	-1.42692
Br	1.949954	0.0	0.0
H	-0.166774	1.049731	-1.882145
H	-0.258364	-0.985982	0.391725
H	-1.589496	0.045215	-1.39281
N	-0.511434	1.123047	0.736413
H	-1.53269	1.057829	0.649247
H	-0.292235	0.996798	1.718414
N	-0.007135	-0.985999	-2.288888
O	0.365512	-0.696236	-3.426285
O	-0.038967	-2.125845	-1.830199
Cl	-3.551895	0.0	0.0
