13

C	0.0	0.0	0.0
C	-0.524099	0.003115	-1.417789
Br	2.030941	0.0	0.0
H	-0.21721	-0.885034	-1.96408
H	-0.219711	-0.978742	0.423607
H	-1.623738	0.065229	-1.325924
N	-0.526947	0.999016	0.793642
H	-0.453522	1.93158	0.425911
H	-0.359772	0.91508	1.780697
N	-0.059768	1.157974	-2.229126
O	0.245496	0.93848	-3.400473
O	-0.041425	2.270271	-1.70108
Cl	-3.728169	0.0	0.0
