13

C	0.0	0.0	0.0
C	-0.481493	-0.603025	-1.309653
Br	1.944321	0.0	0.0
H	-1.579094	-0.620661	-1.257066
H	-0.298556	-0.650844	0.819662
H	-0.132031	-0.034442	-2.171591
N	-0.507506	1.319525	0.235638
H	-0.381005	1.880978	-0.599089
H	-1.516364	1.203622	0.378967
N	-0.02746	-2.002896	-1.512687
O	0.33953	-2.328836	-2.642648
O	-0.086655	-2.759667	-0.546495
Cl	-3.543943	0.0	0.0
