13

C	0.0	0.0	0.0
C	-0.513268	-0.02845	-1.423826
Br	2.026586	0.0	0.0
H	-1.611626	0.036181	-1.33826
H	-0.236088	-0.964599	0.445225
H	-0.205269	-0.928981	-1.949525
N	-0.529969	1.019551	0.763728
H	-0.436896	0.926884	1.759201
H	-0.424498	1.949638	0.399648
N	-0.048526	1.10862	-2.259645
O	0.018486	2.224067	-1.742722
O	0.206486	0.872028	-3.438197
Cl	-3.740462	0.0	0.0
