13

C	0.0	0.0	0.0
C	-0.47324	0.0092	-1.454421
Br	1.962145	0.0	0.0
H	-1.566434	0.10973	-1.41964
H	-0.291198	-0.971728	0.400379
H	-0.175684	-0.894293	-1.982992
N	-0.489785	1.015175	0.876047
H	-1.492676	0.833483	0.971777
H	-0.388016	1.914011	0.419661
N	0.071506	1.137904	-2.246961
O	-0.029997	2.272236	-1.777028
O	0.579696	0.881405	-3.338663
Cl	-3.529566	0.0	0.0
