13

C	0.0	0.0	0.0
C	-0.463194	0.028265	-1.456301
Br	1.978578	0.0	0.0
H	-1.556749	0.121776	-1.424298
H	-0.28611	-0.979493	0.383933
H	-0.157331	-0.865289	-1.9972
N	-0.490784	0.998301	0.8898
H	-0.399213	1.904223	0.444898
H	-1.492477	0.809558	0.986906
N	0.076037	1.172465	-2.230954
O	-0.010006	2.296694	-1.735285
O	0.561854	0.936721	-3.337094
Cl	-3.520003	0.0	0.0
