14
Coordinates from ORCA-job run
  C   -0.34474111044002      0.15665047069566     -0.24501441059692
  C   1.07858955627412     -0.42894421048110     -0.13109383794498
  F   -0.41149923210656      0.68264655030895     -1.53333052900491
  H   1.18221928854466     -0.96130790901939      0.81878938948919
  H   1.24575226521282     -1.14292141013887     -0.94189968885018
  C   -1.39068658806254     -0.93076295521074     -0.12559886658158
  H   -1.22068078958524     -1.69967093399456     -0.88051046024372
  H   -2.37224273702400     -0.48506654030714     -0.28632443176139
  H   -1.36743269891332     -1.39650582543563      0.86265482055231
  N   -0.64192363094009      1.23267283395931      0.65032335992161
  H   0.08896698485300      1.93446146364783      0.64389292820792
  H   -0.78878864927337      0.90297908887478      1.59430986159460
  C   2.08491048835592      0.62664011680120     -0.19844352018377
  N   2.85755685310461      1.50912926029969     -0.22775461459818
