14
Coordinates from ORCA-job run
  C   -0.42444224636925      0.23638374649187     -0.22597336547366
  C   1.01512513767783      0.20402185967779     -0.74520163890906
  F   -1.18737948915054      0.60361763144295     -1.36646496268642
  H   1.06346863774155     -0.46141332521615     -1.61040044238464
  H   1.28914276847193      1.20539192089518     -1.09165836042056
  C   -0.92851702728453     -1.11678584379023      0.22121904396201
  H   -1.98089386963999     -1.03761778093039      0.50322462025884
  H   -0.85106301334056     -1.83362317829221     -0.59719689321107
  H   -0.35602232006988     -1.47506470315808      1.07672952292000
  N   -0.54314287340361      1.19393425063931      0.80904343343396
  H   -1.48309431262410      1.21623912535699      1.18333614029099
  H   -0.29264967626094      2.12034440409684      0.48649788420671
  C   1.95991212959376     -0.24058737834946      0.27377069611248
  N   2.72055615465835     -0.61584072886441      1.08407432190042
