14
Coordinates from ORCA-job run
  C   -0.33595874189138      0.09552898105053     -0.08825496577514
  C   1.11439916269211     -0.31446768307586     -0.35756211680969
  F   -0.76528920168977      0.75827841380638     -1.26519965221917
  H   1.15137994006261     -0.90424288496290     -1.27626645045791
  H   1.47678012340812     -0.92895096571903      0.46954916229040
  C   -1.23553036922664     -1.10951552294143      0.08064635490725
  H   -2.26882014198085     -0.77688951612927      0.20152946502604
  H   -1.18756692378345     -1.74209993851564     -0.80658164681687
  H   -0.94449875642428     -1.68517332256739      0.95967765422635
  N   -0.40337748802331      0.94554628637117      1.04275733510310
  H   0.13682382067103      1.79097196206259      0.89897166380956
  H   -1.36224930313581      1.20136679643698      1.24152619881098
  C   1.97810436162487      0.85473303387455     -0.50378945633666
  N   2.64580351769675      1.81491436030932     -0.59600354575822
