14
Coordinates from ORCA-job run
  C   -0.33689163461345      0.19033174486661     -0.19349573100743
  C   1.10537923080825     -0.30884203695718     -0.29955807047323
  F   -0.61780402705773      0.83083050470315     -1.40789146002116
  H   1.34383377897488     -0.95104938453260      0.55365050680274
  H   1.19249308016398     -0.91292977602590     -1.20553070838746
  C   -1.31699526549368     -0.96643283236131     -0.10254373643551
  H   -1.16380677507535     -1.53144908539647      0.81901542649507
  H   -2.33425607055476     -0.56752296079433     -0.10500639920239
  H   -1.21581054499827     -1.63482858630871     -0.95973667557490
  N   -0.45096872699884      1.15176871422033      0.85049229372608
  H   0.22868047261344      1.05298891781268      1.58804257145898
  H   -1.38507315811936      1.22281360485906      1.22563530292561
  C   2.07480882323765      0.78341965000237     -0.36441532769384
  N   2.87541081711327      1.63990152591231     -0.39765799261254
