14
Coordinates from ORCA-job run
  C   -0.39491954329139      0.12355457266330     -0.18083814009755
  C   1.08278849625083     -0.29892745844623     -0.32132807955237
  F   -0.72643443400281      0.67614932243355     -1.41595263672818
  H   1.19211349374945     -0.96074709554938     -1.18449793259582
  H   1.39451479194989     -0.84863469407585      0.57143347591240
  C   -1.28384790777989     -1.07929190348214      0.05088799198746
  H   -2.32126010868169     -0.74520011343360      0.06089545925230
  H   -1.15143652989628     -1.80544460013530     -0.75233674492912
  H   -1.05540122373514     -1.56286406605131      1.00372947811087
  N   -0.65772083718823      1.13171591873044      0.80039135062301
  H   -0.01869925764811      1.91309988182256      0.71077407967483
  H   -0.60900897607725      0.75960436572092      1.73885784499902
  C   1.94631212972092      0.86618434126545     -0.48993238458507
  N   2.60499990662970      1.83180152853760     -0.59308376207179
