14
Coordinates from ORCA-job run
  C   -0.33955569094598      0.27131439409914     -0.09831724406847
  C   1.19027473841240      0.32018170197898     -0.11739144683808
  F   -0.74241141923215      0.36002523480795     -1.45119037350692
  H   1.50793787025304      1.27428527123346     -0.54944942577007
  H   1.56270302355263      0.27492394448517      0.90827704010830
  C   -0.89127990829191     -1.02931668584854      0.43945896364173
  H   -0.54394784007288     -1.86500702435754     -0.16812909644173
  H   -1.98254662850813     -1.00705125862435      0.39485929674199
  H   -0.58160323200950     -1.17497332853091      1.47504868805314
  N   -0.81363221568524      1.37916159510712      0.65476397579753
  H   -0.54189101910006      2.25177306718609      0.21743002109881
  H   -1.82364893528484      1.35568492222702      0.72244307759872
  C   1.76969824859886     -0.76492334898108     -0.90400557216840
  N   2.23090300831375     -1.64807848478249     -1.52279790424654
