14
Coordinates from ORCA-job run
  C   -0.40263783755438      0.26326115181271     -0.21954843333586
  C   1.13262287418279      0.35391149472105     -0.14274063109559
  F   -0.69387717979492      0.27991719563744     -1.58403316299475
  H   1.44147144457311      0.41706986585364      0.90434372720499
  H   1.44402542405471      1.27685264828624     -0.64220056850674
  C   -0.94984477046478     -1.02343142337356      0.35680318173276
  H   -0.55968759873258     -1.87632145879384     -0.19846062918613
  H   -0.67431568403714     -1.13337594024434      1.40884054509632
  H   -2.03669829740003     -1.01000639912045      0.26837630258874
  N   -1.05872133071563      1.39095809905960      0.36688251050730
  H   -0.57641678803784      2.26034225043060      0.17979802894203
  H   -1.19812003479397      1.27866166386255      1.36038470002728
  C   1.80398261544429     -0.77610670471743     -0.77995965987904
  N   2.32821716327639     -1.69973244341422     -1.27848591110132
