14
Coordinates from ORCA-job run
  C   -0.31726784419730      0.31409229144373     -0.21793015294629
  C   1.21273375148988      0.32183117725847     -0.15976742883703
  F   -0.67512413280072      0.35359700679284     -1.55978760083770
  H   1.54895010636447      0.38412477631853      0.87968845961605
  H   1.55076226377443      1.22165908614247     -0.67809326230345
  C   -0.93647405111328     -0.94342133675465      0.36426753140550
  H   -2.02248396984993     -0.88347446899930      0.26807261758727
  H   -0.68375987382996     -1.03991827239344      1.42287369418562
  H   -0.58994397329672     -1.83234633014012     -0.16495240039347
  N   -0.77749024061403      1.56156321084308      0.34848056144756
  H   -1.78131349658233      1.62987605011773      0.22092630660542
  H   -0.58813974570783      1.58714389357051      1.34354953209835
  C   1.79935914104201     -0.85984522088479     -0.78486699655330
  N   2.26119206532130     -1.81688186331505     -1.28146086107452
