14
Coordinates from ORCA-job run
  C   -0.40529686650901      0.29536861727599     -0.35860698993441
  C   1.06338787205198      0.10382717979853     -0.75181413826298
  F   -1.05777029154814      0.63240482375744     -1.54612115872038
  H   1.12501476062707     -0.66284945296757     -1.52751759611627
  H   1.42102397764143      1.04716219693321     -1.17161537546734
  C   -1.05645570465179     -0.98203933172703      0.13906858209049
  H   -0.97798512889501     -1.77580386577862     -0.60666732064278
  H   -2.11625506794376     -0.79225106394946      0.32423563143988
  H   -0.59161426601106     -1.31590017217045      1.06835291294753
  N   -0.51249653812729      1.42901309427579      0.51401779866681
  H   -1.44230469855808      1.48751754047496      0.91109614247571
  H   0.15859738207335      1.37797336442378      1.27001075486131
  C   1.88490720212500     -0.27728412532048      0.39177160101549
  N   2.50824736772532     -0.56813880502607      1.34278915564693
