17

C	0.0	0.0	0.0
C	-0.386402	-0.002857	-1.489625
F	1.354958	0.0	0.0
H	-1.438803	-0.403565	-1.533501
C	-0.41838	1.209273	0.864324
H	-0.053011	2.14752	0.460882
H	-0.142123	1.020794	1.889764
H	-1.536137	1.275173	0.859501
N	-0.324346	-1.222015	0.633681
O	0.43063	-1.992563	1.337307
O	-1.751192	-1.430474	0.666597
N	0.437113	-0.969946	-2.196363
O	0.236062	-2.202011	-1.801895
O	0.591387	-0.743274	-3.535127
C	-0.333842	1.336446	-2.073443
N	-0.316348	2.42741	-2.508405
H	-2.031132	0.0	0.0
