14
Coordinates from ORCA-job run
  C   -0.50325709822751      0.10880793478884     -0.28028148669118
  C   0.87038915846969      0.26547942858009     -0.92671544267442
  Cl  -1.73585973974779      0.43269943738501     -1.52164838105635
  H   0.96440112762824      1.26028844519441     -1.36239292389751
  H   0.95603173425396     -0.47223376541549     -1.72865068482691
  N   -0.67287227612811      1.21197180167408      0.77149998984843
  O   -1.42253359898655      0.97078870551590      1.70889341966126
  O   -0.07154948831155      2.26142679359360      0.57274338879686
  C   -0.73330176787292     -1.24117124100162      0.35278544138235
  H   -0.59786077348085     -2.01611526019197     -0.40380425419753
  H   -0.01903902029194     -1.39994495349270      1.16337037916539
  H   -1.74187169896966     -1.30519000999801      0.75456721590810
  C   1.93540531939779      0.05397332232822      0.05018469863572
  N   2.77291812226719     -0.12978063896036      0.85144863994578
