14
Coordinates from ORCA-job run
  C   -0.36995068512690      0.07718216558916     -0.21107859916324
  C   1.11154374667827     -0.20400199102410     -0.44942767946122
  Cl  -1.04887727389554      0.91949683255139     -1.60407883369101
  H   1.51016843284365     -0.77454569773322      0.39082960150412
  H   1.19685009915988     -0.81053130506805     -1.35470403738162
  N   -0.50313878804213      0.96424956082086      1.03466685844916
  O   0.29608159843476      0.70563664032134      1.93025978112923
  O   -1.41618631691658      1.77282198949325      1.08358775770563
  C   -1.15678841479318     -1.18586546859951      0.08224383103000
  H   -2.20557617935245     -0.93739766598515      0.25068103083797
  H   -0.75145589285029     -1.67262765345908      0.97209930279284
  H   -1.09015266117525     -1.86607788008911     -0.76795669810973
  C   1.89629827068430      1.01655621589263     -0.61223745915967
  N   2.53118406435148      1.99410425728960     -0.74488485648243
