16
Coordinates from ORCA-job run
  C   0.39052449659609     -0.45551890041722     -0.12722823675662
  C   -0.74716403756582      0.58216868480094     -0.17996738795993
  Cl  -0.22749310530178     -2.04994686662479     -0.51200901514271
  H   -0.33550375336198      1.56147111162658      0.06652968009733
  N   1.38844656655560     -0.00298917376725     -1.21747088790717
  O   1.63775315606338      1.19880938806269     -1.19621962417734
  O   1.88800619292786     -0.84414275041129     -1.94343475531093
  C   1.16854448092556     -0.46825240952828      1.17407061154992
  H   2.02507026981065     -1.13503606999849      1.05860705964418
  H   0.54577678064777     -0.83528292771834      1.98771328457609
  H   1.51586193729157      0.53813149719264      1.41231049973638
  N   -1.75958945778800      0.27848698860218      0.90266648180084
  O   -1.44450302526720      0.66952413671510      2.02288201801297
  O   -2.77660960929917     -0.32473398250457      0.58896516945648
  C   -1.39224924884519      0.61707621067836     -1.48406113634190
  N   -1.87687164338935      0.67123506329172     -2.55235376127759
