16
Coordinates from ORCA-job run
  C   0.43535377941404     -0.57647170827399     -0.16761688779903
  C   -0.93306835375469      0.04947710071392     -0.46044813465728
  Cl  0.31888398493563     -2.27114870105233     -0.69893246669538
  H   -1.17704701622972     -0.09416765688212     -1.51505370856066
  N   1.44926056826779      0.07973942896145     -1.11072046193739
  O   2.59860426471434      0.17216507806102     -0.70836009132170
  O   1.02642818200709      0.41346179466816     -2.21098430565684
  C   0.89538057455137     -0.51430655320981      1.26589926160920
  H   0.15173889355882     -0.99711532593670      1.90164060681945
  H   1.84155648588757     -1.04214921984529      1.36691784241809
  H   1.03409270221574      0.52088378038605      1.57366311916693
  N   -0.95033782941590      1.56363552577576     -0.26992727681865
  O   0.10129359321408      2.11538193479816      0.02830316031355
  O   -2.03284146737606      2.09351701393701     -0.46939103461145
  C   -1.96988949225140     -0.52105930345831      0.38798641039101
  N   -2.78940886973866     -0.99084318864296      1.08602396734016
