16
Coordinates from ORCA-job run
  C   0.43587648784316     -0.50511244168505     -0.19855208196796
  C   -0.97894342397114      0.07694574098998     -0.06263282814151
  Cl  0.41737636799771     -1.62833627462121     -1.55354535531285
  H   -1.66680889570144     -0.76364558883407      0.05433732076505
  N   1.44842851608752      0.62484099634541     -0.46638829376700
  O   2.09782403818400      0.61343694125138     -1.49668302869641
  O   1.52073654084021      1.43479689726898      0.44964704856101
  C   0.86517981060118     -1.20502371575412      1.07619711364982
  H   0.88371017663649     -0.49812259417186      1.90580732808594
  H   0.17540947064902     -2.02065371324883      1.29894200739337
  H   1.86346023976634     -1.62360167223860      0.93748610655250
  N   -1.41009448199116      0.76052737455400     -1.34484983236731
  O   -0.70073026196878      1.68200747303373     -1.72813935556354
  O   -2.42716506092554      0.32931553421866     -1.87232495999546
  C   -1.15130157902152      1.00717016693332      1.04590886175583
  N   -1.37295794502604      1.71645487595829      1.95578994904853
