16
Coordinates from ORCA-job run
  C   0.44615255046858     -0.57135246222430     -0.15773729819713
  C   -0.93071715723175      0.02700959597533     -0.46836067966022
  Cl  0.36332259463987     -2.27455426256297     -0.66728464391379
  H   -1.16513914186925     -0.13473309539097     -1.52247389113199
  N   1.45601358146653      0.08959982338776     -1.10178007373172
  O   2.59993129810057      0.20867617611430     -0.69119532105880
  O   1.03714993578261      0.39743140115113     -2.21108890690647
  C   0.89361683195456     -0.48255664543852      1.27838593740392
  H   0.15423441642497     -0.97171418958800      1.91417292673704
  H   1.84868243728162     -0.99117013430627      1.39319278098780
  H   1.01028913021036      0.55872893558295      1.57458764211978
  N   -0.97482939358467      1.54286173031204     -0.29753963938542
  O   -2.06565337077355      2.05135555528208     -0.50651180929687
  O   0.06666311401839      2.11682414555222     -0.00526572980425
  C   -1.96266530737196     -0.54941009302832      0.38214300412714
  N   -2.77705151951685     -1.01799648081846      1.08675570171098
