16
Coordinates from ORCA-job run
  C   0.46732910091910     -0.56499092153044     -0.10764614351645
  C   -0.86892455965469      0.02356100288764     -0.57469671906119
  Cl  0.46185236586496     -2.26415596934749     -0.63813788749330
  H   -0.97621371043078     -0.13292505175302     -1.64990727954296
  N   1.57576140341568      0.11269974683823     -0.91922933272636
  O   2.67021427901179      0.20753891121188     -0.38514898768297
  O   1.28119983800696      0.45643586260107     -2.05754570230328
  C   0.74172147815739     -0.48661135797372      1.37216080819865
  H   -0.06388068940837     -0.98598545679362      1.91224110690415
  H   1.68035845006630     -0.99008429503827      1.59433411876135
  H   0.81472057562312      0.55264375452046      1.68836919264511
  N   -0.94867340218404      1.53756950396009     -0.40147603046884
  O   -2.00635893096237      2.03815071102881     -0.75257141092507
  O   0.03672361478291      2.11794745318423      0.03556820043166
  C   -1.98879209098122     -0.56905693652361      0.14313986832466
  N   -2.87703772222674     -1.05373695727226      0.73954619845486
