16
Coordinates from ORCA-job run
  C   0.41474586916204     -0.51525242018215     -0.21601968330070
  C   -0.97243333474052      0.12938475901825     -0.07769381631444
  Cl  0.37031391089960     -1.56685115554281     -1.62683912553122
  H   -1.70306302999085     -0.68053319905807     -0.01744872170403
  N   1.48739896687555      0.57438926197367     -0.40646863918172
  O   1.57804516560681      1.33442082375627      0.54979913653037
  O   2.15915199082178      0.58032654699657     -1.42233447205023
  C   0.78155882180692     -1.29874301446675      1.02919044370818
  H   1.75994194625906     -1.76100063416725      0.88756251614057
  H   0.04682608546172     -2.08763049380221      1.19800232553564
  H   0.81853937092539     -0.63570376819501      1.89367526680088
  N   -1.34178657987261      0.89733086586289     -1.33114404169871
  O   -2.36903679439485      0.54683192350425     -1.89728480522954
  O   -0.57816048756090      1.79782908505826     -1.65540369120394
  C   -1.12319009094981      1.00959081259321      1.07400194082195
  N   -1.32785181030933      1.67761060665088      2.01840536667696
