16
Coordinates from ORCA-job run
  C   0.40721037816256     -0.58399717220130     -0.20701326978010
  C   -0.89050963706083      0.17279075117130     -0.51249091848484
  Cl  0.21881649272578     -2.19159697587271     -0.94717354140179
  H   -1.06467549793463      0.16999633448553     -1.59052391431371
  N   1.53071401889923      0.09948441448743     -0.99306652707356
  O   2.65016473317667      0.05735585305378     -0.50676901576305
  O   1.21516007624892      0.59043118524766     -2.07021943898243
  C   0.76062782260949     -0.72458883103793      1.25106805562683
  H   -0.05909784047507     -1.22232061370746      1.77112875620919
  H   1.65973309046081     -1.32946518725386      1.35003756677013
  H   0.94307694002016      0.25413926755729      1.69185389469404
  N   -0.82057966935618      1.65157251341343     -0.14290543938632
  O   -1.84651697298128      2.28141425822713     -0.35072120976335
  O   0.23915600022040      2.08388086921229      0.29233122191065
  C   -2.02354118338791     -0.41211867647287      0.19091281742759
  N   -2.92073875132811     -0.89697799030970      0.77355096231073
