16
Coordinates from ORCA-job run
  C   0.42922611718267     -0.51350481152113     -0.25929412289843
  C   -0.96964531105712      0.09846826443943     -0.14411877885876
  Cl  0.46656492336829     -1.59034205987611     -1.65500483437611
  H   -1.69144027875605     -0.71322636098673     -0.27934085728852
  N   1.47274112186555      0.59540289046830     -0.41810085564978
  O   2.49391147866165      0.33666068252996     -1.02971514383159
  O   1.20909402271557      1.62816800690670      0.18686467126087
  C   0.81244466406659     -1.27807768611589      0.99578753870189
  H   1.78644264041928     -1.74381455369623      0.83947924663853
  H   0.86273291289155     -0.59978141361555      1.84947266127227
  H   0.07857240249795     -2.06022613885791      1.19699649378644
  N   -1.30817482020123      1.07613966555141     -1.26822079709653
  O   -0.45978899287693      1.29038074877285     -2.12060503770768
  O   -2.44137493174307      1.53191482437187     -1.21397960525863
  C   -1.24424186558566      0.74520919717005      1.13296303544660
  N   -1.49506408344908      1.19662874445900      2.18781638585947
