16
Coordinates from ORCA-job run
  C   0.41844699260258     -0.58365586280022     -0.17678277418862
  C   -0.94249962013685      0.06335085214132     -0.48685931408879
  Cl  0.29600966953785     -2.31258255620917     -0.55230714607966
  H   -1.08595592173816      0.06756213458148     -1.57113371072881
  N   1.43729310915400     -0.02166748945942     -1.18220366467971
  O   1.07504113715265      0.02128655665464     -2.34878232736129
  O   2.52641206171551      0.30969227531967     -0.73677101406027
  C   0.87572125646137     -0.37601733099169      1.24377447924672
  H   1.05025176970056      0.68250134015002      1.44030363356960
  H   1.80680272298788     -0.91250855076596      1.41556656433045
  H   0.11271199394434     -0.75839313889371      1.92461533734130
  N   -0.89492036831017      1.52228452302581     -0.05790229042314
  O   0.01116617317214      2.17370226497026     -0.56491384711184
  O   -1.73298206706156      1.92056097313382      0.73868310461468
  C   -2.03559867152881     -0.61533202267084      0.19078732487829
  N   -2.91690023765331     -1.17978396818601      0.72392564474107
