16
Coordinates from ORCA-job run
  C   0.48493014848603     -0.46719109691792     -0.17825568035411
  C   -0.96573870282942      0.03570193894225     -0.17720754850288
  Cl  0.69199852854174     -1.47876046253657     -1.60363831631251
  H   -1.61400119774365     -0.84318041744031     -0.20669258177269
  N   1.46047354499332      0.72397408513745     -0.23254995364014
  O   1.36593370357589      1.46911305139738      0.73493315887151
  O   2.24234146184219      0.81389866152218     -1.16185283644241
  C   0.79519430092367     -1.24575624583074      1.08553992802616
  H   0.67479320802109     -0.60600011831941      1.96004514047786
  H   0.12930265969529     -2.10687021874659      1.16115633104927
  H   1.82427437934527     -1.60644883355675      1.04199654797214
  N   -1.27924065194397      0.79549701623012     -1.45121797009510
  O   -0.56415897402762      1.75931868904891     -1.69311184446150
  O   -2.21951901938602      0.37606952701511     -2.11320062742926
  C   -1.32515425834591      0.86859719412495      0.96338831287770
  N   -1.70142913114788      1.51303722992991      1.87066793973600
