16
Coordinates from ORCA-job run
  C   0.29321123110279     -0.53884359782777      0.04876641404653
  C   -0.63216839348714      0.61302612353443     -0.38823140841976
  Cl  -0.62738692623097     -2.01907417965212      0.22947672980098
  H   -0.03293599419819      1.51840215930665     -0.49181552151620
  N   1.30526741782671     -0.68752238296143     -1.11035977660178
  O   1.80061914393862      0.37525872659318     -1.47394091959848
  O   1.57487701150595     -1.80228995787072     -1.52046015365046
  C   1.11301155871052     -0.24766826267688      1.29049687188444
  H   1.64965564725273      0.69459447681721      1.17252835291294
  H   0.46990093548077     -0.18807571319602      2.16649053757569
  H   1.82653123155581     -1.06138613960450      1.43329630981941
  N   -1.63076996731520      0.90504142596927      0.71043804508930
  O   -1.19600833446914      1.59637109344348      1.62706792950603
  O   -2.75490087853248      0.43311245168948      0.60898183339218
  C   -1.32073501180403      0.31560840080528     -1.63541900448961
  N   -1.83716867133675      0.09244537563044     -2.66631623975127
