16
Coordinates from ORCA-job run
  C   0.33225985502659     -0.51841028752996     -0.03736959932565
  C   -0.63804033043418      0.64486539347644     -0.31775368767058
  Cl  -0.46978966014955     -2.05363707604386     -0.30112406939132
  H   -0.10969304350721      1.58393788652396     -0.14857631036247
  N   1.46852788384368     -0.33457840103680     -1.06995576502558
  O   1.86857451708729     -1.30488521533845     -1.68826295925882
  O   1.91068487788150      0.80951286427669     -1.12076627582445
  C   0.98975656038548     -0.46992125977874      1.32791225472238
  H   1.75309053626411     -1.24895601828502      1.37342848409933
  H   1.45118177300927      0.50545998360062      1.48723951728260
  H   0.25613858428615     -0.65290296583435      2.11082063626739
  N   -1.76447940590195      0.61952255377618      0.69248526735333
  O   -2.82637373613142      0.11126707602736      0.35950605934678
  O   -1.48770938120428      1.11451218030130      1.78123808611932
  C   -1.16936955008825      0.59925703704408     -1.67183877860455
  N   -1.56675948036724      0.59295624882055     -2.77698285972770
