16
Coordinates from ORCA-job run
  C   0.43315529407570     -0.57931200887489     -0.15053657974934
  C   -0.93428833293540      0.02529640366265     -0.51560846831928
  Cl  0.36385459996608     -2.32092498073473     -0.47249464990788
  H   -1.04867544723310     -0.00326699083560     -1.60266658363554
  N   1.46174557006309     -0.01935716915061     -1.14818994671193
  O   2.52418347632784      0.36994915847287     -0.68451147039676
  O   1.14341306142936     -0.05725044822114     -2.32753395690557
  C   0.84777964896249     -0.31220318856565      1.27311122380470
  H   0.99363974336533      0.75612280352573      1.43739777236358
  H   1.78558297104564     -0.82104222032707      1.48760981802618
  H   0.07512888256411     -0.68721966756458      1.94706516355250
  N   -0.92331049485908      1.49416907766002     -0.12257042382895
  O   -0.06375262625020      2.16451227404960     -0.68325780101123
  O   -1.71742855352038      1.87353163175573      0.72691450585294
  C   -2.02929434081326     -0.65835918782131      0.15350970504468
  N   -2.91173345218831     -1.22464548703101      0.68276169182191
