16
Coordinates from ORCA-job run
  C   0.38820088463237     -0.46707310361387      0.09270121071521
  C   -0.81027782813169      0.40708706217765     -0.32424577115766
  Cl  -0.17294629023338     -1.92104259359271      0.89365867860342
  H   -0.43063731835412      1.30466853879276     -0.81381221589842
  N   1.08481418663227     -0.83583187575766     -1.23721656993948
  O   1.26025294091067      0.12037217157263     -1.98680375611179
  O   1.45217222517130     -1.98386700655973     -1.41260452267831
  C   1.42913191844573      0.25299724184428      0.92735402368158
  H   1.02871776032559      0.49720930276674      1.90936357947637
  H   1.74028940976837      1.17069662016000      0.42649346958600
  H   2.28966057813807     -0.40680052099011      1.05290353524007
  N   -1.53870215199314      0.89034769590221      0.91114351491486
  O   -2.55078705034128      0.29491492831625      1.25406539314836
  O   -1.01916999694529      1.85272029573558      1.46851463379452
  C   -1.72286477360690     -0.30475589080114     -1.20648458533053
  N   -2.42985449441858     -0.86964286595289     -1.95503061804424
