16
Coordinates from ORCA-job run
  C   0.49085056312194     -0.45365244154564     -0.19251084501352
  C   -0.96118787798956      0.04569335736554     -0.20354520391096
  Cl  0.74071385305912     -1.38118982740721     -1.66745658452096
  H   -1.60566206490140     -0.83077206502531     -0.30328870202416
  N   1.46300460090400      0.74065313856751     -0.15156944084303
  O   2.26892926489983      0.88615580307437     -1.05297177864151
  O   1.34012106051517      1.42844922746923      0.85444530440376
  C   0.76894985778394     -1.30309234425894      1.03244116455717
  H   0.62270812286360     -0.71514108523398      1.93874455025623
  H   0.10399271701594     -2.16820374896527      1.04014360354347
  H   1.80001489618002     -1.65889224818419      0.99619003754796
  N   -1.24090045309578      0.87849554441799     -1.43877367965598
  O   -2.15814305801348      0.49496322490532     -2.15301482948483
  O   -0.52540466318128      1.85864490190297     -1.60115527155906
  C   -1.35475572355321      0.80736536341808      0.97502400321894
  N   -1.75223109560885      1.37052319949951      1.92629767212648
