16
Coordinates from ORCA-job run
  C   0.52616965618734     -0.40812972316571     -0.20089006960828
  C   -0.96143022341662     -0.02583384085030     -0.21330586800793
  Cl  0.86382657158322     -1.26411965668518     -1.70143064012762
  H   -1.53279819836150     -0.94679409869458     -0.35042415879629
  N   1.39721312723380      0.85978712816501     -0.11211124702878
  O   2.18182842980135      1.10976410547177     -1.00944266905210
  O   1.22286787258248      1.49346261026508      0.92149966119836
  C   0.86015715608535     -1.27206228031308      0.99953711850694
  H   0.26748297909465     -2.18779881431358      0.97079373029922
  H   0.65806900115649     -0.72838064106739      1.92247973952117
  H   1.91695075919482     -1.54219513051799      0.96476315045136
  N   -1.29353085629304      0.82460337588336     -1.42332527858523
  O   -0.67387113281846      1.87532311499265     -1.52898933852216
  O   -2.15093245846743      0.38217157362415     -2.17677770522342
  C   -1.42333763548145      0.66246436637171      0.98524518725449
  N   -1.85966504808090      1.16673791083413      1.95237838772029
