16
Coordinates from ORCA-job run
  C   0.51314798592203     -0.41971067634747     -0.20937696753298
  C   -0.95988261931127      0.01507818630440     -0.21981773095827
  Cl  0.83054389275948     -1.24404546893160     -1.73200167190041
  H   -1.56231837028183     -0.88084005412328     -0.38657929302842
  N   1.42826474691929      0.81273673254227     -0.07834594174690
  O   1.26417829405483      1.42610891912185      0.96906571657923
  O   2.23350210240111      1.05534241707856     -0.95922072605170
  C   0.80790011325600     -1.32905381339821      0.96764522252478
  H   0.61933376407418     -0.80476632841427      1.90460934316821
  H   0.18283425575802     -2.22155351715622      0.90950994443888
  H   1.85450893516211     -1.63606976163744      0.93095313158292
  N   -1.25355189287731      0.91023256169624     -1.40731507473561
  O   -2.12807493782203      0.52449205468694     -2.17215672712339
  O   -0.58994748127584      1.93619266301677     -1.48526298856179
  C   -1.40636212359038      0.68473798768150      0.99505040107675
  N   -1.83607666514833      1.17111809787998      1.97424336226866
