14

C	0.0	0.0	0.0
C	-0.456024	-0.187595	-1.452382
F	1.353272	0.0	0.0
H	-0.166752	-1.200424	-1.743617
H	-1.537145	-0.035761	-1.440742
N	-0.407525	1.346552	0.556515
O	-0.470823	2.266768	-0.248071
O	-0.488239	1.437217	1.774429
C	-0.520055	-1.066708	0.855477
N	-0.617289	-2.026367	1.529093
N	0.206609	0.719804	-2.437624
O	1.432542	0.683447	-2.549805
O	-0.535134	1.404802	-3.140304
F	-2.422877	0.0	0.0
