14

C	0.0	0.0	0.0
C	-0.478582	0.238177	-1.436758
F	1.351986	0.0	0.0
H	-1.118609	1.107332	-1.470309
H	-0.986242	-0.635796	-1.822328
N	-0.368633	1.152702	0.920119
O	-0.353314	0.900192	2.118857
O	-0.491113	2.2619	0.420355
C	-0.474908	-1.260517	0.570923
N	-0.554929	-2.353654	0.998823
N	0.702928	0.498162	-2.325999
O	1.200394	1.622298	-2.296019
O	1.095385	-0.425693	-3.041118
F	-2.253466	0.0	0.0
