13

C	-0.464578	0.015594	-1.462569
C	0.0	0.0	0.0
Cl	0.01137	-1.524355	-2.263851
H	1.093625	0.0	0.0
H	-0.409078	-0.906423	0.461732
C	-1.925225	0.130188	-1.558286
N	-3.09926	0.187175	-1.572117
C	0.146751	1.131438	-2.191272
N	0.594699	2.024118	-2.80932
N	-0.456573	1.24509	0.606474
H	0.34442	1.670793	1.055016
H	-1.186392	1.102084	1.290277
F	2.604223	0.0	0.0
