13

C	-0.411406	0.043177	-1.460382
C	0.0	0.0	0.0
Cl	-2.235141	0.020273	-1.663605
H	1.093753	0.0	0.0
H	-0.385118	-0.935305	0.423701
C	0.062113	1.270746	-2.103377
N	0.42944	2.257302	-2.623299
C	0.099236	-1.125968	-2.181731
N	0.494796	-2.070763	-2.756469
N	-0.455081	1.207644	0.670417
H	0.339432	1.579095	1.175754
H	-1.204771	1.02421	1.321607
F	2.586506	0.0	0.0
