13

C	-0.463229	-0.055469	-1.461985
C	0.0	0.0	0.0
Cl	0.01099	1.463461	-2.303661
H	1.093628	0.0	0.0
H	-0.409622	0.918202	0.436867
C	0.15108	-1.189345	-2.159545
N	0.599657	-2.096591	-2.754975
C	-1.923356	-0.175756	-1.556729
N	-3.09715	-0.236739	-1.57037
N	-0.457654	-1.228166	0.639034
H	0.343279	-1.645365	1.096287
H	-1.185009	-1.066356	1.321087
F	2.604447	0.0	0.0
