13

C	0.0	0.0	0.0
C	-0.430444	0.078049	-1.469026
Cl	1.857021	0.0	0.0
H	-0.35542	1.135954	-1.775876
H	-0.234676	0.910593	0.551866
H	0.320698	-0.471041	-2.051141
N	-0.490591	-1.166432	0.650568
H	-1.018736	-1.730845	-0.003172
H	0.216213	-1.686729	1.141038
N	-1.718877	-0.566677	-1.657677
H	-2.469406	-0.241588	-0.985266
H	-2.05752	-0.361076	-2.591517
H	-3.736106	0.0	0.0
