13

C	0.0	0.0	0.0
C	-0.553428	0.017038	-1.398851
Cl	1.854955	0.0	0.0
H	-0.323776	-0.944624	-1.887661
H	-0.256868	0.932975	0.4969
H	-1.64352	0.071074	-1.22876
N	-0.485725	-1.096366	0.726544
H	-0.223916	-1.984893	0.327765
H	-0.280407	-1.05851	1.711916
N	-0.089177	1.18777	-2.136865
H	-0.737939	1.377435	-2.88915
H	0.821924	1.007651	-2.539626
H	-3.734379	0.0	0.0
