13

C	0.0	0.0	0.0
C	-0.497911	0.082889	-1.431639
Cl	1.784718	0.0	0.0
H	-0.017782	0.934478	-1.926087
H	-0.268512	0.939177	0.497466
H	-1.575459	0.270032	-1.314851
N	-0.568398	-1.164436	0.622489
H	-0.357767	-1.146071	1.615523
H	-1.594308	-0.984059	0.525605
N	-0.204875	-1.155683	-2.170603
H	-0.981919	-1.318002	-2.801728
H	-0.253236	-1.900289	-1.480993
H	-3.151264	0.0	0.0
