14

C	-0.374761	-0.119654	-1.468478
C	0.0	0.0	0.0
F	-0.351166	-1.485517	-1.800506
H	1.098469	0.0	0.0
H	-0.320511	0.993213	0.335681
C	-1.761146	0.325251	-1.745036
N	-2.848464	0.709623	-1.965052
N	0.542158	0.572132	-2.308006
H	0.208834	1.4753	-2.603698
H	1.452175	0.63215	-1.847647
N	-0.655318	-1.023447	0.816073
H	-0.340636	-0.883213	1.769923
H	-0.260144	-1.911585	0.528497
H	2.997065	0.0	0.0
