14

C	-0.50218	-0.165596	-1.422487
C	0.0	0.0	0.0
F	-0.035009	0.911612	-2.192978
H	1.098506	0.0	0.0
H	-0.359649	0.981066	0.341369
C	0.00457	-1.399426	-2.066461
N	0.32719	-2.384782	-2.616478
N	-1.934831	-0.22146	-1.463567
H	-2.29697	0.61682	-1.022526
H	-2.258111	-0.257142	-2.423603
N	-0.445764	-1.070533	0.882714
H	0.29255	-1.762214	0.929448
H	-1.289554	-1.507441	0.535711
H	2.942395	0.0	0.0
