14

C	-0.318298	0.127257	-1.486925
C	0.0	0.0	0.0
F	-0.269916	-1.187508	-2.041459
H	1.094717	0.0	0.0
H	-0.395271	-0.952582	0.361523
C	-1.702732	0.582072	-1.762273
N	-2.80522	0.914142	-1.991047
N	0.618414	0.993507	-2.078585
H	1.554983	0.782743	-1.719782
H	0.585229	0.955103	-3.088448
N	-0.481157	1.163282	0.740117
H	-1.12788	0.885683	1.464562
H	0.316996	1.603339	1.181773
H	2.959027	0.0	0.0
