16

C	-0.370456	-0.021095	-1.466428
C	0.0	0.0	0.0
F	-1.777084	0.011403	-1.596553
H	1.096847	0.0	0.0
H	0.004461	0.881082	-1.961594
N	0.119314	-1.177273	-2.160562
H	0.002274	-1.943866	-1.49977
H	1.125831	-1.045769	-2.247582
N	-0.407226	-1.268643	0.618181
H	-1.287071	-1.163686	1.105999
H	0.306477	-1.525825	1.289873
C	-0.51091	1.231999	0.727581
H	-1.606078	1.242836	0.767731
H	-0.177578	2.145853	0.224946
H	-0.115805	1.25347	1.747448
H	2.994362	0.0	0.0
