16

C	-0.486022	0.071522	-1.441306
C	0.0	0.0	0.0
F	-0.417946	1.389268	-1.909662
H	1.095671	0.0	0.0
H	0.209033	-0.487069	-2.082389
N	-1.858498	-0.360558	-1.551563
H	-1.900812	-1.22268	-1.015021
H	-2.064468	-0.581124	-2.518957
N	-0.39454	-1.322479	0.542329
H	-1.007609	-1.192876	1.338185
H	0.454161	-1.759629	0.885636
C	-0.5243	1.149316	0.840403
H	-1.619413	1.142987	0.888547
H	-0.203075	2.104377	0.423301
H	-0.113526	1.068111	1.851232
H	3.002748	0.0	0.0
