16

C	-0.521402	0.009993	-1.430002
C	0.0	0.0	0.0
F	-0.350587	1.276561	-1.981449
H	1.095417	0.0	0.0
H	0.072391	-0.690971	-2.023445
N	-1.923409	-0.331455	-1.597972
H	-2.028224	-1.223612	-1.124559
H	-2.468187	0.345325	-1.070939
N	-0.384251	-1.312254	0.570803
H	-1.030306	-1.177334	1.338938
H	0.462566	-1.719369	0.957239
C	-0.500351	1.17032	0.826721
H	-1.589676	1.142721	0.973023
H	-0.022044	1.143225	1.809654
H	-0.239416	2.117195	0.351608
H	2.994515	0.0	0.0
