16

C	-0.445657	0.059109	-1.454406
C	0.0	0.0	0.0
F	-0.146899	1.324451	-1.960825
H	1.094644	0.0	0.0
H	0.140726	-0.656949	-2.039704
N	-1.851555	-0.182109	-1.704726
H	-2.410841	0.069117	-0.899664
H	-2.018689	-1.145207	-1.945599
N	-0.357019	-1.287249	0.617
H	0.440147	-1.90687	0.509676
H	-1.157667	-1.705235	0.155726
C	-0.537444	1.154768	0.825629
H	-0.267317	2.112077	0.377688
H	-1.628681	1.112912	0.945849
H	-0.095289	1.09346	1.821278
H	2.993862	0.0	0.0
