18

C	-0.481326	0.026604	-1.437572
C	0.0	0.0	0.0
Br	0.336751	1.593048	-2.272765
H	1.090324	0.0	0.0
C	-0.190493	-1.171091	-2.319494
H	0.875559	-1.390893	-2.249605
H	-0.749955	-2.038168	-1.971643
H	-0.463837	-0.932386	-3.348737
N	-2.004465	0.234103	-1.474467
O	-2.519518	0.735368	-2.466247
O	-2.620586	-0.229511	-0.515901
N	-0.31364	-1.264234	0.707197
O	0.030111	-2.322969	0.169257
O	-0.768383	-1.197459	1.856001
N	-0.429982	1.157135	0.718595
H	-1.20339	0.913858	1.32284
H	0.350231	1.453461	1.297901
H	2.534326	0.0	0.0
