18

C	-0.551844	0.085566	-1.404092
C	0.0	0.0	0.0
Br	-2.536804	0.154171	-1.365835
H	1.092437	0.0	0.0
C	-0.025063	1.336135	-2.077501
H	-0.423387	2.205442	-1.560425
H	-0.314611	1.354231	-3.130765
H	1.064869	1.324957	-1.97898
N	-0.128579	-1.100347	-2.277988
O	1.071879	-1.111591	-2.526399
O	-0.955799	-1.899902	-2.692036
N	-0.385575	-1.258438	0.66981
O	-0.761794	-1.209915	1.848552
O	-0.206191	-2.305279	0.038814
N	-0.330953	1.16801	0.750326
H	-1.154206	1.005223	1.315343
H	0.456427	1.350651	1.366524
H	2.502591	0.0	0.0
