18

C	-0.438011	-0.028376	-1.465581
C	0.0	0.0	0.0
Br	-0.411364	1.793779	-2.177393
H	1.091375	0.0	0.0
C	0.453623	-0.873509	-2.346743
H	1.484736	-0.595392	-2.103058
H	0.308695	-1.924883	-2.10968
H	0.238597	-0.699446	-3.399474
N	-1.904081	-0.445688	-1.589346
O	-2.258177	-0.997391	-2.625579
O	-2.641449	-0.16977	-0.646552
N	-0.363931	-1.28732	0.652061
O	-0.588417	-2.284041	-0.047817
O	-0.329421	-1.309848	1.88534
N	-0.382337	1.126196	0.773308
H	-1.283244	0.989392	1.210167
H	0.328561	1.270514	1.480478
H	2.578066	0.0	0.0
