18

C	-0.610007	-0.176752	-1.384395
C	0.0	0.0	0.0
Br	0.388794	-1.443675	-2.518491
H	1.098235	0.0	0.0
C	-2.077044	-0.540555	-1.384124
H	-2.61584	0.220694	-0.813833
H	-2.187414	-1.515963	-0.914463
H	-2.469323	-0.570734	-2.399377
N	-0.418405	1.15906	-2.10735
O	-1.382231	1.6145	-2.722847
O	0.691213	1.66858	-2.050246
N	-0.352147	-1.05993	0.889697
O	-0.411111	-2.220974	0.431213
O	-0.391975	-0.803035	2.117707
N	-0.355955	1.303884	0.523126
H	0.533317	1.770609	0.694537
H	-0.769786	1.147325	1.435049
H	2.349861	0.0	0.0
