18

C	-0.55729	0.021627	-1.429982
C	0.0	0.0	0.0
Br	0.393498	-1.251449	-2.591258
H	1.086928	0.0	0.0
C	-2.043824	-0.235424	-1.559702
H	-2.602565	0.497099	-0.967929
H	-2.350688	-0.154696	-2.600375
H	-2.27574	-1.231568	-1.185774
N	-0.248272	1.38736	-2.056886
O	0.699556	2.024865	-1.61455
O	-0.955385	1.73023	-3.006002
N	-0.489969	-1.276562	0.619373
O	-1.534032	-1.235239	1.28139
O	0.16859	-2.296462	0.413557
N	-0.395899	1.088374	0.830349
H	-1.297483	1.490397	0.635361
H	0.337225	1.780968	0.802961
H	2.66473	0.0	0.0
