18

C	-0.440992	-0.103663	-1.460463
C	0.0	0.0	0.0
Br	-0.454849	1.685055	-2.258728
H	1.103884	0.0	0.0
C	0.460767	-0.972103	-2.308393
H	1.487346	-0.658302	-2.092602
H	0.229221	-0.858097	-3.365725
H	0.345218	-2.012511	-2.015126
N	-1.900792	-0.553824	-1.558421
O	-2.247654	-1.164258	-2.563953
O	-2.641034	-0.242237	-0.629161
N	-0.35416	-1.25124	0.713801
O	-0.543119	-2.289024	0.064522
O	-0.341443	-1.209164	1.947401
N	-0.380893	1.16409	0.715574
H	0.333386	1.344768	1.411428
H	-1.277597	1.043727	1.166695
H	2.555732	0.0	0.0
