18

C	-0.489163	0.012082	-1.435543
C	0.0	0.0	0.0
Br	0.369359	1.533762	-2.30778
H	1.090211	0.0	0.0
C	-0.246476	-1.212819	-2.294781
H	-0.536987	-0.991778	-3.323737
H	0.814643	-1.458124	-2.245065
H	-0.818955	-2.057399	-1.913559
N	-2.006648	0.259611	-1.456613
O	-2.518605	0.840075	-2.40505
O	-2.624728	-0.256427	-0.526146
N	-0.313229	-1.256017	0.721093
O	-0.792909	-1.179195	1.859983
O	0.054444	-2.317128	0.203599
N	-0.433384	1.166039	0.703808
H	0.347642	1.476085	1.274867
H	-1.201203	0.926033	1.31793
H	2.532635	0.0	0.0
