14

C	0.0	0.0	0.0
C	-0.479813	-0.115492	-1.4677
F	1.354031	0.0	0.0
H	-0.400283	-1.187086	-1.694959
H	-0.394769	-0.778283	0.652003
N	-0.396698	1.311493	0.621654
O	-0.347267	2.304204	-0.101464
O	-0.6486	1.294692	1.822522
C	0.495447	0.559653	-2.347421
N	1.253441	1.071599	-3.082832
N	-1.804802	0.316842	-1.811009
H	-2.547674	-0.151198	-1.283817
H	-1.916087	1.305229	-1.627229
Br	-4.514632	0.0	0.0
