14

C	0.0	0.0	0.0
C	-0.517249	0.222874	-1.406416
F	1.364392	0.0	0.0
H	-1.580688	0.482351	-1.294007
H	-0.387529	-0.901914	0.469731
N	-0.370995	1.13974	0.927466
O	-0.884711	2.151198	0.475162
O	-0.05071	0.944635	2.099257
C	-0.436993	-1.055878	-2.136015
N	-0.299773	-2.035108	-2.771095
N	0.235106	1.28591	-2.059311
H	-0.339637	1.711488	-2.773384
H	1.07297	0.916844	-2.489865
Br	-3.590167	0.0	0.0
