13
Coordinates from ORCA-job run
  C   -0.22176508311587     -0.12484633394576      0.24822407541552
  C   0.80636968433145     -0.20855777158350     -0.89134217284430
  Cl  -0.07484884263505     -1.60061287051795      1.25608731394046
  H   0.59495180777266     -1.10597668819738     -1.47954775897665
  H   0.68002495444679      0.66320743239944     -1.54166351603749
  C   0.05773005464440      1.03918549618082      1.09044741819796
  N   0.25670574217687      2.00407555107464      1.73066005616315
  C   -1.63740668352670     -0.04556348355357     -0.31279909374917
  H   -1.74602244708392      0.85539146267445     -0.92182314631922
  H   -1.83660391011895     -0.92569286808992     -0.92711227054677
  H   -2.36384064516248     -0.01200929501333      0.49925602071969
  C   2.18606488107442     -0.25396935952521     -0.41588085226017
  N   3.29864048719637     -0.28463127190272     -0.04450607370302
