13
Coordinates from ORCA-job run
  C   -0.23664347371999     -0.06641283999799      0.25459080824929
  C   0.82536306779016     -0.32479258310276     -0.82619025346548
  Cl  -0.14320185135091     -1.38286011616340      1.46886744382117
  H   0.62033172387897     -1.29667500694030     -1.28390032865550
  H   0.73116443744880      0.44351964336182     -1.60062691500682
  C   0.03547998659242      1.20360008513845      0.92907573588365
  N   0.24228439458167      2.24750475518487      1.42708174387593
  C   -1.63262662773683     -0.05462982734330     -0.35844519594252
  H   -1.82436075843996     -1.01054973075650     -0.84941350343970
  H   -2.38391048939366      0.09916162064699      0.41622094799451
  H   -1.70994573565097      0.75254511273288     -1.09105873189514
  C   2.18885450331025     -0.31252251239115     -0.30444634008146
  N   3.28821082269008     -0.29688860036964      0.10524458866207
