13
Coordinates from ORCA-job run
  C   -0.23458639473515     -0.08667256505785      0.25090035076569
  C   0.81487410717597     -0.29360049732875     -0.85284794780205
  Cl  -0.16312529223694     -1.48415149046685      1.37253675701115
  H   0.58508971094781     -1.22649315876177     -1.37527786583197
  H   0.73373903120102      0.52854220950596     -1.57153241954391
  C   0.06864376755286      1.12863760903330      1.00802016866200
  N   0.29032516888097      2.13361423265974      1.57492850647115
  C   -1.63365408975349     -0.00308265578510     -0.34940209470601
  H   -1.84968336603140     -0.91948259389417     -0.90179010216157
  H   -2.37658756325461      0.11486664037146      0.43946644338243
  H   -1.69728312638041      0.85295350668091     -1.02570502697724
  C   2.18133402086916     -0.34808269471904     -0.34151779069415
  N   3.28191402576424     -0.39704854223780      0.06222102142447
