13
Coordinates from ORCA-job run
  C   -0.13244606111156     -0.00266421168369      0.43574166699437
  C   1.16702442662060      0.12146961098668     -0.38199807767628
  Cl  -0.04039370058133     -1.49251927567011      1.43056437689327
  H   1.16638443027981      1.08678108483306     -0.89891099730500
  H   2.02707395012259      0.10069255451768      0.29175527186269
  C   -0.20360633829667      1.14645024159497      1.34069522888788
  N   -0.25904927935618      2.09621062102218      2.03018119039846
  C   -1.37297321190327     -0.06457914991464     -0.44622634814968
  H   -1.43345752660207      0.83665380184403     -1.06189962081346
  H   -1.32134297023895     -0.94116498277932     -1.09336379281449
  H   -2.26874491557792     -0.13204914661818      0.17130118655416
  C   1.29145157053000     -0.94919190694222     -1.36709095098689
  N   1.38107962611494     -1.80608924119047     -2.16374913384504
