13
Coordinates from ORCA-job run
  C   -0.26777821595724     -0.24991850866361      0.40058607073999
  C   1.00723973110109     -0.69803478341649     -0.33696300440128
  Cl  -0.83126945479723     -1.66154099795082      1.35812710621493
  H   0.75893222498818     -1.55656997877760     -0.96752829694981
  H   1.75881531848039     -1.02062116742959      0.38794997085801
  C   0.05106430392183      0.83226717654445      1.33297706424009
  N   0.30574760148199      1.72182682102737      2.05710762309890
  C   -1.37058474686074      0.17524350252646     -0.55984567186214
  H   -2.27181933585186      0.43666945817983     -0.00496707207829
  H   -1.60023475743595     -0.64865694789148     -1.23846958099207
  H   -1.04558597401216      1.04208241270809     -1.13939084340778
  C   1.54711534662982      0.37741397922839     -1.16513633707479
  N   1.95635795831189      1.24883903391504     -1.83644702838579
