13
Coordinates from ORCA-job run
  C   -0.15905383613552      0.00620358026854      0.42886096268237
  C   1.18216235344717      0.06843170487332     -0.32613759519254
  Cl  -0.18131631958704     -1.48098049328893      1.43146600357644
  H   1.24895555282087      1.03049924821898     -0.84477347081590
  H   2.00742622703352      0.01275895799432      0.38794279537267
  C   -0.22279619790121      1.16222011740048      1.32560194912359
  N   -0.27616396959820      2.11859017779374      2.00591750486196
  C   -1.35757648517268     -0.00497943534600     -0.51145013786321
  H   -1.31421137325209     -0.88665675936539     -1.15227510491216
  H   -1.34799898907931      0.89467810870973     -1.13227512423149
  H   -2.28399675596889     -0.02903563783098      0.06252250220290
  C   1.30580192304956     -1.01172053560486     -1.30078414556838
  N   1.39876787034381     -1.87900903382299     -2.08561613923623
