13
Coordinates from ORCA-job run
  C   -0.22350647482237     -0.13865743595633      0.38830188259407
  C   1.18887681813616     -0.13885422577714     -0.22665264455922
  Cl  -0.65606620854313     -1.82412089785409      0.82401670174421
  H   1.50492742338225      0.89784911361494     -0.38252511286993
  H   1.89077653736380     -0.60387433283874      0.46990889704210
  C   -0.17614760372065      0.65303245929470      1.61943554859680
  N   -0.13069123421705      1.32417196848499      2.58269001737511
  C   -1.27438965450206      0.41843856588226     -0.56334062166620
  H   -2.25274803992401      0.41910042866508     -0.08259933093557
  H   -1.32109499094994     -0.19809762732378     -1.46197937911584
  H   -1.01501065016435      1.44339556977997     -0.84108293053971
  C   1.22380221406508     -0.84781129807676     -1.50270654059237
  N   1.24027186389629     -1.40457228789512     -2.53546648707345
