13
Coordinates from ORCA-job run
  C   -0.22320845464345     -0.04279731503867      0.26576988131701
  C   0.83276219203266     -0.33556125465677     -0.81183182081948
  Cl  -0.00746206786193     -1.21571495755578      1.60528010109891
  H   0.66646539661230      0.33876472728032     -1.65834580615967
  H   0.69109500928060     -1.36212538898925     -1.16135663367081
  C   -0.03292679955858      1.30671048069126      0.79943575187176
  N   0.10565639531377      2.40826768145408      1.18392978968943
  C   -1.62850701401450     -0.19496391849615     -0.30597445140856
  H   -2.37289564785474     -0.01571533824637      0.46987293285509
  H   -1.75894586737814     -1.20798423348261     -0.69115535651782
  H   -1.78030715367590      0.52409858026448     -1.11474938529126
  C   2.20215307874542     -0.17092871716035     -0.33262593748153
  N   3.30612093300249     -0.03205034606425      0.03975093451694
