16

C	-0.394634	-0.016519	-1.442751
C	0.0	0.0	0.0
Br	-2.33634	0.021003	-1.778897
H	1.094012	0.0	0.0
H	0.015238	0.841581	-1.963715
N	0.179077	-1.226367	-2.12581
O	-0.331344	-2.324651	-1.9192
O	1.16486	-1.011931	-2.826981
C	-0.467397	-1.133429	0.874023
H	-0.028254	-1.006516	1.862933
H	-1.556146	-1.165246	0.96518
H	-0.113622	-2.07719	0.45935
N	-0.330935	1.305261	0.547935
O	-0.572247	1.388035	1.763524
O	-0.213605	2.292972	-0.198364
H	2.457293	0.0	0.0
