16

C	-0.626243	0.000204	-1.369299
C	0.0	0.0	0.0
Br	-0.100661	-1.573785	-2.39646
H	1.089322	0.0	0.0
H	-1.715168	0.003956	-1.354679
N	-0.257452	1.186457	-2.2307
O	0.8497	1.681032	-2.089043
O	-1.111994	1.52867	-3.046133
C	-0.307713	-1.25503	0.80091
H	-1.36437	-1.542922	0.756062
H	0.316216	-2.069919	0.430504
H	-0.02305	-1.061334	1.834016
N	-0.456202	1.17601	0.706986
O	-0.130022	1.294463	1.899144
O	-1.072094	2.060308	0.070331
H	2.474138	0.0	0.0
