16

C	-0.398482	-0.04804	-1.448584
C	0.0	0.0	0.0
Br	0.388714	1.359738	-2.512915
H	1.091059	0.0	0.0
H	0.00668	-0.977348	-1.85114
N	-1.892338	-0.145827	-1.701278
O	-2.50719	0.753758	-2.253334
O	-2.385566	-1.202804	-1.297939
C	-0.352332	-1.223807	0.827684
H	0.200673	-1.149898	1.764945
H	-1.423218	-1.311088	1.023631
H	-0.012838	-2.120615	0.304473
N	-0.467009	1.20344	0.686792
O	-0.025333	1.387631	1.826595
O	-1.238263	1.978009	0.105428
H	2.548512	0.0	0.0
