16

C	-0.370551	-0.062565	-1.457688
C	0.0	0.0	0.0
Br	0.053188	1.454173	-2.575829
H	1.091129	0.0	0.0
H	0.157991	-0.909459	-1.894591
N	-1.836154	-0.371299	-1.620144
O	-2.644325	0.494824	-1.304876
O	-2.11222	-1.513078	-1.992924
C	-0.444443	-1.26197	0.71506
H	-0.044652	-1.239793	1.729043
H	-0.011205	-2.125113	0.200277
H	-1.529542	-1.370765	0.770829
N	-0.480901	1.204993	0.692994
O	-0.01295	2.286308	0.329534
O	-1.260723	1.071085	1.649164
H	2.577743	0.0	0.0
