16

C	-0.347857	-0.095212	-1.463642
C	0.0	0.0	0.0
Br	0.052563	1.415838	-2.595504
H	1.091146	0.0	0.0
H	0.214742	-0.933344	-1.875516
N	-1.800981	-0.448074	-1.652143
O	-2.641132	0.38957	-1.341648
O	-2.039065	-1.591237	-2.046698
C	-0.44627	-1.253935	0.723119
H	-0.061547	-1.220053	1.743134
H	0.002319	-2.117311	0.22533
H	-1.530539	-1.371429	0.762052
N	-0.489569	1.211962	0.667546
O	-1.300449	1.090246	1.598496
O	0.0045	2.287371	0.317409
H	2.5791	0.0	0.0
