16

C	-0.627346	-0.019568	-1.368605
C	0.0	0.0	0.0
Br	-0.107123	-1.610624	-2.371267
H	1.089324	0.0	0.0
H	-1.71615	-0.012225	-1.352447
N	-0.257077	1.151957	-2.248719
O	0.852655	1.643376	-2.119059
O	-1.113747	1.486327	-3.065332
C	-0.306619	-1.242617	0.8193
H	-0.020431	-1.033405	1.849072
H	0.317157	-2.062931	0.459777
H	-1.363288	-1.531929	0.780072
N	-0.455431	1.185939	0.690372
O	-0.13713	1.317972	1.882915
O	-1.062583	2.065433	0.038816
H	2.472817	0.0	0.0
