18

C	-0.346184	-0.037268	-1.490212
C	0.0	0.0	0.0
F	-0.027957	-1.275279	-1.973235
H	1.096213	0.0	0.0
N	-1.85983	0.07993	-1.666155
O	-2.318594	1.214335	-1.78161
O	-2.517266	-0.957497	-1.6329
C	0.367394	1.013837	-2.29518
H	0.109751	0.910643	-3.351275
H	1.437633	0.852903	-2.145893
H	0.100884	2.01141	-1.953309
C	-0.506077	-1.205892	0.789792
H	-0.094151	-1.158111	1.799136
H	-1.596268	-1.234654	0.848296
H	-0.148014	-2.119816	0.317581
C	-0.45588	1.251871	0.593989
N	-0.846545	2.240782	1.093871
Cl	3.301405	0.0	0.0
