18

C	-0.449274	-0.137591	-1.455053
C	0.0	0.0	0.0
F	-1.781462	-0.470005	-1.518671
H	1.09303	0.0	0.0
N	-0.333603	1.221139	-2.137388
O	0.807269	1.613922	-2.343832
O	-1.37022	1.811445	-2.419443
C	0.370535	-1.129181	-2.243623
H	1.432393	-0.919461	-2.105518
H	0.099336	-1.07248	-3.300653
H	0.149985	-2.134716	-1.883433
C	-0.428955	-1.220985	0.825019
H	-0.057103	-1.099537	1.843392
H	-1.513594	-1.336942	0.8467
H	0.028512	-2.123531	0.417256
C	-0.525598	1.217904	0.60903
N	-0.955316	2.174905	1.138069
Cl	3.305815	0.0	0.0
