18

C	-0.498675	-0.002728	-1.448603
C	0.0	0.0	0.0
F	0.049574	1.064256	-2.0934
H	1.095897	0.0	0.0
N	0.009693	-1.247733	-2.170723
O	-0.534735	-2.30312	-1.849519
O	0.863391	-1.110396	-3.029978
C	-1.997722	0.04771	-1.639454
H	-2.482199	-0.813147	-1.185849
H	-2.374451	0.966786	-1.189696
H	-2.219355	0.062096	-2.709008
C	-0.450287	-1.177068	0.871948
H	-0.06323	-1.014268	1.879197
H	-1.53759	-1.270711	0.924258
H	-0.026601	-2.105882	0.495896
C	-0.464508	1.252717	0.59552
N	-0.893801	2.227696	1.09122
Cl	3.285	0.0	0.0
