18

C	-0.339559	0.051279	-1.489959
C	0.0	0.0	0.0
F	0.060665	-1.124651	-2.057124
H	1.097094	0.0	0.0
N	-1.858113	0.084427	-1.66326
O	-2.440935	-0.984264	-1.820669
O	-2.393844	1.187991	-1.586263
C	0.300862	1.201966	-2.217036
H	1.378807	1.117093	-2.057291
H	-0.053958	2.153653	-1.826185
H	0.071581	1.135863	-3.282902
C	-0.507244	-1.259076	0.701342
H	-0.152507	-2.137317	0.163082
H	-1.597896	-1.289266	0.759767
H	-0.095565	-1.287193	1.711382
C	-0.456988	1.207297	0.679145
N	-0.830598	2.15652	1.26237
Cl	3.293665	0.0	0.0
