18

C	-0.444758	-0.093234	-1.461725
C	0.0	0.0	0.0
F	-1.747909	-0.518227	-1.543335
H	1.094446	0.0	0.0
N	-0.425693	1.30218	-2.076712
O	-1.499513	1.823091	-2.356956
O	0.685796	1.792394	-2.233435
C	0.444541	-0.982299	-2.293836
H	0.325415	-2.013779	-1.958726
H	0.148854	-0.918802	-3.343639
H	1.485187	-0.682646	-2.162815
C	-0.430618	-1.245838	0.785873
H	-0.009359	-2.14086	0.32572
H	-0.024401	-1.175779	1.795978
H	-1.516199	-1.33856	0.837112
C	-0.528319	1.198445	0.642747
N	-0.978673	2.159611	1.145942
Cl	3.312883	0.0	0.0
