18

C	-0.341191	0.038504	-1.488649
C	0.0	0.0	0.0
F	0.137262	-1.103082	-2.060737
H	1.097039	0.0	0.0
N	-1.85822	-0.02878	-1.659821
O	-2.36224	-1.11132	-1.942192
O	-2.47152	1.016764	-1.455953
C	0.214803	1.234555	-2.212599
H	-0.001076	1.14844	-3.279938
H	1.294902	1.23009	-2.04847
H	-0.214349	2.156141	-1.824658
C	-0.505128	-1.260983	0.700132
H	-0.162179	-2.138438	0.152645
H	-0.083267	-1.298515	1.70556
H	-1.595758	-1.284291	0.771941
C	-0.457576	1.206987	0.678835
N	-0.811336	2.171065	1.249801
Cl	3.278824	0.0	0.0
