18

C	-0.478111	0.004201	-1.455354
C	0.0	0.0	0.0
F	0.201132	0.969291	-2.137955
H	1.095786	0.0	0.0
N	-0.075742	-1.328217	-2.082717
O	-0.886067	-2.249153	-1.957404
O	1.009095	-1.390175	-2.641184
C	-1.956021	0.219432	-1.680739
H	-2.55299	-0.52268	-1.156458
H	-2.2133	1.21835	-1.327014
H	-2.170183	0.155444	-2.749171
C	-0.457889	-1.210836	0.819683
H	0.001635	-2.118752	0.430353
H	-1.543557	-1.331376	0.824171
H	-0.112094	-1.079517	1.845796
C	-0.471547	1.236232	0.620326
N	-0.903547	2.195901	1.142847
Cl	3.32612	0.0	0.0
