18

C	-0.484805	0.004532	-1.452025
C	0.0	0.0	0.0
F	0.192036	0.968644	-2.138403
H	1.095882	0.0	0.0
N	-0.09471	-1.328077	-2.085974
O	-0.89687	-2.251216	-1.932723
O	0.971502	-1.389182	-2.677265
C	-1.963759	0.223061	-1.667965
H	-2.215313	1.224532	-1.317904
H	-2.558832	-0.514343	-1.135146
H	-2.185767	0.153954	-2.734217
C	-0.452306	-1.208484	0.827166
H	0.009	-2.116653	0.440688
H	-0.102201	-1.070034	1.850731
H	-1.537278	-1.332659	0.837024
C	-0.467467	1.237369	0.621623
N	-0.89655	2.197552	1.145614
Cl	3.303646	0.0	0.0
