18

C	-0.443165	-0.193943	-1.452063
C	0.0	0.0	0.0
F	-1.7395	-0.642133	-1.503246
H	1.093817	0.0	0.0
N	-0.447261	1.161159	-2.153555
O	-1.531215	1.658156	-2.440983
O	0.658339	1.649018	-2.362935
C	0.460626	-1.119496	-2.226644
H	0.15434	-1.14087	-3.274928
H	1.495427	-0.786885	-2.129302
H	0.372681	-2.12654	-1.81472
C	-0.434147	-1.18609	0.871006
H	-0.026385	-2.114031	0.467287
H	-0.017719	-1.053131	1.87024
H	-1.520033	-1.263828	0.937299
C	-0.523562	1.239387	0.565235
N	-0.972017	2.208647	1.055001
Cl	3.318042	0.0	0.0
