18

C	-0.501908	0.007077	-1.446214
C	0.0	0.0	0.0
F	0.049256	1.074709	-2.08736
H	1.095854	0.0	0.0
N	-0.00178	-1.235956	-2.179769
O	-0.548125	-2.292348	-1.859728
O	0.84543	-1.097057	-3.045304
C	-2.000982	0.064914	-1.634102
H	-2.224994	0.080625	-2.703196
H	-2.371265	0.986146	-1.183601
H	-2.489711	-0.793148	-1.179665
C	-0.448657	-1.182038	0.865857
H	-0.024573	-2.108522	0.484051
H	-0.060717	-1.024743	1.873536
H	-1.535952	-1.276958	0.918615
C	-0.461972	1.249795	0.603246
N	-0.889738	2.227199	1.095576
Cl	3.285504	0.0	0.0
