17

C	-0.521491	0.045063	-1.440878
C	0.0	0.0	0.0
Br	-0.130871	-1.767594	-2.164759
H	1.089089	0.0	0.0
H	-0.378211	-0.879923	0.518458
C	-2.032282	0.222289	-1.511585
H	-2.29385	1.211093	-1.11966
H	-2.546215	-0.535327	-0.912777
H	-2.386144	0.154699	-2.543158
C	0.220616	1.043071	-2.313165
H	-0.037594	2.053005	-1.989913
H	1.29469	0.907354	-2.175501
H	-0.05083	0.914841	-3.363816
N	-0.48935	1.14474	0.75797
O	-1.075356	0.926146	1.828598
O	-0.274739	2.281938	0.314821
H	2.709806	0.0	0.0
