17

C	-0.351153	0.026792	-1.466144
C	0.0	0.0	0.0
Br	-2.353087	0.072347	-1.717375
H	1.092968	0.0	0.0
H	-0.368596	-0.903353	0.483861
C	0.255468	1.189877	-2.227576
H	1.325235	1.200222	-1.97964
H	-0.17719	2.140662	-1.931712
H	0.12145	1.042501	-3.303204
C	0.15043	-1.290968	-2.03505
H	-0.038033	-1.3488	-3.109025
H	1.229742	-1.329366	-1.841662
H	-0.327393	-2.143621	-1.54797
N	-0.468108	1.113971	0.821971
O	-0.909627	0.841638	1.944215
O	-0.335805	2.265979	0.399665
H	2.692428	0.0	0.0
