17

C	-0.395694	0.010077	-1.455619
C	0.0	0.0	0.0
Br	-2.407537	-0.010899	-1.628233
H	1.092968	0.0	0.0
H	-0.370034	-0.894119	0.499731
C	0.129115	1.194542	-2.243391
H	-0.316477	2.130404	-1.917987
H	-0.068629	1.046993	-3.308401
H	1.209074	1.24212	-2.062736
C	0.11969	-1.29453	-2.041569
H	-0.313543	-2.157923	-1.53208
H	-0.114434	-1.360992	-3.106123
H	1.206089	-1.304305	-1.892062
N	-0.460742	1.128132	0.809613
O	-0.210317	2.272789	0.421729
O	-1.018511	0.873627	1.884714
H	2.703025	0.0	0.0
