16

C	-0.397573	-0.042738	-1.465419
C	0.0	0.0	0.0
Br	-2.365653	-0.106861	-1.63972
H	1.095574	0.0	0.0
H	-0.36387	0.922807	0.45422
N	-0.022743	1.272503	-2.139226
O	-0.136868	2.297671	-1.474601
O	0.333169	1.226788	-3.313417
C	0.222077	-1.202168	-2.194072
H	1.308357	-1.096128	-2.119572
H	-0.081595	-1.233118	-3.23811
H	-0.080697	-2.110225	-1.67529
N	-0.44366	-1.219394	0.671542
H	-1.259245	-1.037644	1.238115
H	0.302967	-1.534584	1.274995
Cl	3.444422	0.0	0.0
