16

C	-0.392544	-0.04548	-1.466573
C	0.0	0.0	0.0
Br	-2.360633	-0.136192	-1.650903
H	1.096214	0.0	0.0
H	-0.363951	0.925872	0.449245
N	-0.023703	1.277138	-2.127209
O	0.402548	1.237294	-3.277435
O	-0.207101	2.299412	-1.475375
C	0.242716	-1.194797	-2.195878
H	-0.052807	-1.225069	-3.242379
H	-0.055935	-2.10685	-1.682363
H	1.326774	-1.078291	-2.111723
N	-0.446514	-1.216807	0.67266
H	0.274665	-1.498771	1.323656
H	-1.298766	-1.044551	1.1886
Cl	3.428932	0.0	0.0
