16

C	-0.402727	-0.046008	-1.464511
C	0.0	0.0	0.0
Br	-2.37164	-0.08039	-1.633455
H	1.095696	0.0	0.0
H	-0.360102	0.927207	0.447818
N	0.00295	1.26065	-2.135027
O	0.440525	1.200389	-3.279874
O	-0.161951	2.293008	-1.494012
C	0.192932	-1.22032	-2.18871
H	-0.111551	-1.248189	-3.23272
H	-0.13231	-2.12045	-1.668494
H	1.280864	-1.137574	-2.115599
N	-0.453292	-1.210578	0.680033
H	-1.245524	-1.010156	1.274103
H	0.304489	-1.549463	1.258333
Cl	3.426329	0.0	0.0
