16

C	-0.384344	-0.046321	-1.470858
C	0.0	0.0	0.0
Br	-2.349677	-0.103608	-1.671973
H	1.096547	0.0	0.0
H	-0.366311	0.928652	0.441992
N	0.014902	1.275772	-2.116413
O	0.567037	1.230144	-3.213533
O	-0.259981	2.30271	-1.503676
C	0.241822	-1.205982	-2.194242
H	-0.083941	-2.116733	-1.693784
H	1.326509	-1.112628	-2.097078
H	-0.039199	-1.223579	-3.245317
N	-0.450001	-1.213617	0.672858
H	0.270045	-1.499973	1.321808
H	-1.300429	-1.038782	1.189684
Cl	3.444598	0.0	0.0
