16

C	-0.396647	-0.040307	-1.467222
C	0.0	0.0	0.0
Br	-2.363521	-0.142041	-1.647952
H	1.094448	0.0	0.0
H	-0.366928	0.922076	0.454139
N	-0.039539	1.291082	-2.118568
O	0.415802	1.263137	-3.258168
O	-0.25808	2.309041	-1.469206
C	0.246426	-1.183671	-2.203785
H	1.331287	-1.061046	-2.123465
H	-0.044616	-2.101665	-1.694502
H	-0.052817	-1.213026	-3.249913
N	-0.442872	-1.220708	0.669255
H	0.30789	-1.540561	1.266616
H	-1.256461	-1.040148	1.241425
Cl	3.420468	0.0	0.0
