13
Coordinates from ORCA-job run
  C   -0.76720840277410     -0.00131123744697      0.20453348612522
  C   0.54525716530420      0.03519337406980     -0.17483080961363
  C   -1.68522146010323      0.94258463807615     -0.38273368133269
  N   -2.52247529293240      1.67788901417089     -0.76212973635716
  N   -1.33473116976615     -0.85394647542512      1.08142759103501
  H   -2.30313328659793     -0.74006354763798      1.32815966376100
  H   -0.74736170822425     -1.48540875239484      1.60201605541905
  N   1.03008266767939      1.04072450739580     -1.11151975232337
  O   0.43604377032389      1.14222925727791     -2.18342145849624
  O   1.99111625497324      1.70499283322977     -0.73596898882792
  N   1.53777392763619     -0.89820514360776      0.29433095410444
  O   1.21893651095106     -1.60863857451935      1.25551294378662
  O   2.60092102353008     -0.95703989318829     -0.31037626728031
