13
Coordinates from ORCA-job run
  C   -0.77877425394297     -0.01478607133331      0.19669426907175
  C   0.53357595693143      0.01742079406443     -0.17951217724438
  C   -1.67605869773792      0.94550695077864     -0.39087072232361
  N   -2.46845251736732      1.71370951942344     -0.79873051390437
  N   -1.36181557440375     -0.88892518037265      1.04905756478849
  H   -0.75496219290304     -1.45727103928429      1.62022143951893
  H   -2.28898921381615     -0.67990961710182      1.37982099136982
  N   1.02493516875140      1.02044501752567     -1.11632975419489
  O   1.94547597474930      1.72502105893237     -0.71123313101735
  O   0.47681457030221      1.08190017144155     -2.21528213726643
  N   1.53085439297050     -0.90498882607844      0.30089423600942
  O   2.60166835041029     -0.94692860302309     -0.29273515727905
  O   1.21472803605602     -1.61419417497251      1.26300509247168
