13
Coordinates from ORCA-job run
  C   -0.77378965676773     -0.02843881666263      0.15192647772652
  C   0.54352190048498      0.03623988455369     -0.21878536183822
  C   -1.74445757856261      0.83341123514241     -0.46369130013539
  N   -2.64832779504379      1.48136388125140     -0.85383937160250
  N   -1.29491102409508     -0.84289588864187      1.09629405680916
  H   -2.29211617055916     -0.94913199737515      1.17677633159481
  H   -0.69232645707873     -1.42204986253053      1.65404125850244
  N   1.05245262846568      1.11868326240416     -1.05584337611795
  O   2.13630037977778      1.58880046769970     -0.74247444639608
  O   0.32723630736362      1.51691795897935     -1.96627686610809
  N   1.54932286767647     -0.85771100437703      0.31679885168342
  O   2.55955148831128     -1.03188816692342     -0.35613511343497
  O   1.27754311002730     -1.44230095352009      1.36920885931685
