13
Coordinates from ORCA-job run
  C   -0.80121746771971      0.00280215295167      0.14941884298910
  C   0.54551476527988      0.04607759865581     -0.05641286923844
  C   -1.58290501243455      1.04582772299610     -0.45947388443463
  N   -2.26025643976983      1.87513707789409     -0.94837168591982
  N   -1.49019792940489     -0.87369848891658      0.91736988923148
  H   -0.99503219717824     -1.68787757735900      1.24843994916275
  H   -2.48818336961148     -0.92521257829971      0.79687094512679
  N   1.48249341656922     -0.91852147904263      0.44363808373404
  O   1.02441778173854     -1.84177847822927      1.12572774580384
  O   2.66580028140337     -0.75146485242651      0.16560114949632
  N   1.14516523128418      1.08494122978995     -0.88504988727938
  O   1.39008900357034      2.15734194317579     -0.33683643090015
  O   1.36231193627316      0.78442572881032     -2.05692184777192
