13
Coordinates from ORCA-job run
  C   -0.80407372772459     -0.14118815911494      0.02034912654564
  C   0.53775124616089      0.08850715644837     -0.04467613116044
  C   -1.64897655735784      0.75745987079141     -0.71966576505730
  N   -2.36755153829794      1.48278301237652     -1.30509789250444
  N   -1.43483399116129     -1.16302282112492      0.64572452345873
  H   -2.42615997462264     -1.08499449179595      0.79949360839709
  H   -0.88606592522675     -1.73010474600013      1.27409845229780
  N   1.53657366981488     -0.67636488341291      0.64400707762601
  O   2.70489452266096     -0.32664146255663      0.51143113287385
  O   1.14057390341780     -1.63219924734769      1.32060052067091
  N   1.07589432470056      1.20018010485791     -0.82170479781680
  O   1.23089922821693      2.26142473346579     -0.22184338289588
  O   1.34207481941901      0.96616093341317     -1.99871647243516
