13
Coordinates from ORCA-job run
  C   -0.69304467769532      0.26435883622940      0.11902418897265
  C   0.73955874272368     -0.10579021288638     -0.08300654880422
  C   -1.54070447214545      0.07073073793132     -1.05952957016549
  N   -2.22227999012057     -0.07923794102850     -2.00444283674460
  N   -1.30863804097081     -0.20469013127273      1.28308378638898
  H   -2.25083430541378      0.14452224453789      1.39996687369940
  H   -0.74649954581491     -0.03551975517634      2.10724191975920
  N   1.48339432868758     -1.28492990332122     -0.37360212372398
  O   0.81859810101427     -2.31578365859472     -0.44110008336994
  O   2.69624350865174     -1.15662781473025     -0.52072933724267
  N   1.14816559857114      1.16080276124878     -0.13427343349612
  O   2.10071954071344      1.85152304923382     -0.30264182705693
  O   -0.22467878820103      1.69064178782894      0.11700899178372
