13
Coordinates from ORCA-job run
  C   -0.79104198567990     -0.07753506404914      0.07742266054079
  C   0.56587151128425      0.01952017423465     -0.05393155652529
  C   -1.49108982053210     -0.99168411350065     -0.78762542796106
  N   -2.14306024843201     -1.69507739374201     -1.46874832751562
  N   -1.57288240967348      0.55512553422998      0.97825714550032
  H   -2.57108035854871      0.51168351358122      0.87550089773647
  H   -1.15975035790451      1.28374034430527      1.53974744902083
  N   1.28215232311092     -0.83695523140287     -0.99637254953617
  O   2.09466235135962     -1.61445733963989     -0.50517128087972
  O   1.00554908208631     -0.70741818020459     -2.18747890747073
  N   1.38728932788268      0.93458142482315      0.68739784984873
  O   2.56448752516004      1.03927083036898      0.36217928736997
  O   0.82889305988689      1.58020550099591      1.58382275987149
