13
Coordinates from ORCA-job run
  C   -0.78330923011035     -0.24134695604326      0.14927930808670
  C   0.49847885955819      0.11788773048712     -0.12288778135776
  C   -1.33702746002921     -1.36528285468439     -0.55918937787207
  N   -1.82173273075938     -2.26950470830036     -1.14082377269145
  N   -1.71211757876865      0.43355807181442      0.92715894521275
  H   -2.04144935720670     -0.09502966392662      1.72625862213240
  H   -1.36651105937337      1.34259547073425      1.19350276235872
  N   1.16284767556623      1.30847426423552      0.38630729560736
  O   2.10537131973330      1.72153026644482     -0.27693632860427
  O   0.68846090930876      1.83015999059440      1.39448448478087
  N   1.33918343916138     -0.70797005300665     -0.97954449421931
  O   1.33094770357625     -0.45170164968194     -2.18466040371174
  O   1.93685750934354     -1.62136990866733     -0.40794925972223
