13
Coordinates from ORCA-job run
  C   -0.79994354945904     -0.14052524228737      0.02810437496910
  C   0.54005890606267      0.11405732890464     -0.03466519728972
  C   -1.66483218533129      0.69009840196620     -0.76737174286208
  N   -2.39454059807279      1.36736897991485     -1.39281764276078
  N   -1.41123611080961     -1.13294111952603      0.71564900650183
  H   -2.40734717395165     -1.07916158321592      0.85163649134846
  H   -0.85655523611464     -1.63402150224899      1.39323376622922
  N   1.54354787327087     -0.66023388031066      0.64846946263149
  O   1.14124604322405     -1.49153317281996      1.47148767535987
  O   2.71481715947928     -0.46289346109998      0.34876733867306
  N   1.06665359997169      1.20141280342761     -0.85212478014271
  O   1.69260297433235      2.06665282227409     -0.24677019270445
  O   0.83552829739812      1.16071962502153     -2.05959855995330
