13
Coordinates from ORCA-job run
  C   -0.70044695136319      0.25575720910100      0.10146339301703
  C   0.74160749214118     -0.09575871536869     -0.06421342367357
  C   -1.51501859584151      0.04859984468520     -1.09815254734663
  N   -2.16641989567157     -0.11220373085224     -2.06233770168016
  N   -1.33861668211723     -0.21787831917045      1.25047258803289
  H   -2.28376237367116      0.12845412871999      1.34947405732086
  H   -0.79430922843981     -0.05719897586881      2.08737438492334
  N   1.13421003771935      1.17602436171313     -0.10993046187687
  O   -0.25038412808876      1.68863908486592      0.10591560860659
  O   2.08160018236666      1.87852326150395     -0.25803657376066
  N   1.50853666461548     -1.26537999202918     -0.33303468048756
  O   0.85954197294571     -2.30574079537584     -0.41201003197364
  O   2.72246150540485     -1.12083736192398     -0.45198461110161
