13
Coordinates from ORCA-job run
  C   -0.78766581943925     -0.03533818799546      0.12614722415635
  C   0.55961947996640      0.08057537625238     -0.06530244403051
  C   -1.63500715433659      1.04525024623834     -0.30653253882135
  N   -2.41186597872173      1.86248676723850     -0.64308133281947
  N   -1.43959049983703     -1.05799408580306      0.72159758547092
  H   -2.44428443797693     -1.08133432131516      0.67834647633242
  H   -0.92756104582972     -1.90564658264656      0.91044984641565
  N   1.51806151003484     -0.90485802922629      0.36256707629989
  O   2.69903622943178     -0.57881209819397      0.38568808642012
  O   1.06917614202764     -2.00332408265998      0.71012240848158
  N   1.12671974530156      1.23810987656506     -0.74770589445023
  O   1.81281278292486      0.99308977106985     -1.73600062585126
  O   0.86054904645415      2.34779535047635     -0.29029586760410
