13
Coordinates from ORCA-job run
  C   -0.80377100778246     -0.01757226215712      0.14673404189963
  C   0.54561052744395      0.06542580073218     -0.04763856399613
  C   -1.60206903462260      1.03361198608907     -0.42639110877124
  N   -2.29598384406122      1.84744651610513     -0.91860106805507
  N   -1.47210035262663     -0.93793090270149      0.87974742025998
  H   -0.96284840390119     -1.76674521623965      1.14823328417392
  H   -2.47041142091649     -0.99232574422165      0.76581019215505
  N   1.50163847600403     -0.89240004923396      0.43756712566114
  O   2.69035900787699     -0.63094486587507      0.29805511363220
  O   1.04698273486473     -1.89187321191849      1.00549186460819
  N   1.12511008288719      1.12880700496508     -0.85958759382062
  O   1.05753919858829      2.27202520556830     -0.40702963608641
  O   1.63994403624542      0.78147573888768     -1.91939107166063
