13
Coordinates from ORCA-job run
  C   -0.77308956106620     -0.15525928653602      0.14747372863507
  C   0.53576585836226      0.10111436809183     -0.14641727696608
  C   -1.41934038538120     -1.24886869673145     -0.52994603610174
  N   -2.01573402331710     -2.14040126099786     -1.01345842376374
  N   -1.56845164519084      0.53599877592186      0.99524995432949
  H   -1.12718326208845      1.19270970654108      1.62079592429406
  H   -2.45392901375379      0.13286182684367      1.25193746461892
  N   1.29191122896914      1.18392554800438      0.42932821120819
  O   2.36065205134675      1.47481052626192     -0.09402692726439
  O   0.78387510516579      1.76469397865884      1.39541055192416
  N   1.27480789082207     -0.73418003421415     -1.08522747409356
  O   0.80892077266016     -0.85884691547596     -2.21630700293966
  O   2.30079498347136     -1.24955853636814     -0.64981269388072
