13
Coordinates from ORCA-job run
  C   -0.78918183220303      0.03378781586911      0.20803700239631
  C   0.53355821032745      0.03120444954434     -0.13707568572194
  C   -1.64517093323837      0.99565172116334     -0.43701010848008
  N   -2.37177409808700      1.72788220457015     -0.99991312479410
  N   -1.38980161475832     -0.74974605767843      1.13167813771140
  H   -0.83173043399587     -1.47562668634547      1.55744114641882
  H   -2.39105968664758     -0.84148648242378      1.12208286401976
  N   1.47996154585328     -0.95190696430061      0.32937977922070
  O   2.53273660045586     -1.06624198521656     -0.28724624555530
  O   1.14120535594206     -1.63006711884822      1.30808693087483
  N   1.09679973104118      1.05100794116921     -1.01410144769947
  O   0.58881529839528      1.19473111463656     -2.12385345859324
  O   2.04564185691507      1.67881004786035     -0.55250578979769
