13
Coordinates from ORCA-job run
  C   -0.79090470923400     -0.01836652000087      0.13388289731757
  C   0.54736640390678      0.02130881434441     -0.13557125564903
  C   -1.64145294949179      0.94660154824466     -0.51242006137288
  N   -2.40141880461250      1.71656065175954     -0.97501803227205
  N   -1.43739837364365     -0.90414285298560      0.92588000739169
  H   -0.87769485043206     -1.48243313324397      1.53392227935527
  H   -2.39060223294196     -0.70568748700592      1.18013113283039
  N   1.50602557275305     -0.90414763859227      0.41237315417296
  O   2.62271864461826     -0.93283352249069     -0.09073808647975
  O   1.11502130000100     -1.62893052858050      1.33447275804641
  N   1.10841921883012      1.03809414321651     -1.01673382299550
  O   1.98906023868009      1.74166850312377     -0.52949048031576
  O   0.65086054156669      1.11130802221093     -2.15569049002932
