13
Coordinates from ORCA-job run
  C   -0.76428286084733     -0.18787718096942      0.15719791817596
  C   0.52869797758522      0.12331669378649     -0.15263278524317
  C   -1.36276289023465     -1.32408165654499     -0.49326855134588
  N   -1.92238464049603     -2.24867927364638     -0.95843210014220
  N   -1.58711509823691      0.48546687103297      0.99397849441530
  H   -1.16999536311276      1.17138863346097      1.60477029362276
  H   -2.44499154492039      0.03982775984785      1.27360316732487
  N   1.23904369762702      1.25035867183820      0.39614018378904
  O   0.71000140760253      1.82965672304740      1.35167096788250
  O   2.29256789771316      1.57505880976153     -0.13817705192982
  N   1.29901897353416     -0.69586652104543     -1.08039416157737
  O   2.34677141102648     -1.16133486080756     -0.64061655673233
  O   0.83543103275952     -0.85723466976165     -2.20783981823965
