13
Coordinates from ORCA-job run
  C   -0.78614248466489     -0.06368367253314      0.09984431341859
  C   0.56316608811024     -0.09131266189497     -0.11603030455240
  C   -1.63652858372882     -1.12590863799345     -0.36768061952224
  N   -2.45764185308435     -1.91770347206267     -0.65506700576566
  N   -1.44665403547271      0.91354162574845      0.75292104909685
  H   -2.38886882684140      0.76935734607938      1.07796058938125
  H   -0.93067600783813      1.72239252183847      1.06879298205946
  N   1.22838509051804     -1.00035067784390     -1.02820046485645
  O   2.30530032643746     -0.61877018175419     -1.47744607911750
  O   0.66049698823443     -2.05252762566920     -1.30095655671501
  N   1.42300024295941      0.90109601251281      0.50345371762204
  O   2.45717344340154      0.49973507100778      1.02451264087958
  O   1.00898961196917      2.06613435256463      0.52289573807149
