13
Coordinates from ORCA-job run
  C   -0.77402653429103     -0.08696208999763      0.13050608199538
  C   0.57500985717801     -0.01118117195441     -0.07849191776564
  C   -1.50153017180771     -1.14995569446839     -0.51566176535735
  N   -2.24323056519285     -1.92452782661123     -1.00102327272270
  N   -1.52150776262308      0.72539691591563      0.91655666501663
  H   -2.43998886228600      0.40055646135069      1.17179512808816
  H   -1.02599013334021      1.30937193089089      1.57375594215157
  N   1.27152656588471     -0.90075403139491     -1.00287344899904
  O   0.71746491196323     -1.17239363049281     -2.06515705175871
  O   2.29177320511901     -1.41592953030479     -0.55389339029705
  N   1.37397705554408      1.09406004988122      0.40266590459811
  O   2.33837160973637      1.44008202682609     -0.26697925074790
  O   0.93915082411548      1.69023659035964      1.39480037579853
