13
Coordinates from ORCA-job run
  C   -0.69130932439511      0.25697777157219      0.17544926325859
  C   0.73493837780191     -0.10129475473434     -0.08553003491385
  C   -1.55950496126044      0.07982810514073     -0.99255716340003
  N   -2.24020303479816     -0.06429600868274     -1.93900249994188
  N   -1.27593372037341     -0.23500783302145      1.34065024241778
  H   -2.20777976935238      0.12241169448768      1.50738874792711
  H   -0.67885399973764     -0.13005451809465      2.14951443334901
  N   1.47303496005188     -1.25839685763480     -0.46878961222383
  O   2.63870392286434     -1.08420645976557     -0.81534337111252
  O   0.85700214872654     -2.31783452152083     -0.39476971763411
  N   1.12272378520044      1.17259796811849     -0.15671371535893
  O   -0.22918989736913      1.68735769779797      0.17860021362856
  O   2.05737151264117      1.87091771633731     -0.39289678599591
