13
Coordinates from ORCA-job run
  C   -0.78063409612970     -0.03971020667398      0.18639847652585
  C   0.53488982644744      0.03674158853992     -0.17164303689591
  C   -1.69331546723035      0.92053128544234     -0.37652676682544
  N   -2.49598217504660      1.68876419219607     -0.76372243275626
  N   -1.35220732801414     -0.95797431582221      0.99950197945937
  H   -0.73818007851853     -1.53068344459277      1.55851971068677
  H   -2.28703173826768     -0.78163622431409      1.32787411446749
  N   1.01218180012346      1.08271431433601     -1.06792449198672
  O   1.91063474812675      1.79514311505609     -0.62848733285277
  O   0.47578575879770      1.16739314532402     -2.17117427680828
  N   1.54850582625382     -0.87887972570643      0.28737824049936
  O   2.62634386333719     -0.87392880202595     -0.29497878223095
  O   1.24000906012065     -1.62847492175903      1.22078459871748
