13
Coordinates from ORCA-job run
  C   -0.78144117974340     -0.14623053079538      0.13524062231985
  C   0.46012357886412      0.22359330296742     -0.27287594853128
  C   -1.40139642047384     -1.26032432357538     -0.54082117611309
  N   -1.93706930727663     -2.18850443085586     -1.02580935177733
  N   -1.55651422625807      0.49226861606002      1.07515551759592
  H   -1.02364369009628      1.02103976262669      1.82136211364128
  H   -2.41606821829055     -0.04240596156696      1.38112116448553
  N   1.25599504744678      1.21415022791631      0.44816739116981
  O   2.25739208240878      1.62149016614327     -0.09909115833489
  O   0.84079582908168      1.62924618236690      1.50095442653534
  N   1.23720458890786     -0.62058597666081     -1.20876547883817
  O   2.23266968434411     -1.15779493539810     -0.72187906226430
  O   0.83295223108542     -0.78594209922811     -2.38675905988868
