13
Coordinates from ORCA-job run
  C   -0.79045347177383     -0.02581282935384      0.16252496597764
  C   0.54956818352634      0.06872239609520     -0.08304061071153
  C   -1.63216280227023      1.04921871645270     -0.29303961554106
  N   -2.38056598741218      1.87457004063275     -0.67104822847822
  N   -1.42968095304336     -1.01316291379299      0.82952005910500
  H   -2.43310061612807     -1.05870126427711      0.76815895256414
  H   -0.90988401576922     -1.85863286028176      1.01099282971375
  N   1.51750878840663     -0.91534380116354      0.32659586796481
  O   1.07408912724382     -1.98250035013139      0.76675851422572
  O   2.70346942107377     -0.61942456166792      0.24120832764758
  N   1.10443561279927      1.20939353867225     -0.80155460932522
  O   0.92055780433014      2.32360838454788     -0.31360505283364
  O   1.70721890901692      0.94906550426777     -1.83947140030895
