13
Coordinates from ORCA-job run
  C   -0.78762109822769     -0.09579385852124      0.08310076951582
  C   0.55284192587512      0.12698732697305     -0.04568170741812
  C   -1.70043089743076      0.80361515008579     -0.57318392967493
  N   -2.53674194549387      1.45855402503791     -1.08041832350678
  N   -1.38755689542603     -1.05914341528151      0.82255604032426
  H   -0.81204647003844     -1.81835026799893      1.15288789325058
  H   -2.36537848151656     -1.23322906701145      0.65462161370326
  N   1.06257595759555      1.21346747174920     -0.87434354855218
  O   1.87532530941236      0.89169311768462     -1.73581957179671
  O   0.63571079057215      2.34347033509759     -0.64758574771738
  N   1.56477935749780     -0.67085979187795      0.60170805129364
  O   1.19573553305903     -1.74245648414176      1.09527240161750
  O   2.70280691412133     -0.21995454179531      0.65188605896103
