13
Coordinates from ORCA-job run
  C   -0.79441533099531     -0.02937352638069      0.11281480401278
  C   0.55421170349719      0.06443485990588     -0.08330247550570
  C   -1.65660259656193      0.79620009588069     -0.69258096865453
  N   -2.42936104496767      1.44315376815432     -1.29956947138994
  N   -1.43329609853181     -0.76241704301603      1.05169009206240
  H   -2.42437471543501     -0.90677771030741      0.95477686649834
  H   -0.88716781994854     -1.41126019962293      1.59758679694485
  N   1.52357212090582     -0.75321693396467      0.59749336714343
  O   2.66533267444266     -0.77331941654094      0.15319962412229
  O   1.11800225048209     -1.40654773198236      1.56629319506623
  N   1.11319552992406      1.00642970708471     -1.04580836378930
  O   0.72887859282651      0.91779650041173     -2.21033427060679
  O   1.92002473436196      1.81489763037769     -0.59525919590404
