13
Coordinates from ORCA-job run
  C   -0.79529915693817     -0.10767956221204     -0.01437371324913
  C   0.55616048197113      0.08982711493563     -0.03025478207415
  C   -1.61500701652529      0.73876778938081     -0.84046928252420
  N   -2.36193979944426      1.40651863821698     -1.45743497257797
  N   -1.47015472446774     -1.05063222307968      0.68077141821004
  H   -0.96593978721681     -1.54994437402426      1.39850775686689
  H   -2.47274165172242     -0.98905166590871      0.73374125952336
  N   1.49465075954303     -0.71309674904287      0.71433837187753
  O   1.02475129540521     -1.45805413338423      1.58201223968184
  O   2.67912717729449     -0.63083308476787      0.41304623663201
  N   1.15769997152704      1.15173008303636     -0.82822849015806
  O   1.86420239001559      1.94640378372564     -0.21465591871561
  O   0.90349006055819      1.16504438312424     -2.03100012349254
