13
Coordinates from ORCA-job run
  C   -0.77307741787665      0.04840160905093      0.19673656278887
  C   0.55813716147429      0.06045129626251     -0.11020822832228
  C   -1.65096746099320      0.97261801418770     -0.47356345352703
  N   -2.46871385191987      1.64583326063276     -0.98695000881830
  N   -1.38152237638335     -0.71190383520806      1.13339369404158
  H   -2.38607092394321     -0.76766806468928      1.13591182597859
  H   -0.83771120496800     -1.42622731201365      1.59451216874815
  N   1.49143624839017     -0.92449277403982      0.37975407702107
  O   2.53145606409426     -1.08305799450307     -0.24705409751555
  O   1.13747293080662     -1.58183849492362      1.36497654606057
  N   1.11515622372160      1.01663677618496     -1.05791580578296
  O   0.55429285658809      1.12795623684090     -2.14614074357015
  O   2.11211175100925      1.62329128221774     -0.67845253710257
