13
Coordinates from ORCA-job run
  C   -0.77120582005130      0.01818809259005      0.22599155751747
  C   0.54058136742654      0.03352280100242     -0.15469846694345
  C   -1.64253256762256      1.03706720858041     -0.29948902262854
  N   -2.41519882719909      1.84431330370247     -0.66762189245578
  N   -1.35038408501493     -0.80926936108124      1.12430339416333
  H   -0.80724961787902     -1.58457992133058      1.47248473345902
  H   -2.35513836225242     -0.85225632524507      1.15773896381500
  N   1.50109716554295     -0.96561359547084      0.23306339673556
  O   1.16446467044220     -1.73911833282070      1.13767285558661
  O   2.56233424205418     -1.00422398730176     -0.37830172809008
  N   1.05957551522641      1.07613319433897     -1.03239423010164
  O   0.51136401593276      1.21944216175920     -2.12355088097890
  O   2.00329230339429      1.72539476127666     -0.59019868007860
