13
Coordinates from ORCA-job run
  C   -0.79044957857989     -0.01883746202113      0.13933865890009
  C   0.55342601149706      0.06107347348058     -0.09224935317348
  C   -1.64263562683462      0.97884312954667     -0.45392065554916
  N   -2.40755659435272      1.75811231871012     -0.89182882746476
  N   -1.42849252174000     -0.89718465172529      0.94412608757987
  H   -0.89362662747996     -1.65783858538895      1.33470088971592
  H   -2.42849143404962     -0.97878728197038      0.86885152630293
  N   1.12096571713823      1.15012581841017     -0.87860101136672
  O   0.68956202739811      1.30668590101093     -2.01926218647725
  O   1.98261312401859      1.82134837702200     -0.31766046561093
  N   1.50719398125462     -0.91096435567319      0.37337300350249
  O   2.62915940826193     -0.89016587637226     -0.11884950997853
  O   1.10733211346824     -1.72341080502925      1.21598184361952
