13
Coordinates from ORCA-job run
  C   -0.63992117786262      0.40766526710229      0.10614789645898
  C   0.73606683659348     -0.03712415462052     -0.24655634785125
  C   -1.61709623911897      0.30991164817786     -0.98988504267209
  N   -2.43367212072173      0.20042954951552     -1.82862379844361
  N   -1.06322561441329     -0.05726654297125      1.38280215530157
  H   -1.99333444804872      0.27798655056987      1.60659241630965
  H   -1.05737395471655     -1.07160978971199      1.39957552311315
  N   1.24696783232904      1.18603803991328     -0.14266989276846
  O   2.24302544844540      1.82213908453353     -0.20413096903855
  O   -0.13300824835234      1.77406767927277      0.15179855800889
  N   1.41088302606888     -1.28169341676622     -0.35198772955896
  O   2.61471807070345     -1.26614023569101     -0.58726216620723
  O   0.68497058909398     -2.26440367932412     -0.18980060265209
