13
Coordinates from ORCA-job run
  C   -0.76446917326604      0.06588748799594      0.18122007121508
  C   0.55710016276494     -0.00249127678874     -0.16239805428754
  C   -1.61678482186537      1.02791350397060     -0.46477924624632
  N   -2.45197066628404      1.70314615168303     -0.94327149142044
  N   -1.38919737401796     -0.64453166089982      1.14963682195723
  H   -2.39492755273874     -0.68361267810550      1.13131820177705
  H   -0.87456898278557     -1.38218249340117      1.60707199057258
  N   1.46893377446670     -0.98398197781997      0.37025017310264
  O   2.49645989024398     -1.20832003245614     -0.25673320604469
  O   1.12053445219507     -1.55724670465472      1.40870651213650
  N   1.13916244325711      0.96379159533990     -1.08203990664872
  O   0.53642318755048      1.19222295429419     -2.13004640260284
  O   2.17330466047943      1.50940513084240     -0.70193546351052
