13
Coordinates from ORCA-job run
  C   -0.78136056521998      0.01224938628671      0.17742062271480
  C   0.55560492756803      0.04735742246373     -0.09961687512015
  C   -1.60502840051275      1.08708014090027     -0.31234671148528
  N   -2.36040084183365      1.89880863836491     -0.70528333945198
  N   -1.44035543076111     -0.92151746642468      0.89903750416988
  H   -0.95163897058770     -1.77542362074285      1.12037283584556
  H   -2.44640862642770     -0.91876456508429      0.88161209424418
  N   1.49649885746415     -0.94644476802024      0.34944465096400
  O   1.02303633842410     -1.98218820515818      0.83104538072793
  O   2.69011028763688     -0.68743832270745      0.25396058286521
  N   1.13024202569365      1.12678294244832     -0.89340826689898
  O   1.73522824341494      0.78481797042833     -1.90574841896558
  O   0.95447215514113      2.27568044724541     -0.49149005960959
