13
Coordinates from ORCA-job run
  C   -0.78351227973239      0.00689194802182      0.17421389525168
  C   0.55491761499226      0.05283928707449     -0.09484104683448
  C   -1.61408617606486      1.06882501601822     -0.33135972116320
  N   -2.36776644479486      1.87907454304606     -0.73123172994516
  N   -1.43676258071968     -0.92333696114555      0.90725701245832
  H   -0.94278028758278     -1.77408225023208      1.13030720536457
  H   -2.44202759862009     -0.93744193197248      0.86854213659529
  N   1.50349549191249     -0.92326276340267      0.37703839477929
  O   1.03870393371768     -1.96191584251805      0.86126816930342
  O   2.69435828166137     -0.64673154175581      0.29633022742793
  N   1.12312230344957      1.12050485818224     -0.90789098505905
  O   1.74136035152821      0.76114574575073     -1.90608365569382
  O   0.92897739025309      2.27648989293306     -0.53654990248479
