13
Coordinates from ORCA-job run
  C   -0.79357734119682     -0.06022597010958      0.08027413777703
  C   0.55880512336465      0.10055871645516     -0.02439347053499
  C   -1.64436887970023      0.92260562204574     -0.53787202653958
  N   -2.41473936936921      1.66004163689960     -1.03538028214161
  N   -1.45070635909986     -1.03507691152133      0.75155073460469
  H   -2.43535490030829     -1.14545644313317      0.57344691285099
  H   -0.91344746458913     -1.83451894289301      1.04975217183087
  N   1.52458150017463     -0.78806602070867      0.56813068540527
  O   2.69722678527235     -0.43290860215987      0.57440938267570
  O   1.08834377212156     -1.83330797974349      1.06274463795681
  N   1.12209125163145      1.20640473371441     -0.78766575503800
  O   1.85404355618936      0.89523764035487     -1.72371164597773
  O   0.80510232550953      2.34471252079936     -0.44528548286945
