13
Coordinates from ORCA-job run
  C   -0.78142302072473     -0.00442311940193      0.17558507942908
  C   0.53714521482863      0.01651391911933     -0.17401796056968
  C   -1.65543957793814      0.98893106288066     -0.39125006176163
  N   -2.43596083489265      1.78244093014310     -0.77232443435766
  N   -1.39612091588001     -0.89948288999540      0.98745969930805
  H   -2.31488031080203     -0.66822284172826      1.32750157940358
  H   -0.80606452304141     -1.47065883676702      1.57355814811518
  N   1.50406623031297     -0.95050607671194      0.29604347475741
  O   1.17905877087779     -1.63481022358371      1.27200897729459
  O   2.56068365678958     -1.04070098584778     -0.31741239683087
  N   1.06997674259331      1.03341451083699     -1.07140670666971
  O   2.03545459571398      1.66264555387495     -0.64897663401579
  O   0.50450397216273      1.18485899718101     -2.15176876410255
