13
Coordinates from ORCA-job run
  C   -0.79425574140096     -0.03129887541788      0.11357303330904
  C   0.55081806235459      0.04561510510234     -0.10888654465554
  C   -1.63115491207653      1.01083345754832     -0.42141442118010
  N   -2.38820215728442      1.81070624901947     -0.83548172680127
  N   -1.46595765157821     -1.03562607904239      0.72179231985741
  H   -2.41286172212852     -0.86262225366658      1.01545248133715
  H   -0.92338505380285     -1.74330036845454      1.19523381072298
  N   1.51026724386989     -0.88370986275290      0.42967817035170
  O   2.69443779928752     -0.57468619853381      0.37722849157901
  O   1.05767990090836     -1.90984309533125      0.95026374653992
  N   1.12379745680970      1.12247447624628     -0.90656791415900
  O   0.91319575412279      2.27466027273697     -0.53186706941394
  O   1.76562102091861      0.77479717254597     -1.89400437748736
