13
Coordinates from ORCA-job run
  C   -0.79719422105037     -0.05161376893291      0.07414919470365
  C   0.55533646783031      0.05998276695055     -0.08032370607135
  C   -1.63645114403582      0.93199911408241     -0.55931223642664
  N   -2.39410977945316      1.68536131469137     -1.05177387606923
  N   -1.46775256959952     -1.04575424307683      0.69863690634241
  H   -2.43665713672896     -0.89835961415230      0.92695209112737
  H   -0.93096158893949     -1.71883971889348      1.22449299064771
  N   1.51116447818796     -0.80574490393188      0.55860547404945
  O   2.68432973099403     -0.45201367636660      0.56711889951401
  O   1.06622192318583     -1.83217922317852      1.08621114392245
  N   1.13655119300541      1.11419386683744     -0.90318759171752
  O   1.85863385947370      0.73756616691621     -1.82214702033391
  O   0.85288878713006      2.27540191905454     -0.61542226968841
