13
Coordinates from ORCA-job run
  C   -0.76335783538719      0.02407295323187      0.25102286709635
  C   0.52012252042236      0.00115580961613     -0.21470521761663
  C   -1.58978438524215      1.15099209971800     -0.09470757225218
  N   -2.31987134431888      2.04980409002658     -0.30346681020109
  N   -1.38139591876908     -0.92879288967662      0.98593560958851
  H   -0.80463855476187     -1.64379163700998      1.40256376003073
  H   -2.26201321842412     -0.69933878229218      1.41550179104471
  N   1.44367550498824     -1.07846344993926      0.02505839680463
  O   1.11344668404461     -1.91460994705401      0.87384359302223
  O   2.46809966998651     -1.11215750417337     -0.64587169850174
  N   1.05591903927458      1.10405376934541     -1.00311049724556
  O   2.06676513731492      1.63951334446952     -0.55667781093005
  O   0.45203270087207      1.40756214373790     -2.03038641083992
