13
Coordinates from ORCA-job run
  C   -0.78711978183908     -0.02941242554092      0.14178976527992
  C   0.55585856763819      0.07229264961117     -0.08392777079721
  C   -1.63823028996428      1.03419454614150     -0.32390461599823
  N   -2.41323788407486      1.84183814336675     -0.68664126116656
  N   -1.42897686725460     -1.01810604276415      0.80177349245993
  H   -0.91684766255024     -1.85920301008234      1.01666180564773
  H   -2.43421319628162     -1.04151152032640      0.77714546659208
  N   1.52343516118188     -0.88966779727812      0.37787665139350
  O   2.70380013047281     -0.56204751861534      0.36325895468916
  O   1.08279746956482     -1.96879597712333      0.79132141862989
  N   1.11338871794054      1.19440776456120     -0.83009717139462
  O   0.86478818389305      2.32568268730392     -0.41802675758768
  O   1.77555745127340      0.90032850074606     -1.82122997774792
