13
Coordinates from ORCA-job run
  C   -0.76422600194217     -0.16433589390057     -0.11405481888947
  C   0.55279939260284      0.15921019098938      0.02364554052492
  C   -1.63272745230233      0.68995520529266     -0.88135168803655
  N   -2.49059663274878      1.28224220394716     -1.43019482709782
  N   -1.38433359188504     -1.26732401563898      0.37359887064108
  H   -0.85498316885835     -1.87808334209746      0.97883526574454
  H   -2.38812212645041     -1.25202797526389      0.44383792383315
  N   1.45310705405084     -0.54473273155569      0.90540338755529
  O   1.15665495740450     -1.70739871603444      1.19907503831760
  O   2.43626678661258      0.06670126001717      1.30842067554621
  N   1.15588296390695      1.26587947979314     -0.70597350496123
  O   2.18302396707098      0.99947194480194     -1.32139637963077
  O   0.57725385253842      2.35044238964958     -0.67284548354696
