14

C	-0.521474	0.004584	-1.409009
C	0.0	0.0	0.0
F	0.089922	-0.882844	-2.215145
H	1.088825	0.0	0.0
H	-0.310613	0.891433	0.538015
C	-1.984051	-0.152165	-1.512536
N	-3.155761	-0.200018	-1.595513
N	-0.248931	1.411014	-2.010433
O	-0.612971	2.359695	-1.328739
O	0.239154	1.449032	-3.127819
N	-0.459091	-1.158579	0.729764
O	-0.821106	-2.159865	0.087272
O	-0.343529	-1.117367	1.961296
H	2.511586	0.0	0.0
