14

C	-0.478838	-0.030522	-1.420061
C	0.0	0.0	0.0
F	-0.021345	0.995355	-2.16553
H	1.089033	0.0	0.0
H	-0.294214	-0.90178	0.531778
C	-0.099517	-1.302611	-2.063255
N	0.162841	-2.3152	-2.597615
N	-2.029047	-0.012528	-1.518899
O	-2.600759	-0.800657	-0.776477
O	-2.541702	0.7403	-2.327146
N	-0.508969	1.139336	0.742627
O	-1.148123	2.014386	0.139308
O	-0.2163	1.182904	1.938268
H	2.540163	0.0	0.0
