14

C	-0.504943	0.051238	-1.407327
C	0.0	0.0	0.0
F	-1.873611	0.136206	-1.480537
H	1.089425	0.0	0.0
H	-0.35294	-0.902106	0.495598
C	0.067297	1.087497	-2.272614
N	0.502611	1.892942	-3.008169
N	-0.13837	-1.316069	-2.010091
O	-0.886916	-2.238066	-1.711814
O	0.879147	-1.38109	-2.685078
N	-0.430144	1.140926	0.764001
O	-0.509128	2.23519	0.182535
O	-0.57269	0.980409	1.98489
H	2.489962	0.0	0.0
