14

C	-0.57949	0.000398	-1.380866
C	0.0	0.0	0.0
F	-0.181456	-1.152071	-2.011432
H	1.089818	0.0	0.0
H	-0.262165	-0.936586	0.493115
C	-2.049669	0.056508	-1.437859
N	-3.22336	-0.002511	-1.443036
N	-0.043607	1.130275	-2.273523
O	-0.57515	1.191919	-3.380655
O	0.889404	1.799238	-1.862879
N	-0.507867	1.09141	0.785778
O	-1.028997	2.055758	0.189569
O	-0.302574	1.048316	2.005686
H	2.480871	0.0	0.0
