16

C	-0.201985	-0.058804	0.031332
C	-0.432762	-0.214084	-1.465858
Cl	1.275296	0.875521	0.448466
H	0.426188	-0.720481	-1.91914
H	-1.114818	0.408488	0.453104
N	-0.012448	-1.395149	0.698979
O	0.518137	-2.304421	0.057797
O	-0.385384	-1.491621	1.865532
C	-0.655671	1.166136	-2.074365
H	-1.509538	1.594066	-1.543754
H	0.218003	1.814831	-1.983325
H	-0.9058	1.040276	-3.130067
N	-1.652544	-0.986477	-1.682276
H	-1.526381	-1.923371	-1.316542
H	-2.356404	-0.486888	-1.101964
F	-2.773436	0.736908	0.046256
