14

C	-0.390381	0.042681	-1.471935
C	0.0	0.0	0.0
Br	-0.014797	1.74219	-2.290619
H	1.095857	0.0	0.0
H	0.152673	-0.715599	-2.034532
N	-1.851614	-0.250042	-1.691613
O	-2.642483	0.113929	-0.824627
O	-2.149965	-0.82913	-2.731554
C	-0.42803	-1.309111	0.528465
N	-0.769283	-2.341094	0.976425
N	-0.448483	1.133168	0.775191
H	-1.387476	1.001799	1.123064
H	0.197283	1.275349	1.540749
Br	3.402047	0.0	0.0
