14

C	-0.41419	0.264728	-1.439982
C	0.0	0.0	0.0
Br	0.121137	2.012246	-2.040227
H	1.090661	0.0	0.0
H	0.038398	-0.462236	-2.115493
N	-1.904829	0.148155	-1.652476
O	-2.635998	0.282472	-0.674852
O	-2.283629	-0.063732	-2.800997
C	-0.4439	-1.359845	0.354028
N	-0.818904	-2.432856	0.655349
N	-0.417396	1.027462	0.930267
H	0.27339	1.093857	1.664889
H	-1.332027	0.839094	1.312881
Br	3.403977	0.0	0.0
