14

C	0.0	0.0	0.0
C	-0.465829	-0.15881	-1.466029
Cl	1.78054	0.0	0.0
H	0.407975	-0.335429	-2.103035
H	-0.340759	-0.843399	0.58728
C	-0.441461	1.246371	0.621347
N	-0.591306	2.261931	1.192464
N	-1.221675	0.929431	-1.94501
H	-1.491093	0.746016	-2.90284
H	-2.049896	0.884189	-1.314865
N	-1.188002	-1.523461	-1.58108
O	-0.789063	-2.45117	-0.883405
O	-2.004606	-1.632707	-2.487981
F	-2.479648	0.0	0.0
