14

C	0.0	0.0	0.0
C	-0.467337	0.148273	-1.465116
Cl	1.776837	0.0	0.0
H	0.405101	0.094886	-2.12633
H	-0.339	-0.949035	0.396397
C	-0.446015	1.085601	0.869999
N	-0.589333	1.966508	1.633714
N	-1.206094	1.32387	-1.707122
H	-2.03872	1.1604	-1.106209
H	-1.472936	1.352345	-2.682738
N	-1.210685	-1.150265	-1.859669
O	-0.834565	-2.210428	-1.368887
O	-2.027062	-1.052776	-2.76844
F	-2.472039	0.0	0.0
