14

C	0.0	0.0	0.0
C	-0.45787	0.20518	-1.460289
Cl	1.788689	0.0	0.0
H	0.417574	0.181122	-2.117955
H	-0.336649	-0.964494	0.357547
C	-0.447529	1.049377	0.911057
N	-0.560045	1.886168	1.72849
N	-1.198421	1.387743	-1.661279
H	-1.462891	1.449164	-2.63601
H	-2.031737	1.203459	-1.068866
N	-1.195237	-1.077873	-1.909227
O	-0.834436	-2.154863	-1.444493
O	-1.992197	-0.94803	-2.831402
F	-2.4644	0.0	0.0
