14

C	0.0	0.0	0.0
C	-0.445683	0.194764	-1.492295
Cl	1.793657	0.0	0.0
H	0.464396	0.232475	-2.101868
H	-0.347081	-0.943306	0.398667
C	-0.438982	1.113239	0.833451
N	-0.580447	2.063322	1.509969
N	-1.291274	1.283822	-1.82472
H	-0.795061	2.151372	-1.662647
H	-2.064498	1.159523	-1.145831
N	-1.086261	-1.111629	-1.937581
O	-1.982961	-1.08285	-2.762844
O	-0.559237	-2.138643	-1.509255
F	-2.425577	0.0	0.0
