19

C	-0.400248	-0.007084	-1.466533
C	0.0	0.0	0.0
F	0.041353	1.156632	-2.024654
H	1.092233	0.0	0.0
C	0.182413	-1.178066	-2.218526
H	-0.024784	-1.047397	-3.283327
H	-0.259991	-2.113141	-1.87954
H	1.261523	-1.183325	-2.046861
N	-1.916239	-0.012659	-1.678521
O	-2.433231	0.950533	-2.226189
O	-2.498634	-1.030028	-1.308936
C	-0.511945	-1.129164	0.873778
H	-0.063924	-1.01319	1.863267
H	-0.182353	-2.089411	0.475963
H	-1.597859	-1.123063	0.95329
N	-0.463249	1.293683	0.602007
O	-1.678783	1.509577	0.560304
O	0.367017	2.029514	1.121828
Cl	3.335904	0.0	0.0
