19

C	-0.36839	-0.016167	-1.477391
C	0.0	0.0	0.0
F	-0.041484	1.200979	-2.00041
H	1.09221	0.0	0.0
C	0.367893	-1.094269	-2.233789
H	0.17727	-0.964992	-3.301675
H	1.434338	-0.979294	-2.026007
H	0.032457	-2.082477	-1.9241
N	-1.864102	-0.186082	-1.733044
O	-2.468775	0.712214	-2.299812
O	-2.340521	-1.262324	-1.378262
C	-0.481417	-1.152751	0.862369
H	-1.567185	-1.187898	0.934422
H	-0.04259	-1.027912	1.854997
H	-0.115166	-2.096426	0.458146
N	-0.507321	1.267733	0.603016
O	-1.717552	1.479811	0.480932
O	0.279699	1.984596	1.208858
Cl	3.345182	0.0	0.0
