19

C	-0.389899	-0.011094	-1.470317
C	0.0	0.0	0.0
F	0.0007	1.176769	-2.014205
H	1.092247	0.0	0.0
C	0.258364	-1.144826	-2.223476
H	0.061549	-1.014855	-3.290092
H	-0.14115	-2.103269	-1.8983
H	1.332614	-1.100559	-2.033191
N	-1.898413	-0.084776	-1.694111
O	-2.435441	-1.129115	-1.332496
O	-2.455032	0.855124	-2.242036
C	-0.490212	-1.146358	0.865032
H	-0.045524	-1.02676	1.855659
H	-1.575831	-1.167816	0.94279
H	-0.136435	-2.094916	0.460694
N	-0.488493	1.274844	0.611618
O	-1.705226	1.473947	0.548271
O	0.319393	2.01073	1.164542
Cl	3.333324	0.0	0.0
