19

C	-0.500877	0.078566	-1.439979
C	0.0	0.0	0.0
F	-1.876669	0.103016	-1.454429
H	1.088951	0.0	0.0
C	0.034183	1.222739	-2.258852
H	1.116014	1.280055	-2.150766
H	-0.412123	2.150064	-1.902844
H	-0.235882	1.076048	-3.306072
N	-0.108139	-1.235642	-2.114447
O	0.999157	-1.274779	-2.639496
O	-0.92507	-2.152471	-2.070372
C	-0.51796	-1.195457	0.771156
H	-1.600745	-1.289358	0.713761
H	-0.048675	-2.100623	0.384796
H	-0.22131	-1.092168	1.815157
N	-0.446353	1.269336	0.664167
O	-1.458445	1.233538	1.365719
O	0.216514	2.282699	0.452457
Cl	3.281634	0.0	0.0
