19

C	-0.346503	-0.066183	-1.482824
C	0.0	0.0	0.0
F	-0.039704	1.141943	-2.03804
H	1.092248	0.0	0.0
C	0.436459	-1.144228	-2.192462
H	1.495749	-0.980284	-1.979599
H	0.251255	-1.062657	-3.266356
H	0.138751	-2.132922	-1.848399
N	-1.828527	-0.290392	-1.76631
O	-2.286205	-1.354553	-1.354055
O	-2.438249	0.546579	-2.415756
C	-0.480943	-1.125696	0.898603
H	-0.121819	-2.08383	0.523075
H	-1.567393	-1.154646	0.974084
H	-0.0389	-0.969604	1.88527
N	-0.519209	1.279385	0.564748
O	-1.693437	1.554256	0.30237
O	0.217061	1.935675	1.292168
Cl	3.345592	0.0	0.0
