19

C	-0.48842	0.11736	-1.445794
C	0.0	0.0	0.0
F	-1.826763	0.4378	-1.453038
H	1.089247	0.0	0.0
C	0.279333	1.0649	-2.327193
H	1.348321	0.891541	-2.205634
H	-0.01949	0.921669	-3.368168
H	0.049917	2.082214	-2.01785
N	-0.409367	-1.287884	-2.045028
O	0.68594	-1.644314	-2.463889
O	-1.436729	-1.959699	-2.040231
C	-0.517101	-1.217292	0.73659
H	-1.597517	-1.330453	0.649691
H	-0.248714	-1.136167	1.789265
H	-0.017836	-2.101755	0.337102
N	-0.437311	1.259127	0.691526
O	0.092361	2.309831	0.333367
O	-1.296198	1.1745	1.570025
Cl	3.300947	0.0	0.0
