19

C	-0.350125	-0.035275	-1.482141
C	0.0	0.0	0.0
F	-0.039872	1.181735	-2.01466
H	1.092251	0.0	0.0
C	0.425682	-1.103516	-2.214908
H	1.486402	-0.950078	-2.001465
H	0.122586	-2.097286	-1.890147
H	0.238461	-0.998915	-3.286284
N	-1.833754	-0.248385	-1.767707
O	-2.438233	0.598244	-2.408853
O	-2.297268	-1.314614	-1.367659
C	-0.475314	-1.145901	0.876391
H	-1.561147	-1.176586	0.959283
H	-0.025237	-1.011986	1.862517
H	-0.119574	-2.09537	0.476478
N	-0.518144	1.26459	0.596714
O	0.211243	1.88738	1.359608
O	-1.685653	1.560102	0.325562
Cl	3.341888	0.0	0.0
