11

C	-0.374686	-0.110577	-1.47928
C	0.0	0.0	0.0
F	-0.186109	1.110155	-2.100638
H	1.095975	0.0	0.0
H	0.301799	-0.839035	-1.936185
H	-1.418773	-0.401722	-1.627119
C	-0.448427	-1.193516	0.697583
N	-0.814871	-2.17763	1.227157
C	-0.534707	1.196999	0.620724
N	-0.933496	2.179589	1.129239
H	2.551569	0.0	0.0
