11

C	-0.372488	-0.067069	-1.482036
C	0.0	0.0	0.0
F	-0.174536	1.171152	-2.069417
H	1.096008	0.0	0.0
H	-1.419403	-0.344937	-1.635443
H	0.298059	-0.789191	-1.958105
C	-0.44914	-1.212587	0.662192
N	-0.790077	-2.225974	1.152401
C	-0.531319	1.181152	0.652879
N	-0.921813	2.149876	1.193429
H	2.544205	0.0	0.0
