13

C	-0.355178	0.02976	-1.465347
C	0.0	0.0	0.0
Cl	-2.159087	0.26055	-1.678991
H	1.096047	0.0	0.0
H	-0.184427	-0.964614	-1.888011
H	-0.337567	0.941117	0.45401
N	0.331184	1.115132	-2.10718
H	1.301799	1.095235	-1.797928
H	0.308192	1.000737	-3.112724
N	-0.498592	-1.207101	0.647626
H	0.10964	-1.427333	1.425492
H	-1.429827	-1.046492	1.010503
Cl	3.522801	0.0	0.0
