13

C	-0.375999	-0.29037	-1.452545
C	0.0	0.0	0.0
Cl	-0.635936	1.388594	-2.33345
H	1.094365	0.0	0.0
H	-1.370902	-0.728174	-1.551225
H	-0.367697	0.981029	0.306633
N	0.608992	-1.080098	-2.04848
H	1.54783	-0.741859	-1.85015
H	0.466023	-1.246054	-3.033189
N	-0.484359	-1.097066	0.842374
H	-1.276911	-0.784999	1.390342
H	0.253931	-1.363863	1.482858
Cl	3.55259	0.0	0.0
