13

C	-0.397281	-0.128658	-1.456999
C	0.0	0.0	0.0
Cl	-0.335528	1.561262	-2.251122
H	1.102585	0.0	0.0
H	-1.445496	-0.408027	-1.566179
H	-0.395114	0.917053	0.435682
N	0.450997	-1.073731	-2.075226
H	1.427044	-0.851615	-1.88978
H	0.289761	-1.162735	-3.068384
N	-0.55985	-1.160708	0.718343
H	-0.216223	-1.110173	1.671788
H	-0.112487	-1.978201	0.314684
Cl	3.554036	0.0	0.0
