13

C	-0.346186	-0.003489	-1.471556
C	0.0	0.0	0.0
Cl	-2.146953	0.205628	-1.677833
H	1.095293	0.0	0.0
H	-0.125104	-0.988403	-1.883032
H	-0.334686	0.95648	0.433596
N	0.332208	1.005896	-2.247114
H	1.322157	0.765839	-2.223301
H	0.246617	1.894078	-1.763149
N	-0.502042	-1.183786	0.685116
H	-1.443123	-1.02005	1.024843
H	0.096322	-1.375197	1.479687
Cl	3.524617	0.0	0.0
