13

C	-0.485234	-0.013272	-1.430982
C	0.0	0.0	0.0
Cl	-2.387236	-0.462406	-1.344341
H	1.093522	0.0	0.0
H	-0.116721	-0.865888	-1.99617
H	-0.333568	-0.917646	0.49472
N	-0.263505	1.194506	-2.063804
H	-0.669324	1.277103	-2.982013
H	-0.491915	1.960355	-1.4425
N	-0.465599	1.222096	0.658983
H	0.234036	1.516274	1.327301
H	-1.335228	1.0533	1.147136
Cl	3.546798	0.0	0.0
