13

C	-0.490612	-0.001735	-1.429092
C	0.0	0.0	0.0
Cl	-2.38694	-0.476052	-1.341696
H	1.093422	0.0	0.0
H	-0.112827	-0.841807	-2.007289
H	-0.331054	-0.921932	0.487944
N	-0.287483	1.217395	-2.046379
H	-0.693651	1.305923	-2.963861
H	-0.527083	1.971818	-1.415283
N	-0.465152	1.214896	0.67318
H	0.250561	1.521375	1.317471
H	-1.315494	1.034068	1.188814
Cl	3.535097	0.0	0.0
