16

C	0.0	0.0	0.0
C	-0.569853	0.029651	-1.423613
F	1.343028	0.0	0.0
H	-1.665479	-0.114209	-1.308856
N	-0.508259	1.010851	0.836786
H	-1.531649	0.930151	0.846084
H	-0.241659	1.921787	0.480834
N	-0.378844	-1.35464	0.639861
O	-1.104656	-2.113882	0.010757
O	0.1203	-1.555396	1.738848
N	-0.050953	-1.023836	-2.373676
O	0.784737	-1.82428	-1.969
O	-0.52779	-0.98521	-3.501612
C	-0.286487	1.326903	-2.02469
N	-0.041829	2.388921	-2.463641
Cl	-3.502582	0.0	0.0
