12
Coordinates from ORCA-job run
  C   1.06569235934053     -0.17938914559450      0.22227237430418
  C   -0.33734644187016     -0.39467645857406     -0.36043972327882
  F   1.07441163061504     -0.36127283106242      1.57602900658604
  H   -0.27770930530799     -0.44365878076922     -1.45065949651741
  H   1.72437105897573     -0.93196893713393     -0.22433777703366
  C   1.56137104341963      1.15883629797674     -0.12488174407402
  N   1.96357613527228      2.21439338075858     -0.44423571840665
  N   -1.25372661378818      0.77655661605573     -0.05703348664153
  O   -1.18130806307490      1.24849161547183      1.06924852498428
  O   -1.99032134167947      1.12393581502993     -0.97150538818903
  C   -0.93919289038980     -1.61026194018297      0.17336740618472
  N   -1.40981757151271     -2.60098563197572      0.59217602208191
