12
Coordinates from ORCA-job run
  C   0.84610505133608      0.56612199776096     -0.09555804007935
  C   -0.34382924645953     -0.39068401643369     -0.18218013472497
  F   1.05913894096363      1.07529472527596     -1.35482999676017
  H   -0.15482625845306     -1.16900898360179     -0.92414809704592
  H   0.60491278545141      1.39172019345557      0.57825788107430
  C   2.03707442207201     -0.15357273788805      0.36599330962477
  N   2.98432820800183     -0.74120631424462      0.73424884981192
  N   -1.53396402796859      0.40369845254090     -0.68870206090268
  O   -1.79380784105912      1.42917552173725     -0.07281210275670
  O   -2.11954369167745     -0.05629658731464     -1.65896588478853
  C   -0.66937200373287     -0.95428118008416      1.12033730903997
  N   -0.91821633847434     -1.40196107120369      2.17735896750737
