12
Coordinates from ORCA-job run
  C   1.02372899590846     -0.11025052153934      0.22683092607750
  C   -0.37877941904877     -0.41375559055870     -0.31872975958589
  F   0.94137531404781      0.08048378799243      1.58205121326635
  H   -0.34493327608627     -0.48319540291294     -1.40887049662197
  H   1.66303050776158     -0.97834358602509      0.03698493120715
  C   1.61435576962267      1.07211356947717     -0.41222226209243
  N   2.12500335306426      1.98779683238804     -0.93993829836181
  N   -1.28847910971637      0.75791120722016      0.00029346577402
  O   -1.23495704080637      1.68181911304284     -0.80350633475670
  O   -1.95035314536622      0.69454622733184      1.02636429446741
  C   -0.89980599537175     -1.63858053688490      0.27241463413048
  N   -1.27118595400903     -2.65054509953149      0.73732768649590
