12
Coordinates from ORCA-job run
  C   1.03914278140372     -0.17442908703224      0.04726817560752
  C   -0.44184232479936     -0.34525334348247     -0.31958913933728
  F   1.16598686063496     -0.21246731384036      1.41168532425009
  H   -0.57171224637881     -0.23210190765406     -1.39877839478197
  H   1.59956235219809     -1.01381659286998     -0.37657554896304
  C   1.58920991489467      1.08350238688149     -0.47312624257260
  N   2.07344845173115      2.06332618905571     -0.90117363995848
  N   -1.23252456475094      0.78137071312930      0.31974142255280
  O   -1.25144694002307      1.82396212300233     -0.32455382918455
  O   -1.73706185992029      0.56586075631319      1.41239425551132
  C   -0.93525418342041     -1.63675797262110      0.13797813708627
  N   -1.29850824156974     -2.70419595088181      0.46472947978992
