12
Coordinates from ORCA-job run
  C   0.84757212911619      0.50159743638661     -0.26884986824709
  C   -0.37669421832373     -0.39660826946582     -0.08439498792481
  F   0.93199806481519      0.81636421140152     -1.60443785470303
  H   -0.30181554637975     -1.28087359748939     -0.72026048368294
  H   0.71240426231121      1.42487471058328      0.29949170883576
  C   2.05917861895444     -0.20291262414637      0.16093362693266
  N   3.02518631538603     -0.77412082782226      0.50559891508665
  N   -1.58824735103121      0.37871559665222     -0.57034685241220
  O   -1.74004240329663      1.49236961438558     -0.08561783582416
  O   -2.29543648676964     -0.18185242991650     -1.39575373213063
  C   -0.56868240564914     -0.75080133727125      1.31470226381008
  N   -0.70542097913296     -1.02775248329763      2.44793510025973
