14

C	0.0	0.0	0.0
C	-0.458851	-0.115859	-1.454126
F	1.386049	0.0	0.0
H	-1.551598	-0.261821	-1.332223
H	-0.369692	-0.847145	0.568841
C	-0.463851	1.254251	0.599299
N	-0.584181	2.296543	1.126806
N	0.170847	-1.382916	-1.973107
O	-0.128706	-2.416491	-1.374044
O	0.938078	-1.333876	-2.931298
N	-0.119078	0.982974	-2.301656
H	-0.78559	1.724113	-2.130202
H	0.813758	1.322851	-2.097702
F	-2.507239	0.0	0.0
