14

C	0.0	0.0	0.0
C	-0.417902	0.051189	-1.488497
F	1.371275	0.0	0.0
H	0.515709	0.125545	-2.058327
H	-0.354911	-0.945521	0.398956
C	-0.451793	1.075785	0.89118
N	-0.577337	1.920418	1.697969
N	-1.09335	1.379601	-1.861708
O	-0.553835	2.404015	-1.449494
O	-2.024154	1.346478	-2.657705
N	-1.164382	-1.093659	-1.848948
H	-1.445984	-1.015063	-2.817905
H	-1.992799	-0.969602	-1.227174
F	-2.449138	0.0	0.0
