14

C	0.0	0.0	0.0
C	-0.416137	0.077295	-1.486617
F	1.374425	0.0	0.0
H	0.517326	0.150767	-2.057099
H	-0.356126	-0.952267	0.381454
C	-0.450721	1.055587	0.916322
N	-0.577317	1.853461	1.768737
N	-1.081137	1.418065	-1.834583
O	-1.996816	1.410711	-2.649409
O	-0.549761	2.42799	-1.382988
N	-1.171632	-1.053844	-1.870715
H	-1.446663	-0.954348	-2.839713
H	-2.001481	-0.937114	-1.249676
F	-2.450624	0.0	0.0
