18

C	0.0	0.0	0.0
C	-0.551322	0.037009	-1.434533
Br	1.953503	0.0	0.0
H	-1.637561	0.202196	-1.353947
C	-0.429027	1.221229	0.808309
H	0.003067	2.147771	0.437684
H	-1.519871	1.269438	0.779843
H	-0.102089	1.064219	1.839881
N	-0.498119	-1.248742	0.530079
H	-0.195106	-1.333535	1.494312
H	-1.522438	-1.164568	0.531562
N	-0.376267	-1.255669	-2.175932
O	-1.374835	-1.648983	-2.776738
O	0.720444	-1.79732	-2.16995
N	0.020181	1.119057	-2.298852
O	0.599832	0.800164	-3.331885
O	-0.170314	2.266858	-1.912025
Cl	-3.589739	0.0	0.0
