18

C	0.0	0.0	0.0
C	-0.599653	0.01449	-1.408668
Br	1.952152	0.0	0.0
H	-1.69681	0.003937	-1.280995
C	-0.45335	1.221273	0.797441
H	-1.545998	1.238441	0.782903
H	-0.112785	1.095853	1.828665
H	-0.044819	2.149017	0.40272
N	-0.441465	-1.262347	0.553905
H	-1.466472	-1.24494	0.548201
H	-0.136576	-1.310022	1.520251
N	-0.224192	-1.201103	-2.201022
O	0.860464	-1.171259	-2.77962
O	-1.025827	-2.127576	-2.206701
N	-0.279906	1.179281	-2.294423
O	-0.814241	1.134106	-3.399393
O	0.443205	2.082243	-1.887218
Cl	-3.624506	0.0	0.0
