11
Coordinates from ORCA-job run
  C   0.05195130367859      0.51615244048832     -0.25662308678609
  C   1.22976719860294     -0.24619554487248      0.30745497134564
  F   -0.07783858521793      1.70888208504046      0.46681850026362
  H   1.39935771619594     -1.16664832864620     -0.25602057834182
  H   0.25025401431823      0.81062350470797     -1.29254850912257
  H   2.13387587551341      0.36290396920119      0.25940112132428
  H   1.04167049333742     -0.50419324612498      1.35190700774954
  C   -1.25966912692587     -0.23071029622556     -0.16467897132301
  H   -1.47018221205150     -0.48846985524931      0.87554550803192
  H   -2.07600579366104      0.38905151060417     -0.53912846056974
  H   -1.22218088379020     -1.15039623892359     -0.75312750257178
