17

C	-0.380729	0.009321	-1.484183
C	0.0	0.0	0.0
F	0.000987	-1.218313	-2.029402
H	1.096991	0.0	0.0
C	-1.846909	0.096203	-1.678643
N	-3.010041	0.167921	-1.830914
C	0.359741	1.103501	-2.226915
H	1.421237	0.984437	-1.986318
H	0.022429	2.087201	-1.894942
H	0.188357	1.003505	-3.301165
C	-0.49712	-1.233438	0.745359
H	-1.589316	-1.305913	0.756613
H	-0.077331	-2.121408	0.271971
H	-0.132715	-1.197685	1.774304
C	-0.466181	1.229194	0.619624
N	-0.834962	2.221562	1.132913
H	2.753158	0.0	0.0
