17

C	-0.478647	-0.041816	-1.449031
C	0.0	0.0	0.0
F	-0.005714	1.083231	-2.11496
H	1.096183	0.0	0.0
C	0.080594	-1.237739	-2.11763
N	0.480427	-2.218734	-2.62866
C	-1.993617	-0.049129	-1.613797
H	-2.430024	-0.94887	-1.177023
H	-2.407495	0.831431	-1.118261
H	-2.240574	-0.012547	-2.677909
C	-0.390587	-1.23612	0.810009
H	0.123693	-1.186151	1.770939
H	-0.027194	-2.133683	0.301757
H	-1.466511	-1.324148	0.986418
C	-0.497603	1.211777	0.627085
N	-0.921056	2.174969	1.154251
H	2.694312	0.0	0.0
