17

C	-0.484489	-0.026214	-1.448912
C	0.0	0.0	0.0
F	-0.009099	1.114762	-2.099135
H	1.09615	0.0	0.0
C	0.085949	-1.202975	-2.140409
N	0.492177	-2.153744	-2.69569
C	-1.99478	-0.032034	-1.629672
H	-2.414268	0.834273	-1.114051
H	-2.429695	-0.947286	-1.22415
H	-2.230865	0.032423	-2.694236
C	-0.385288	-1.258624	0.780897
H	-1.464001	-1.384935	0.914608
H	0.025679	-2.131959	0.271414
H	0.092187	-1.209025	1.763374
C	-0.494493	1.198052	0.651472
N	-0.903382	2.156369	1.198427
H	2.698183	0.0	0.0
