17

C	-0.379987	0.01246	-1.484504
C	0.0	0.0	0.0
F	0.001463	-1.214448	-2.031984
H	1.096985	0.0	0.0
C	-1.845892	0.100559	-1.679973
N	-3.008959	0.175514	-1.831204
C	0.361438	1.107336	-2.224704
H	1.422539	0.987076	-1.983567
H	0.190415	1.00963	-3.299176
H	0.024904	2.090503	-1.890889
C	-0.498039	-1.234428	0.742975
H	-0.133788	-1.200847	1.771765
H	-0.07899	-2.121814	0.268174
H	-1.590116	-1.306158	0.754132
C	-0.466291	1.228099	0.62153
N	-0.836643	2.219491	1.135577
H	2.753498	0.0	0.0
