17

C	-0.37214	-0.08138	-1.473706
C	0.0	0.0	0.0
F	-1.760513	-0.282904	-1.636504
H	1.096747	0.0	0.0
C	-0.071214	1.194422	-2.155094
N	0.170387	2.209307	-2.6943
C	0.368076	-1.214387	-2.158002
H	0.20678	-1.172735	-3.237462
H	1.432908	-1.118906	-1.915164
H	-0.006857	-2.168154	-1.783164
C	-0.409246	-1.250852	0.782028
H	-1.460692	-1.508551	0.634379
H	-0.232129	-1.076254	1.844964
H	0.226456	-2.087903	0.486408
C	-0.54276	1.19746	0.619008
N	-0.990697	2.14718	1.149476
H	2.704421	0.0	0.0
