16
Coordinates from ORCA-job run
  C   0.73871142996112     -0.31787047204430      0.37225672985710
  C   -0.72908880788912      0.09146704756590      0.44733439024432
  F   1.06516430862979     -1.23129213184257      1.27927417646825
  H   -0.97688548634069      0.10999995188955      1.51267681271247
  N   1.14992895255940     -0.80355192933823     -0.99984421952340
  O   2.11506624096817     -1.54750758737061     -1.04411572543329
  O   0.48750146194468     -0.36751286427309     -1.93432377509785
  N   1.57434717414347      0.93076948412390      0.66051358070847
  O   1.57687497478902      1.25644341063316      1.83694806421894
  O   2.12307289443702      1.47657543638599     -0.28327184245808
  N   -1.58684407880430     -1.06026422891433     -0.11908499180210
  O   -1.09933152732826     -2.18462264504508     -0.11593545243749
  O   -2.71285879176298     -0.74670697865376     -0.47946051704844
  N   -0.96932532209975      1.35039836738207     -0.13202518794820
  H   -0.88738937798270      1.32191657910792     -1.13956376264981
  H   -1.86794404522488      1.72175856039349      0.13862172018913
