16
Coordinates from ORCA-job run
  C   0.70028736565445      0.39055467268160      0.02921536654438
  C   -0.78961191985496      0.26774739469585      0.40680274188380
  F   0.98754291182707      1.69393843302847     -0.07877058717656
  H   -0.87979012004909      0.60163359245328      1.44190153300480
  N   1.61675094142576     -0.21366177668026      1.06881756293745
  O   2.70629243165650      0.31945616733245      1.20965209178989
  O   1.16836488724038     -1.19305234940435      1.65311547264371
  N   1.06417477735703     -0.25670622161416     -1.29993651076904
  O   1.78901075791529     -1.23822977576955     -1.27664479980388
  O   0.58593694341503      0.30926265743847     -2.27349752508164
  N   -1.23365089641050     -1.17152937439128      0.39809362394804
  O   -1.02895604513324     -1.77665809720935     -0.65084014139341
  O   -1.81964295861080     -1.58324193718086      1.38740278579467
  N   -1.68469974870472      0.99159201219064     -0.42833302650111
  H   -1.72169703672860      1.96845307231640     -0.17662209608636
  H   -1.45931229099960      0.88944153011266     -1.40935649173473
