16
Coordinates from ORCA-job run
  C   0.67708277726699     -0.33127787491224      0.31906693478526
  C   -0.79621545951030      0.07621205976124      0.37028269875466
  F   0.94082154911350     -1.28822870564170      1.20670428093972
  H   -1.01251853673835      0.22672364731561      1.42991390896416
  N   1.19218225414849     -0.75336033752138     -1.03862087766087
  O   2.05897714860742     -1.60918836813795     -1.04775488079884
  O   0.71016753992692     -0.15717979809467     -1.99280622480866
  N   1.48527558737504      0.90205849477919      0.72740747515985
  O   1.29784029499918      1.24920069847883      1.88578793281963
  O   2.20659916709331      1.42707355505189     -0.10866177520721
  N   -1.63674917224079     -1.14875759404975     -0.00401850947050
  O   -1.08021592686057     -2.06723878115509     -0.60124465138542
  O   -2.81174877925690     -1.09031852574952      0.32289447196548
  N   -1.19073740878291      1.19972636400637     -0.37268644212211
  H   -1.31848615507871      2.04215878530066      0.15985354762277
  H   -0.72327488006231      1.32539638056852     -1.25511788955792
