16
Coordinates from ORCA-job run
  C   0.78067942294696     -0.29005330199574      0.30211718301973
  C   -0.69080089830312      0.05473827887464      0.51156784411757
  F   1.22360935822685     -1.19863565755578      1.16340759981262
  H   -0.84491964230765      0.04764164091327      1.59456502815727
  N   1.08926487538438     -0.74250794157862     -1.10795472473686
  O   2.07846518378074     -1.44188240219142     -1.24742289250941
  O   0.32943946681745     -0.32558813751351     -1.97457904852402
  N   1.58645949938329      0.98978785284838      0.53387586565300
  O   2.02063151513814      1.57133859746322     -0.44749472576167
  O   1.68549112918943      1.29955437097022      1.71033205164080
  N   -1.54560106525543     -1.12590992820014      0.00095449561864
  O   -2.70935975083889     -0.85546750927121     -0.26063017343150
  O   -1.01432456241087     -2.22893939856502     -0.05088790293522
  N   -1.03333706433924      1.30954610583658     -0.02292969858300
  H   -1.03604694961648      1.29923595717924     -1.03410877140810
  H   -1.92065051779555      1.63714147278591      0.32918786987015
