16
Coordinates from ORCA-job run
  C   0.79536244199859     -0.27585531945097      0.27664909214401
  C   -0.68834877083260     -0.01312974843975      0.51644769037619
  F   1.28463068253147     -1.22378139523640      1.06763487148921
  H   -0.83389356005972     -0.10341882233355      1.59687464222060
  N   1.11324937403675     -0.61083982881948     -1.16391152205922
  O   2.12836395649735     -1.25791169579041     -1.35810148598219
  O   0.33074515774626     -0.16366726353097     -1.99449922361428
  N   1.54448174412064      1.01861951527826      0.59856128251912
  O   1.95406692288311      1.68511363022616     -0.33836775094224
  O   1.63013265652364      1.24935380906952      1.79416303930246
  N   -1.49392859877687     -1.19122797598906     -0.07259504482888
  O   -2.67158261358674     -0.95642802895025     -0.30521096233972
  O   -0.91371623348040     -2.26188971162895     -0.21029424481622
  N   -1.08986711673301      1.25986340389730      0.07362004485003
  H   -1.98620609933753      1.52421951179380      0.45474824466826
  H   -1.10248994353093      1.31997991990476     -0.93571867298712
