16
Coordinates from ORCA-job run
  C   0.58768611882734      0.13557018771548     -0.38309012514871
  C   -0.72452924141059     -0.06011920125392      0.36171307718300
  F   0.44006153624693      0.76292041048277     -1.54016063141551
  H   -0.51796856392553     -0.49428743792715      1.33720992562493
  N   1.49004460704367      1.00172765292415      0.50609636725675
  O   1.64659332541519      0.58865820363443      1.64825688844797
  O   1.95122510983438      2.01127353450252     -0.00170542534513
  N   1.36803258988651     -1.14837532381171     -0.59240019390946
  O   2.09475628879719     -1.18407940698112     -1.57258736181940
  O   1.21465466474401     -1.99795335812671      0.27565747399918
  N   -1.55206975984707     -1.11978027163280     -0.36806955920457
  O   -2.54922147937576     -1.49674963266547      0.22691747492185
  O   -1.16962868208801     -1.48380320747872     -1.47785520329446
  N   -1.46664809299632      1.13445450957919      0.47173213406168
  H   -1.34388374725019      1.79834669791631     -0.27676733109806
  H   -1.47010467390174      1.55419664312276      1.38505248973993
