16
Coordinates from ORCA-job run
  C   0.59861291535306      0.11607374662358     -0.29662607831362
  C   -0.77095722673054     -0.04884140194617      0.36511620577595
  F   0.50475631752238      0.73932870097812     -1.46741425814091
  H   -0.65044383074841     -0.61439629818557      1.28636714490842
  N   1.53273460807082      0.92287762794343      0.59524677947799
  O   1.27395553148597      0.94629375145947      1.79224829318539
  O   2.47384628184408      1.45037652070667      0.01914985623883
  N   1.30602359457214     -1.21945682119744     -0.49258408741674
  O   1.46170678059001     -1.59581262219606     -1.64180165754152
  O   1.62159416928879     -1.77681948335967      0.54973556883982
  N   -1.55152155191040     -0.93783435712162     -0.58864656847354
  O   -1.36215311131670     -2.14541017182299     -0.47051777831803
  O   -2.26458054760292     -0.37678323283558     -1.40954342725449
  N   -1.48815910228227      1.15166131532819      0.57982782560243
  H   -1.17646352914298      1.63491389499691      1.40891012924336
  H   -1.50695129899304      1.75582883062873     -0.22946794781335
