16
Coordinates from ORCA-job run
  C   0.65932168033492      0.09019108729607     -0.33461570314333
  C   -0.68240387832125     -0.04675276270934      0.36132353077542
  F   0.53319234826293      0.64459485020886     -1.53421809262183
  H   -0.55432945311768     -0.64389968981555      1.26410221909347
  N   1.54277896132665      0.99158158792635      0.53186214789134
  O   1.97245793684965      2.00135685742204      0.00128057822646
  O   1.71624506454331      0.59470827644929      1.67421140118666
  N   1.43251967906350     -1.21413578863445     -0.45736156075686
  O   1.32437944062228     -1.98485339862221      0.48502850127077
  O   2.11687778755253     -1.33240377267236     -1.46138005076914
  N   -1.59721264639864     -0.88861733021261     -0.55615709353360
  O   -1.06657682819843     -1.76540539063674     -1.22875826970026
  O   -2.79144631545236     -0.62605945570482     -0.50446196979542
  N   -1.18679688474670      1.23703074859024      0.65426695187898
  H   -1.97505414016941      1.19801871283683      1.28359913782516
  H   -1.44595275215132      1.74664546827842     -0.18072172782781
