16
Coordinates from ORCA-job run
  C   0.61255495165954      0.19080950418766     -0.39776245413758
  C   -0.69583884804467     -0.10212024733765      0.31168226713161
  F   0.47370060141223      0.89904431306838     -1.49867512824161
  H   -0.48529930911596     -0.70122582313829      1.20228145810123
  N   1.50039500467653      0.97951405471065      0.57743670424262
  O   1.87743742719735      2.08019481248628      0.20563656172590
  O   1.72112236022627      0.42150328176233      1.64515600275633
  N   1.41201161489576     -1.07163808751252     -0.69805268800359
  O   2.15941189062351     -1.00054104922043     -1.66037586353451
  O   1.25746478755156     -2.00257218558604      0.07920601647423
  N   -1.55986832873456     -0.99257737309798     -0.55788943634452
  O   -2.67716505280880     -1.20233299509670     -0.10408665546935
  O   -1.09740302704637     -1.42584353707801     -1.60698558916615
  N   -1.43042481469596      1.11610480688531      0.50125482685676
  H   -0.85647647132160      1.85948382245173      0.87716819557389
  H   -2.21062278647482      0.95319670251529      1.12400578203473
