16
Coordinates from ORCA-job run
  C   0.64563313437810      0.11769303764115     -0.35525951605456
  C   -0.66463001438152     -0.07244667617555      0.38582558622410
  F   0.47784235013712      0.80270300761506     -1.47972792920200
  H   -0.50451683857780     -0.75488550894107      1.22043003326589
  N   1.58656927446110      0.90382944672190      0.56164228070914
  O   2.01015081581109      1.96083323454670      0.12715116557104
  O   1.80535015122339      0.37828547195688      1.64282464463537
  N   1.38441543954136     -1.17717185749919     -0.65437315521693
  O   2.03540856892016     -1.18883607393941     -1.68720622957032
  O   1.28803611960388     -2.05155339196075      0.19427890030905
  N   -1.63756624886143     -0.80965273744968     -0.55963160318815
  O   -1.15546919680929     -1.58021888817962     -1.38238311029807
  O   -2.82626689557428     -0.58145654702677     -0.37763867235148
  N   -1.13309338458038      1.18318615308025      0.82645444557505
  H   -1.89809491623987      1.09148135227149      1.47871427037465
  H   -1.41276835905162      1.77920997733860      0.05789888921723
