16
Coordinates from ORCA-job run
  C   0.79471661652847     -0.24496808955007      0.30605793412324
  C   -0.69941499198141     -0.00496963291448      0.50166333111062
  F   1.28633571023814     -1.14440078611270      1.15030854375463
  H   -0.86691708321489     -0.04849083642457      1.58179232105862
  N   1.15230941409526     -0.63783906678017     -1.11024217850725
  O   2.18639761542255     -1.26828394427204     -1.25238742405979
  O   0.37853222826750     -0.24844912913382     -1.97728854449594
  N   1.50826551383946      1.07953037777812      0.58363528362252
  O   1.56249334607077      1.36629109130391      1.76895977325072
  O   1.92332951075872      1.71226012054709     -0.37404263320503
  N   -1.46593455943961     -1.22682108063263     -0.04875623684648
  O   -0.85970879664499     -2.28925927601557     -0.12425740549748
  O   -2.64292693623776     -1.02981613389391     -0.31710436249973
  N   -1.11820165227529      1.23684797279478     -0.00857857886525
  H   -1.11019400100135      1.24970331776343     -1.01967566057833
  H   -2.02808193442557      1.49866509554261      0.34091583763493
