16
Coordinates from ORCA-job run
  C   0.59324296125433      0.11151422960198     -0.30928766088793
  C   -0.76643962512953     -0.04100647719909      0.37515010563152
  F   0.47440198293029      0.64837594152261     -1.52012829694629
  H   -0.62371736909031     -0.53111012022592      1.33562296943094
  N   1.51376974282856      1.00186153497820      0.51415337932716
  O   1.25961396298654      1.11102412244095      1.70743817007743
  O   2.44174222568401      1.50273528266441     -0.10544806308944
  N   1.33160001796301     -1.21690547299887     -0.41793820854256
  O   1.47565424642863     -1.67553441770149     -1.53845781689882
  O   1.67840154355975     -1.68671193577545      0.65711823605800
  N   -1.52873158592305     -1.02118909487703     -0.50074075760152
  O   -2.25701106648415     -0.54334554884114     -1.36012258174809
  O   -1.31201217370262     -2.21090297441592     -0.28710277439751
  N   -1.51582740201834      1.15225978066946      0.50480270875324
  H   -1.55447210804859      1.69370610893994     -0.34708779317299
  H   -1.21221535323853      1.70422904121735      1.29302838400687
