16
Coordinates from ORCA-job run
  C   0.75178902753575     -0.16990326199126      0.15127235341275
  C   -0.72731679739935     -0.11409432478978      0.56640477236219
  F   1.35738246222640     -1.21059520727235      0.72898810206340
  H   -0.73643646650643     -0.05631640523796      1.65464179870258
  N   0.96759152814026     -0.24621290419328     -1.34667086686867
  O   0.59061523946155      0.75132044114903     -1.95184426137067
  O   1.47847281976863     -1.25672906390447     -1.79285436824681
  N   1.50205638545490      1.07861729851837      0.59139398480108
  O   2.66188139717486      1.14095555819979      0.20800879433436
  O   0.91000767318425      1.86620685806654      1.32062531658757
  N   -1.28474290203800     -1.47503156139213      0.21811846447016
  O   -1.61980606986592     -2.20772877838315      1.13963789578556
  O   -1.37012507141347     -1.70670253274637     -0.98517602820851
  N   -1.57727229656685      0.86976438779559      0.00536042969538
  H   -1.46869589236039      1.75350082231888      0.48086118435254
  H   -1.43540103679621      0.98394867386255     -0.98876757187291
