16
Coordinates from ORCA-job run
  C   0.64455998371000      0.11531665794898     -0.35800955393696
  C   -0.66445806629932     -0.06949081136535      0.38672545536743
  F   0.46888521151866      0.75719518300050     -1.50641002261874
  H   -0.49533355448656     -0.71957393597653      1.24507236388542
  N   1.56997410826829      0.94912692753532      0.53274660200499
  O   1.79521180639690      0.46568098933816      1.63201346220888
  O   1.97607069571825      1.99743384541940      0.06216396754328
  N   1.40507625180912     -1.17683037665424     -0.60905958955537
  O   1.32112766542613     -2.02155531316019      0.27043769695455
  O   2.05889148820332     -1.21498493642542     -1.63943809002467
  N   -1.62277677111123     -0.85580448182110     -0.53374274744348
  O   -1.12602188149836     -1.64725851636217     -1.32740879839680
  O   -2.81555461069942     -0.64128776502454     -0.36212935386967
  N   -1.15429669926035      1.19314741620498      0.78119142450745
  H   -1.91954319733275      1.11281719085552      1.43461800621496
  H   -1.44081243036268      1.75706792648669     -0.00877082284127
