16
Coordinates from ORCA-job run
  C   0.74528095352457      0.48074480100785      0.03234532813982
  C   -0.75267762496936      0.35434867884006      0.31146590217940
  F   1.08110356849955      1.76953158057503      0.06052820797086
  H   -0.90881818888665      0.84882723638590      1.27394433195941
  N   1.62530268543759     -0.21694672896693      1.06409528724814
  O   2.27811406712600     -1.18120322905260      0.69620084778161
  O   1.58641358076288      0.30325206796344      2.16787469690427
  N   1.11082686688092     -0.08430501590985     -1.31977605351416
  O   0.42023367375467     -1.02750899831225     -1.69234903971055
  O   2.05630085333794      0.43112417703681     -1.89274308810586
  N   -1.15725760407857     -1.10985843263132      0.56610063508488
  O   -2.13002169998970     -1.52699274133126     -0.04387749843766
  O   -0.49763874112363     -1.71387480664190      1.40327414766015
  N   -1.47366368632789      0.98742718954613     -0.72056542431481
  H   -2.37072146336050      1.32161923576437     -0.40078044850922
  H   -1.61077724058781      0.36481498572652     -1.50673783233627
