16
Coordinates from ORCA-job run
  C   0.56525405886107      0.17797170616670     -0.33027704117345
  C   -0.73761013813063     -0.12947460435524      0.41060150386761
  F   0.33829937092939      0.81559340160722     -1.47483282166925
  H   -0.50611883431410     -0.70192315403216      1.30600173724821
  N   1.47552815154026      1.04939156696912      0.52464740996115
  O   1.29823388777724      1.01420594808519      1.73613108669230
  O   2.31864737289268      1.68393283419610     -0.09369883730907
  N   1.37852787728827     -1.08052040752275     -0.60807980430995
  O   1.81179061704348     -1.62911009024310      0.39591995258852
  O   1.49180875692303     -1.41509217989088     -1.77510005248000
  N   -1.49326060757849     -1.06565851075108     -0.51770921709210
  O   -1.18641784127554     -2.25261402487263     -0.44564826053580
  O   -2.30599157254749     -0.55546237676586     -1.27680631298518
  N   -1.54567359348986      0.99372179797112      0.70401826581664
  H   -1.23133271964932      1.48211478516476      1.52892770856802
  H   -1.67168478626999      1.61392330827350     -0.08309531718764
