16
Coordinates from ORCA-job run
  C   0.56940009714559      0.17148245927092     -0.39575130871073
  C   -0.70959037504196     -0.09870126775900      0.38326033210211
  F   0.36262208471577      0.85053619400526     -1.51397051586054
  H   -0.45688125610677     -0.57425397399064      1.32805551806999
  N   1.47944085051232      1.01825110052028      0.50354943247921
  O   1.68082170806389      0.55958094846173      1.62099477365012
  O   1.90336338381124      2.05891788879451      0.02688518603644
  N   1.37638212571042     -1.07738809019870     -0.69637159093593
  O   1.28197613461686     -1.96946696336138      0.13682974191047
  O   2.06274324705652     -1.04719745473477     -1.70515766616473
  N   -1.53323616247591     -1.14475646962978     -0.36983009561300
  O   -1.17768523169829     -1.44676505094638     -1.50679859319792
  O   -2.49994427361652     -1.57667878823786      0.23777328350184
  N   -1.48056284815529      1.06652068206524      0.57942199233645
  H   -1.45338650462443      1.44460384797933      1.51050567504843
  H   -1.40546297991345      1.76731493776124     -0.14139616465221
