16
Coordinates from ORCA-job run
  C   0.68526299476019      0.00990908262433     -0.29477702925601
  C   -0.70484364027990      0.04139673967625      0.31280634546810
  F   0.67703222027531      0.41905776008708     -1.55750292530395
  H   -0.67486357230512     -0.43489822279930      1.29269642390367
  N   1.56935775423382      0.95650270663576      0.52130786368221
  O   1.64121898452532      0.69173222581378      1.71191647573214
  O   2.09884111426996      1.86759230608274     -0.09116588585357
  N   1.37348562528359     -1.34273560438348     -0.20344426483794
  O   1.13889221586275     -1.99038277418159      0.80627370443032
  O   2.12635007360787     -1.61713925637817     -1.12460115005872
  N   -1.61453234317271     -0.86201293415990     -0.54863846332772
  O   -2.79899958298768     -0.55417380005423     -0.56921710900631
  O   -1.09564259045434     -1.82195935824602     -1.10732506037911
  N   -1.14160789122762      1.37970687542448      0.39968134436269
  H   -1.30345267681357      1.79001204798284     -0.51112953335904
  H   -1.97449868557785      1.46839220587543      0.96311926380324
