16
Coordinates from ORCA-job run
  C   0.78750004238467      0.39978305412675      0.08374027688614
  C   -0.72596098143773      0.41440646947548      0.30123229084794
  F   1.24930585288630      1.64494559600330      0.18829093410001
  H   -0.87154208684450      0.87731102081874      1.28089695899084
  N   1.54991637036955     -0.43042097245729      1.11063764215286
  O   2.11831068367685     -1.43793178490330      0.71916208513106
  O   1.51712473485646      0.03942486103859      2.23699551892905
  N   1.15002704915056     -0.13683122810839     -1.28062053142035
  O   2.16568062566187      0.30475743141337     -1.79194847404334
  O   0.38451543264959     -0.98642348182254     -1.72519771268310
  N   -1.28539405959060     -1.01082808283073      0.46662409858417
  O   -0.72477082456158     -1.71729720659894      1.29578045084674
  O   -2.26859513216406     -1.29818643167338     -0.19903472612461
  N   -1.33622157040578      1.16507189998994     -0.72344245693187
  H   -2.20652409208166      1.57596359608389     -0.41951655833721
  H   -1.50437204454993      0.59625525944450     -1.54359979692832
