16
Coordinates from ORCA-job run
  C   0.71146425129640     -0.35976967763618      0.38690431664074
  C   -0.73112091561199      0.13479303588606      0.43395349542271
  F   0.96678072330433     -1.28916451357645      1.30059867844730
  H   -0.99926871150002      0.16611963697604      1.49405203717570
  N   1.11850821500745     -0.87215096814040     -0.97682330604348
  O   2.03819405131260     -1.67228749568340     -1.00234892190229
  O   0.50163946673894     -0.39784615702344     -1.92373106943170
  N   1.61398501916374      0.83791987550178      0.68956964986592
  O   2.20805892082159      1.35034330930973     -0.24538290812933
  O   1.61783146699948      1.16239362369686      1.86616495325928
  N   -1.64286684470724     -0.96497971887963     -0.15234673738130
  O   -1.22471720399882     -2.11668293428966     -0.13360168807893
  O   -2.73869374865275     -0.58561969700799     -0.54120460753628
  N   -0.88615245653364      1.40589537809146     -0.14738715378757
  H   -0.78404883629986      1.37394183556387     -1.15297469048470
  H   -1.76759339734020      1.82809446721136      0.10455795196391
