16
Coordinates from ORCA-job run
  C   0.77571746447781      0.41668451539813      0.00254914683032
  C   -0.72755387369097      0.41773586778530      0.30361706993976
  F   1.18295971564082      1.65747241977626     -0.25193249937751
  H   -0.86106095895285      0.86025222399388      1.29270489144393
  N   1.57487740938386     -0.11327605443249      1.17796944779766
  O   2.68872227591691      0.36230221866078      1.32997968895291
  O   1.02165586120641     -0.97784700330469      1.84676466828879
  N   1.16928187141197     -0.43248371878824     -1.20539461797674
  O   1.91434482131186     -1.38050390816549     -1.01907862493531
  O   0.70652551140934     -0.02883879824669     -2.26255496235654
  N   -1.25253299849433     -1.00689148281158      0.46095099331192
  O   -2.03065278709122     -1.19367532530911      1.38817423861851
  O   -0.94515157461467     -1.80968750877879     -0.41569264705130
  N   -1.43857230534301      1.15964210059278     -0.66727351486725
  H   -1.38150822204332      0.75373502405793     -1.59144171123946
  H   -2.39705221052862      1.31637942957203     -0.38834156737973
