16
Coordinates from ORCA-job run
  C   0.82642602953579      0.32180443869138      0.02750687400179
  C   -0.67099654465808      0.51737032939354      0.26703860271232
  F   1.41605042882096      1.51576173439066     -0.00867457814660
  H   -0.74102526135964      1.09308195712137      1.19380098507413
  N   1.52731319781186     -0.47235838273861      1.12459379939769
  O   1.57495497671071      0.11378987722971      2.19446459761309
  O   1.97717198531689     -1.56975347435753      0.83359445259565
  N   1.09513291973941     -0.38929876869365     -1.27772521108166
  O   2.13643820692602     -0.11229800731215     -1.84940897477297
  O   0.23444528195781     -1.19532130158899     -1.61673204704546
  N   -1.36868187739198     -0.81606056676098      0.59356124097349
  O   -2.39323494526261     -1.06788142912454     -0.02225950653648
  O   -0.86173780940753     -1.48552582689867      1.48565039023235
  N   -1.22941908965840      1.21642703747511     -0.82160700645636
  H   -2.04555833412017      1.74407377333208     -0.54934341735896
  H   -1.47527916496103      0.58618860984125     -1.57446020120203
