16
Coordinates from ORCA-job run
  C   0.63996996291929      0.04093932175657     -0.38118856342029
  C   -0.66056044365097      0.00988659886656      0.39982651938553
  F   0.44615531092374      0.41020726063667     -1.64128544225805
  H   -0.47595652634213     -0.43271514909952      1.37857260578724
  N   1.56088529936320      1.06169545414820      0.29253149351840
  O   1.79930959754473      0.83766337920507      1.46975410172638
  O   1.95173978189939      1.98264799817970     -0.40352692705890
  N   1.41628653288119     -1.26619128228602     -0.34836211722793
  O   2.06089186540987     -1.52452658075844     -1.35251182051205
  O   1.35221436759414     -1.89543489739701      0.69754210710224
  N   -1.61496257882000     -0.97101831658528     -0.31526113775325
  O   -2.80916879919556     -0.73431438986828     -0.18914072016471
  O   -1.11296641981550     -1.91502136572393     -0.91516093633625
  N   -1.16473362379279      1.32259872220885      0.51147445811073
  H   -1.92208453401225      1.37965536204396      1.17647640651949
  H   -1.46801979290635      1.69392788467292     -0.37974002741858
