16
Coordinates from ORCA-job run
  C   0.63324423513676      0.14441767639039     -0.36646159780344
  C   -0.65305678137582     -0.10264901864989      0.39969739966257
  F   0.42074748770972      0.86234706926078     -1.46255906238851
  H   -0.45629550520518     -0.81194414856072      1.20351848574735
  N   1.57801696981281      0.92238124875487      0.55334478029235
  O   1.95853398759151      2.00711340230427      0.14861903891358
  O   1.84225034138795      0.36313059835362      1.60704524339171
  N   1.39479550991478     -1.12112613068970     -0.72823790700152
  O   2.02131433388529     -1.08069361856544     -1.77533903846076
  O   1.33920285328749     -2.02676383065646      0.09066128413321
  N   -1.63284105180989     -0.82655744743434     -0.54945365146207
  O   -2.82147098295535     -0.62534060963076     -0.33812008410124
  O   -1.15331837680152     -1.56160719460310     -1.40542044796551
  N   -1.13770117755504      1.12454322059893      0.89842053143787
  H   -1.45043304153830      1.74189946433620      0.16003682733591
  H   -1.88298880148521      0.99184931879134      1.56624819826849
