16
Coordinates from ORCA-job run
  C   0.65219105197931      0.11009416372684     -0.34523919340004
  C   -0.67494589857428     -0.06275508072013      0.36978707240188
  F   0.49394482002654      0.64505052147051     -1.54964253599549
  H   -0.51355706204631     -0.63289667376173      1.28456361867069
  N   1.51472441080385      1.05133194266372      0.49961812238368
  O   1.71724954503000      0.67212086031101      1.64331591722094
  O   1.90040361361579      2.07055502975873     -0.04613516081712
  N   1.46765924509155     -1.16832587832617     -0.46023812100143
  O   1.38403966921312     -1.93821417753092      0.48535748587136
  O   2.15741251222515     -1.26789281305509     -1.46266479620038
  N   -1.57084226882543     -0.95944072364048     -0.51296773154053
  O   -2.77570190545257     -0.77323346530687     -0.40519041690169
  O   -1.01735893449989     -1.79807346799088     -1.21528054937982
  N   -1.22396694440646      1.20778733489206      0.64075659374211
  H   -2.00646996085747      1.15254449003932      1.27605299174355
  H   -1.50478189332288      1.69234793747008     -0.20209329679771
