16
Coordinates from ORCA-job run
  C   0.80047439236898     -0.24074786372578      0.29443881994517
  C   -0.69160602277105     -0.00820579709719      0.51290714792217
  F   1.30956185203463     -1.13663141871308      1.13224764040248
  H   -0.84214525289967     -0.05319326271385      1.59549942066717
  N   1.13736208893379     -0.63444400669541     -1.12649067803151
  O   0.34862164337195     -0.24935833097498     -1.98197599178341
  O   2.17230436567194     -1.25985042624638     -1.28427212827442
  N   1.51204411033841      1.08752826988500      0.55861358368759
  O   1.90243308267236      1.72307535230686     -0.40755871953441
  O   1.58857300339770      1.37429936109043      1.74256905509487
  N   -1.46021665767412     -1.23366214474085     -0.02700378595641
  O   -2.64030369032628     -1.04096018726084     -0.28445070287327
  O   -0.85160960306978     -2.29458158636293     -0.10456454497328
  N   -1.12459669320126      1.23167705927269      0.01010387271272
  H   -2.03197274473078      1.48666509996834      0.37093708354204
  H   -1.12892387411682      1.24638988200795     -1.00100007254750
