16
Coordinates from ORCA-job run
  C   0.69246400579186      0.40347122065602      0.02851004125443
  C   -0.81780776387609      0.29868444435955      0.32086686765642
  F   0.97228850780732      1.69085892462315     -0.21138837443335
  H   -0.97972506495430      0.74927742159654      1.30155538065352
  N   1.54440150339113     -0.06018437081547      1.18826051451613
  O   2.61860442668947      0.50239867007719      1.33257763102451
  O   1.06649721383707     -0.96972003859495      1.85608835734171
  N   1.15076892234449     -0.38592788322039     -1.18967865643656
  O   0.73268674279087      0.05477562729322     -2.25172205188502
  O   1.88226828292693     -1.34521274692459     -1.00480831743539
  N   -1.24579951256728     -1.13917220046529      0.45227383265276
  O   -0.96420124271109     -1.85918501889536     -0.50207894051061
  O   -1.89406014934968     -1.44258462416184      1.44193307634381
  N   -1.66296098132427      0.90458075072370     -0.64966256247897
  H   -1.72557679906997      1.90335308037362     -0.51666406962774
  H   -1.36984809172643      0.69458674337489     -1.59506272863565
