16
Coordinates from ORCA-job run
  C   0.74944667124966     -0.41875865265340      0.21926258379590
  C   -0.67464300314993      0.02918750041321      0.53355949303506
  F   1.10433359884299     -1.51094527492299      0.88621652245949
  H   -0.81490960746564     -0.15998299645499      1.60185036511304
  N   0.99231629379841     -0.63157604627299     -1.25851232201109
  O   1.89788460571491     -1.39264475785387     -1.55419626836319
  O   0.27139217381492      0.01453691324926     -2.00995993824273
  N   1.68763435822831      0.70806075984411      0.65680227879048
  O   1.82542021980224      0.78748553859078      1.86694126179433
  O   2.17701014601615      1.40885592650880     -0.21438783640809
  N   -1.65582110605834     -0.94387849543134     -0.15471585034129
  O   -2.78838166832282     -0.51401017678786     -0.32350567512223
  O   -1.24433217801339     -2.06574284329139     -0.42654908297129
  N   -0.88887033679130      1.38917456968163      0.24578757976552
  H   -0.90787343721877      1.56412839365664     -0.75001972835713
  H   -1.73060673044739      1.73610964172440      0.68142661706323
