16
Coordinates from ORCA-job run
  C   0.66180548685026      0.08488475437313     -0.33331678566752
  C   -0.68461668478359     -0.03960902451125      0.35576193869217
  F   0.54013380920123      0.57792909763741     -1.55980292705769
  H   -0.55533010307725     -0.58347091751083      1.29142785434561
  N   1.52029839737142      1.04232436242709      0.49693705620304
  O   1.69527590723348      0.69845555181930      1.65626980441381
  O   1.92899898407261      2.03879336684606     -0.07347248827013
  N   1.45718943047255     -1.21015808954606     -0.38331401940898
  O   1.33865512379825     -1.94436031374076      0.58657433429882
  O   2.16774076508085     -1.35719380826547     -1.36527088904641
  N   -1.57642162802720     -0.94614580247231     -0.52104801864167
  O   -1.02320588995920     -1.82690203549568     -1.16996436136605
  O   -2.77853275000511     -0.72368743420570     -0.46289622842048
  N   -1.21438045024837      1.24878638166764      0.57466693989982
  H   -2.00980641843651      1.22945855716848      1.19575279395083
  H   -1.46880397954341      1.71189535380896     -0.28830500392517
