16
Coordinates from ORCA-job run
  C   0.69820320555782     -0.35481967516171      0.23431928201328
  C   -0.78353369081373     -0.01546145969454      0.40117087792000
  F   1.01864839459087     -1.44466493825884      0.92940820697327
  H   -0.96512193039578     -0.05302397188193      1.47698236442976
  N   1.17764161426923     -0.51350928469206     -1.19125096293637
  O   2.05532507752562     -1.33658089147752     -1.38090497995978
  O   0.65856337150801      0.23731478721992     -2.00682847180255
  N   1.48602630540976      0.81265470073067      0.83217917668799
  O   1.31453691788540      0.95335752805831      2.03575613405002
  O   2.18158442401399      1.48815478164557      0.08730980391929
  N   -1.59721362185479     -1.19226391166964     -0.14698080181169
  O   -1.04812939326213     -1.94916230893618     -0.94429412657068
  O   -2.74904927309749     -1.25722741706538      0.25406339645574
  N   -1.24009648622858      1.19976575608769     -0.12972366004536
  H   -1.39655570114774      1.93256802234348      0.53921751819457
  H   -0.80982921396047      1.49389828275215     -0.99042375751748
