16
Coordinates from ORCA-job run
  C   0.68324953930822      0.01351224874428     -0.29945358144883
  C   -0.70398759728934      0.03827165166367      0.31496021079320
  F   0.66253694731603      0.38692186086394     -1.57285694897367
  H   -0.66027842555085     -0.41044821531744      1.30724780151259
  N   1.55543070803172      0.99689113029130      0.48552231934330
  O   1.63789358530399      0.76572465905870      1.68246335518638
  O   2.06623583194885      1.89972282277179     -0.15431910574033
  N   1.39473444634178     -1.32487921209602     -0.17389127259587
  O   2.14815794760506     -1.61167718935165     -1.09076789985541
  O   1.17535643919795     -1.94841759554472      0.85417168556001
  N   -1.60245624712064     -0.90372529552420     -0.51619161675943
  O   -2.79194535515692     -0.61631437379338     -0.53978042427274
  O   -1.06994144090640     -1.87012523299310     -1.05050841544470
  N   -1.16337723794081      1.37061124450144      0.36778616388068
  H   -1.99272804707198      1.46154260633690      0.93597612505812
  H   -1.33888109401667      1.75338889038847     -0.55235839624329
