16
Coordinates from ORCA-job run
  C   0.82222036125874      0.33230147498887      0.04403944594911
  C   -0.68085623476324      0.50528236933877      0.26519086652950
  F   1.39703398617440      1.53392198051490      0.03590891567779
  H   -0.77149379944935      1.06689112232530      1.19879567101171
  N   1.51738986724946     -0.47199923971167      1.13716669463367
  O   1.97520645017202     -1.56338967619135      0.83585177017102
  O   1.55139379974387      0.09952851717918      2.21540176263696
  N   1.11755793791956     -0.35351717350095     -1.26906128636828
  O   0.27337818722395     -1.16714547370938     -1.63050302329250
  O   2.16079342736047     -0.05139305892414     -1.82413405160561
  N   -1.36551530495560     -0.84143550211598      0.56482589594655
  O   -0.86869112251756     -1.50954280694607      1.46359428522606
  O   -2.37166574146050     -1.10409922463091     -0.07625380949326
  N   -1.23334102131548      1.21164210990307     -0.82189968934319
  H   -2.05963001336109      1.72538228697520     -0.55350360468094
  H   -1.46178077927967      0.58757229450515     -1.58541984299860
