18

C	-0.397657	0.028351	-1.484031
C	0.0	0.0	0.0
Br	-0.111531	-1.830364	-2.327034
H	1.099528	0.0	0.0
N	-1.80068	0.267736	-1.637317
H	-1.987912	1.098671	-1.08197
H	-2.03005	0.428054	-2.610589
N	0.456309	0.969623	-2.120046
H	1.434603	0.76383	-1.911486
H	0.318008	0.980832	-3.123979
C	-0.574416	-1.147148	0.800001
H	-0.17988	-2.100821	0.455727
H	-1.664418	-1.158502	0.721666
H	-0.288383	-1.029775	1.850378
N	-0.503121	1.283468	0.548092
H	0.18133	1.996554	0.315838
H	-0.515339	1.205514	1.560541
Br	3.653139	0.0	0.0
