18

C	-0.450597	0.032424	-1.468925
C	0.0	0.0	0.0
Br	0.063605	-1.657107	-2.369623
H	1.098365	0.0	0.0
N	-1.878834	0.166871	-1.538459
H	-2.117835	0.439014	-2.486363
H	-2.10351	0.937814	-0.913963
N	0.223875	1.073375	-2.225834
H	0.008204	1.938934	-1.737451
H	1.230282	0.932075	-2.145645
C	-0.55369	-1.150319	0.817896
H	-0.149985	-1.094012	1.833269
H	-1.646936	-1.104457	0.855107
H	-0.263688	-2.110632	0.394665
N	-0.436009	1.305044	0.569877
H	-0.879949	1.144839	1.466999
H	0.395736	1.857538	0.753653
Br	3.677984	0.0	0.0
