18

C	-0.573753	-0.003089	-1.42112
C	0.0	0.0	0.0
Br	0.153642	-1.650078	-2.418353
H	1.093161	0.0	0.0
N	-2.009508	-0.12004	-1.371606
H	-2.384618	-0.015571	-2.307476
H	-2.270959	-1.045476	-1.050825
N	-0.116047	1.129306	-2.128966
H	-0.080892	1.901188	-1.470647
H	-0.681802	1.341975	-2.938153
C	-0.467736	-1.175886	0.851599
H	0.058651	-1.137846	1.807671
H	-0.23278	-2.132947	0.382776
H	-1.5437	-1.123824	1.055132
N	-0.373807	1.304819	0.575413
H	-1.30636	1.256715	0.969753
H	0.289902	1.526647	1.308278
Br	3.669677	0.0	0.0
