13
Coordinates from ORCA-job run
  C   -0.54225542276722     -0.03618149268987     -0.15254790479166
  C   0.79571595488969      0.22295281392307     -0.02890746612069
  C   -1.30656809601319     -1.04445746770219      0.65854307817855
  H   -1.71333931803422     -1.82846776829759      0.01419555428139
  H   -2.14493413247529     -0.56664354384806      1.17168112137580
  H   -0.66534311286052     -1.51283987409704      1.40637774584354
  C   -1.24308246230228      0.71019969553075     -1.14361074759093
  N   -1.78846956088792      1.35493526261758     -1.96652822977955
  N   1.53128285731102      1.05212069453506     -0.85181052850745
  H   2.33924785270737      1.48208344464040     -0.42944041660146
  H   0.98939487319167      1.68069005242431     -1.42870328480837
  C   1.55848497959196     -0.47975144033396      0.96422117442372
  N   2.18986558764893     -1.03664037670245      1.78652990409710
