13
Coordinates from ORCA-job run
  C   -0.32526800587306     -0.31665284891938      0.33669683391007
  C   0.68713550671204      0.29947185440442     -0.34728270247298
  C   -1.78773371549063     -0.19060714911378      0.01399352109564
  H   -2.20388962818440     -1.16172706593262     -0.26723295085838
  H   -2.34253502460730      0.17046929773182      0.88364778988394
  H   -1.94851045803740      0.50380906928611     -0.81167005359175
  C   0.06027657569720     -1.14689188982055      1.42864186554971
  N   0.41858002072985     -1.81749499500887      2.32989397984057
  N   2.03647722877057      0.09193884290535     -0.14038833504587
  H   2.27509521332350     -0.36202494986300      0.73049441167572
  H   2.63757129370230      0.86712498610312     -0.37271404993196
  C   0.36841170588185      1.16782741140590     -1.44567812205060
  N   0.12338931330011      1.89575752051022     -2.33740220051039
