13
Coordinates from ORCA-job run
  C   -0.38735731665654     -0.34654872892321      0.21303800501357
  C   0.73651688867927      0.36537272410010     -0.10664039280950
  C   -1.77370619417552     -0.05171463708459     -0.28905976021866
  H   -2.18080067079429     -0.91857860271909     -0.81643213318291
  H   -2.44369794271113      0.17182789933330      0.54481408724342
  H   -1.77216808768947      0.80198582424382     -0.96782201996329
  C   -0.21342003055214     -1.44385595107750      1.10545109628727
  N   -0.03727398331068     -2.34760593196769      1.84118684066591
  N   1.98609984322968      0.18524396219673      0.45046801055758
  H   2.76844678674401      0.42696355646242     -0.13676482058357
  H   2.11078148817724     -0.67518365161963      0.96511556892982
  C   0.63366484339210      1.46942015835456     -1.01927681794149
  N   0.57091437566744      2.36367337870079     -1.78207766399815
