13
Coordinates from ORCA-job run
  C   -0.57563045796969      0.17316135977644      0.17987586104988
  C   0.78453351075700      0.28150024346276      0.11444225998056
  C   -1.28263119068233     -1.02392873734597     -0.39675842437706
  H   -2.33700011692155     -1.01944986124366     -0.12386258451031
  H   -1.22211984638459     -1.03385023101510     -1.49108164670802
  H   -0.83719467066107     -1.95059211163732     -0.02129597108404
  C   -1.33675267560416      1.20951938126970      0.78664047325331
  N   -2.00980763828732      2.04279030080139      1.27844754657576
  N   1.60149176427017     -0.69987430678099     -0.41578022449330
  H   2.53340221506607     -0.40388115194109     -0.65965270818350
  H   1.17588346357882     -1.29297433297197     -1.11145530070372
  C   1.45958847408670      1.40310029437584      0.69962025150969
  N   2.04723716875193      2.31347915324996      1.15986046769074
