13
Coordinates from ORCA-job run
  C   -0.55026837920723     -0.04913563481701     -0.11388879615068
  C   0.79165271485608      0.21841562904662     -0.10074827936332
  C   -1.25685752576094     -0.97539570588908      0.83560925190764
  H   -1.69914465494085     -1.81641233219762      0.29505298659909
  H   -0.56743175278033     -1.37144223638845      1.58239448241886
  H   -2.06378122903152     -0.45046085935346      1.35295977296278
  C   -1.31730338961640      0.60144211622548     -1.12321380075673
  N   -1.92208520804221      1.16478236905507     -1.96423972652573
  N   1.46930133661292      0.96648916686762     -1.04235380098382
  H   0.88965275231881      1.54166153861507     -1.63786435723937
  H   2.30344573670009      1.42914651748353     -0.71624987929564
  C   1.61952609687705     -0.38990448961529      0.90253952980439
  N   2.30429350201452     -0.86918607903248      1.73100261662255
