13
Coordinates from ORCA-job run
  C   -0.57764420408012      0.15998437994683      0.18746085593863
  C   0.77907729770717      0.29767365807902      0.10696159080513
  C   -1.26511083631308     -1.05025487488680     -0.38504164327042
  H   -1.21277193799627     -1.05732038004955     -1.47992919397627
  H   -0.79813825479314     -1.96851392683381     -0.01520198720891
  H   -2.31736374567495     -1.06746964119217     -0.10437638058633
  C   -1.35325200121601      1.17964280245168      0.80427264208012
  N   -2.03620806618871      2.00020907051786      1.30361245551711
  N   1.61081163577733     -0.66521266349179     -0.43431862634413
  H   1.18985557312685     -1.26601515618992     -1.12626641984833
  H   2.53307635807314     -0.34869968813789     -0.68885729566513
  C   1.43665461856471      1.43216972637102      0.68695399790266
  N   2.01001356301309      2.35380669341549      1.14273000465589
