13
Coordinates from ORCA-job run
  C   -0.44756297665161      0.00260189147981      0.44088819093678
  C   0.63870441288365      0.49965089937036     -0.22221039581415
  C   -1.16767408063645     -1.21745199034062     -0.06656445766804
  H   -1.41963464263921     -1.10093252866564     -1.12559507573123
  H   -2.09240732250274     -1.37942640844896      0.48547836325012
  H   -0.55248069152463     -2.11841280108290      0.04082105574640
  C   -0.89893425025269      0.63767731659496      1.62993205365125
  N   -1.30773234675482      1.12821569610396      2.62062692751703
  N   1.11403966586467     -0.02988914342196     -1.40700888878769
  H   2.05056279198263      0.24139292116463     -1.66135674147916
  H   0.92034413287145     -1.00696743061519     -1.56156770354367
  C   1.29776411097807      1.68716645668415      0.23731979728819
  N   1.86701119638166      2.65537512117739      0.59023687463419
