13
Coordinates from ORCA-job run
  C   -0.39390579905382     -0.29560980856343      0.27731247936873
  C   0.74529504361466      0.30132737614807     -0.19034478627077
  C   -1.78990389563710      0.03413061838177     -0.17200175195280
  H   -2.38526616335096      0.40659558682202      0.66587264633482
  H   -2.28743865361835     -0.85694506157350     -0.56312265585686
  H   -1.78051165183925      0.79636756257244     -0.95189408506653
  C   -0.21973318542704     -1.29719996057104      1.27570126011534
  N   -0.02807916318396     -2.12481906485110      2.09324303568269
  N   2.01827083202209      0.09201163966877      0.30103382977619
  H   2.13228866561266     -0.72968490879924      0.87781078864999
  H   2.76974895586125      0.23907605010305     -0.35428407764849
  C   0.64416001467181      1.30970541849051     -1.20762582953620
  N   0.57507500032799      2.12604455217169     -2.05270085359612
