13
Coordinates from ORCA-job run
  C   -0.51750761447240     -0.26217174119906     -0.19124818642201
  C   0.80687367722858      0.07236142425584     -0.25533449360327
  C   -1.39134985023634      0.12024374774427      0.97204952331279
  H   -1.16160252132460      1.12558342643564      1.33980627757924
  H   -1.26057910851617     -0.58267077770513      1.80207809104578
  H   -2.44178424687864      0.10904166914617      0.68087781106420
  C   -1.07566230862582     -1.07602502591056     -1.21723684010632
  N   -1.57831983669636     -1.75867622189255     -2.03554012635979
  N   1.50036071266506      0.72970603865198      0.74418803441706
  H   2.31565550680364      1.23919269744943      0.44034306202449
  H   0.93340124816550      1.24304915113512      1.40237592530715
  C   1.59748514148389     -0.33503755091430     -1.38076921664450
  N   2.27302920040367     -0.62359683719686     -2.30058986161481
