13
Coordinates from ORCA-job run
  C   -0.53585413647133      0.09199098287101      0.23346290842023
  C   0.79589605086318      0.30902269254913      0.01764361477821
  C   -1.31441524449013     -1.07333777547613     -0.31318373617533
  H   -1.82575145239427     -1.59464815845151      0.49903345255286
  H   -2.07781981180999     -0.74006798295656     -1.02183026635320
  H   -0.67649069698415     -1.80115835931119     -0.81507054062981
  C   -1.26453602898785      1.03142917906544      1.02002618587723
  N   -1.91587256420912      1.77784095552308      1.65833082843842
  N   1.64594897890822     -0.53209743853172     -0.67899356792475
  H   2.49707929270682     -0.10465254028473     -1.00801473002780
  H   1.20680049409598     -1.11730635313740     -1.37197348636414
  C   1.44118070666267      1.42792419579185      0.64533538987218
  N   2.02283441210996      2.32606060234871      1.13523394753589
