13
Coordinates from ORCA-job run
  C   -0.46063909377829      0.05497346094934      0.42187458091076
  C   0.62354029525712      0.48697687663807     -0.28812020785663
  C   -1.11722499749717     -1.26140169435801      0.10253463123022
  H   -1.35240945206029     -1.32443153573880     -0.96474788149017
  H   -2.04445326715926     -1.37812390887222      0.66226487476235
  H   -0.46556501236003     -2.10423117529973      0.36031395231213
  C   -0.96995421803684      0.84980846314596      1.48514578160013
  N   -1.42650253096278      1.47140789411216      2.37630798340649
  N   1.15173975389907     -0.20077144713033     -1.36491448373700
  H   0.99533524211663     -1.19701840213396     -1.36684869645599
  H   2.09048184431553      0.05644348511598     -1.62624024065861
  C   1.22579976872180      1.75719151968948     -0.00568470078046
  N   1.74985166754452      2.78917646388205      0.20911440675678
