13
Coordinates from ORCA-job run
  C   -0.54953521220987     -0.03578772101928     -0.12541463342966
  C   0.77575907256421      0.28504625119351     -0.00968584282395
  C   -1.27817947605581     -1.02685453327023      0.73816067351799
  H   -1.74320152918905     -1.80138153274879      0.12297271550247
  H   -2.07026652468852     -0.53270949350957      1.30725985410841
  H   -0.59792342948250     -1.50721375511197      1.44266180270299
  C   -1.27942079854348      0.64703324486033     -1.14094225547905
  N   -1.84412378242859      1.23022278451237     -1.99614349176064
  N   1.42338974223168      1.28229352574613     -0.71031526959478
  H   2.41029750656655      1.14248712020323     -0.86015455672975
  H   0.93226523282445      1.62959696989872     -1.52241887249216
  C   1.57591909598619     -0.37998710418228      0.98002716465679
  N   2.24602010242472     -0.93274575657216      1.77399271182135
