13
Coordinates from ORCA-job run
  C   -0.57751801625577      0.16001909568439      0.18636859152933
  C   0.76181080463153      0.35521218133429      0.00266530586691
  C   -1.26615015244087     -1.04956064926411     -0.38612546166966
  H   -1.03433561867041     -1.15642304340893     -1.45063326940111
  H   -2.34705564878201     -0.96685602937663     -0.28094018403101
  H   -0.95243863164317     -1.96663498027356      0.12575066956481
  C   -1.32941757966398      1.10456033580257      0.93753910358200
  N   -1.98543071672290      1.85963455531931      1.56076069656427
  N   1.55865671425463     -0.48633880506932     -0.75274540263444
  H   2.54950784563794     -0.40877461699743     -0.58255057009002
  H   1.24137736123497     -1.44170416629783     -0.81394182233880
  C   1.40835453126207      1.52661622691949      0.51887052572813
  N   1.97363910715797      2.47124989562776      0.93598181732962
