13
Coordinates from ORCA-job run
  C   -0.54973476590344      0.02174774779664     -0.13257844474451
  C   0.78183303169695      0.25017548677385      0.08794353936685
  C   -1.31605790840889     -1.17305647825745      0.36136095664001
  H   -0.67036885448403     -1.84713245743830      0.92655319733776
  H   -1.74907013592722     -1.72656962160896     -0.47568887158671
  H   -2.13418631355475     -0.85696939768437      1.01353042822540
  C   -1.24436452179150      1.01504726034759     -0.88012676509834
  N   -1.77581302736307      1.85562327256893     -1.51368592391766
  N   1.46345193536544      1.40303911760373     -0.25034920319101
  H   0.99340554743673      2.00339682979483     -0.91351664080499
  H   2.44869920937894      1.28982172066899     -0.42992382321749
  C   1.55102060351921     -0.71967608856921      0.81555087671107
  N   2.20118520003562     -1.51444739199628      1.39093067427961
