13
Coordinates from ORCA-job run
  C   -0.55593711164003     -0.04615712140309     -0.08545443373872
  C   0.77298186856631      0.27998192315090     -0.08899158547592
  C   -1.22493372970540     -0.93714434420015      0.92310491187596
  H   -1.72613793533192     -1.77025665373955      0.42367975815249
  H   -1.98083012833481     -0.38239105108098      1.48540397853308
  H   -0.49980906779819     -1.34314270508498      1.62967074741225
  C   -1.35254578832162      0.52864207379074     -1.11766154040305
  N   -1.97728003561150      1.01668123661076     -1.99048792603419
  N   1.37179315665578      1.19577669226564     -0.93096002776904
  H   2.34705465762701      1.03364922222629     -1.12818736829801
  H   0.82941301587099      1.45449964716546     -1.74362138839544
  C   1.63726138879943     -0.28067553513952      0.91148136919916
  N   2.36096970922397     -0.74846338456151      1.71302350494143
