13
Coordinates from ORCA-job run
  C   -0.55813622868338      0.06195651575629     -0.06234863515815
  C   0.80467849959473      0.18466704784802     -0.03884661732735
  C   -1.34231408828853     -1.00512010569441      0.64845886319223
  H   -1.98882307388391     -0.56389928261416      1.41185613882625
  H   -1.97971522818575     -1.54481502636933     -0.05639622336422
  H   -0.67815524836840     -1.72232288441932      1.13279234120469
  C   -1.26932694857276      1.04065404867327     -0.81462914708717
  N   -1.81972809251249      1.86325041451990     -1.45552013882830
  N   1.52479912306617      1.23074026853229     -0.57983969303670
  H   2.46303168725728      1.00899667925433     -0.87475027472777
  H   1.01843691112499      1.81250091037249     -1.23305493071227
  C   1.58596216760062     -0.78353563312724      0.67820730493082
  N   2.24029051985143     -1.58207295273211      1.24307101208793
