13
Coordinates from ORCA-job run
  C   -0.39750629642354     -0.30605953532410      0.25962461984784
  C   0.73318025118643      0.35625480955079     -0.13429824685739
  C   -1.74971919985549     -0.16650170041697     -0.38130558524494
  H   -1.70681056717962      0.49725285944322     -1.24590694837452
  H   -2.47155492625269      0.24189430330204      0.33107994033487
  H   -2.12137068132245     -1.14022610556980     -0.70990034090093
  C   -0.26290326257881     -1.17985161949351      1.37705309415528
  N   -0.10869502661891     -1.89958408257030      2.29818357451009
  N   1.94625109689274      0.33377575569676      0.52431399434910
  H   2.75869160907824      0.48400443110638     -0.05298916574362
  H   2.05838001589564     -0.40772799552740      1.20168587061926
  C   0.67474065844630      1.23816219280229     -1.26618586017354
  N   0.64831632873217      1.94960668700059     -2.20335494652150
