13
Coordinates from ORCA-job run
  C   -0.55944386165458      0.06258224893949     -0.04880465484195
  C   0.80387973350288      0.17831761031731     -0.06864299225672
  C   -1.32787924431344     -0.97739127969709      0.71727300614612
  H   -0.65321372972845     -1.67317373697553      1.21773034490055
  H   -1.97630230131951     -1.54583156514115      0.04587477055197
  H   -1.96166270622427     -0.50769952969524      1.47418136575037
  C   -1.28805677568184      1.02217610239455     -0.80946919294581
  N   -1.85462353709323      1.82851497067306     -1.45687796054177
  N   1.51306329594629      1.20226525567843     -0.66410331867103
  H   0.99101816028914      1.76355346061157     -1.32286867507159
  H   2.44162154555879      0.96589766432267     -0.97723700453684
  C   1.60119839840163     -0.76873933765979      0.65908025895328
  N   2.26840102231658     -1.54947186376827      1.23386405256342
