13
Coordinates from ORCA-job run
  C   -0.54623561568920      0.13038715815545      0.06213111756609
  C   0.80582733099168      0.10730012449258     -0.14765882908534
  C   -1.35463395929506     -1.00822425823615      0.61805814476017
  H   -0.73114734687801     -1.88836917236664      0.78096035291340
  H   -1.80963007363390     -0.72727445573992      1.57166593941676
  H   -2.16050435847723     -1.27716453699019     -0.06940420842985
  C   -1.21701208491896      1.34490915682932     -0.26246833732118
  N   -1.73643448198509      2.36335847034222     -0.55088688456806
  N   1.57493378535248      1.18551253334929     -0.53673529276315
  H   2.41379746462739      0.96241675098209     -1.04911268441359
  H   1.06190469101212      1.97057414696608     -0.91328651508906
  C   1.54266996832614     -1.09091665513075      0.14111670975959
  N   2.15746468056765     -2.07150926265339      0.35462048725424
