13
Coordinates from ORCA-job run
  C   -0.56470779773241      0.13776268471832      0.17367783995556
  C   0.77287894185284      0.34602612626316     -0.01338567590471
  C   -1.30726608766808     -1.04117086336631     -0.39703787786692
  H   -0.79003480375480     -1.46272901947205     -1.25995762191776
  H   -1.44486346790510     -1.82976006025595      0.34571938127680
  H   -2.29564517857343     -0.73258969826723     -0.73532551019669
  C   -1.30396662651234      1.05281972804059      0.97799539640198
  N   -1.94284897167317      1.78694786804871      1.63926501254503
  N   1.60455199461101     -0.45504211411365     -0.78042482318292
  H   1.31991715744161     -1.41565715857075     -0.86974845454073
  H   2.58841244837665     -0.35457650234183     -0.59458187311823
  C   1.40082689789087      1.51410898167025      0.54132359281695
  N   1.96174549364635      2.45486002764671      0.97148061373163
