13
Coordinates from ORCA-job run
  C   -0.57923196950858      0.19266685641035      0.14294422380087
  C   0.78444940520374      0.26878119514144      0.11337501052848
  C   -1.31693894300825     -0.88565228518048     -0.60210282016961
  H   -1.35667637324174     -1.82292150082316     -0.03759189658752
  H   -0.82988506071532     -1.08493470735589     -1.56038476283097
  H   -2.34277123033005     -0.58200460742533     -0.79999097548332
  C   -1.32163086096236      1.15197655430653      0.88724428229323
  N   -1.97476092806466      1.93577666710374      1.47742291528626
  N   1.57900269788777     -0.62103521485572     -0.58822584930958
  H   2.56243284943347     -0.57368459923270     -0.37495665338636
  H   1.23270320770638     -1.56508298150916     -0.63284062363168
  C   1.47414807520134      1.35059640744878      0.75163846019019
  N   2.08815913039825      2.23551821597160      1.22446868930000
