13
Coordinates from ORCA-job run
  C   -0.55804302507162      0.08339556745565     -0.02894902521954
  C   0.80700798451891      0.14754414177856     -0.09680234652718
  C   -1.33831053066677     -0.92705697505088      0.76414720426420
  H   -2.02961575763353     -1.47179251435755      0.11628485293035
  H   -1.92866995278854     -0.43312362953574      1.54067281882825
  H   -0.67338650833830     -1.64688286154440      1.24346108253642
  C   -1.27608586008022      1.06992496904989     -0.76500062598172
  N   -1.83371909329686      1.89565911766594     -1.39539733902081
  N   1.53297292345527      1.14480707867537     -0.71711639790823
  H   1.00975953919508      1.72464265714949     -1.35866437660511
  H   2.44019827345890      0.87300639694350     -1.06256992642207
  C   1.59382627868896     -0.82821341280516      0.60392551335173
  N   2.25406572855875     -1.63091053542468      1.15600856577371
