13
Coordinates from ORCA-job run
  C   -0.57610536578661      0.15675157694516      0.19313393316252
  C   0.77939841229578      0.29991110897219      0.10181893128454
  C   -1.26499783603367     -1.04994005092315     -0.38594939170054
  H   -1.22954201030039     -1.04209662787137     -1.48141293445881
  H   -0.78600426161107     -1.96943243825277     -0.03411151755758
  H   -2.31249058046744     -1.07790782925850     -0.08897366454127
  C   -1.34962978469377      1.16338554571964      0.83317789764697
  N   -2.03268809186623      1.97142740962516      1.35251041078491
  N   1.60932443374916     -0.65266483609676     -0.46000335417900
  H   2.52879973960636     -0.32978333636745     -0.71670853867109
  H   1.18513178829363     -1.24527362263997     -1.15699664410063
  C   1.43830489675415      1.42952291638895      0.68972616391025
  N   2.01149866006011      2.34710018375887      1.15378870841974
