13
Coordinates from ORCA-job run
  C   -0.53856765022877      0.14515233073126      0.08777348963491
  C   0.79981139449375      0.08431552259849     -0.19047956777817
  C   -1.34371050498001     -0.96053402973943      0.71061598594487
  H   -1.74141056965830     -0.64651262222754      1.67951329442090
  H   -0.73377171200121     -1.85214859048785      0.86199232398463
  H   -2.19099463609976     -1.22437118461797      0.07282613687630
  C   -1.19690621858004      1.36806622131706     -0.23093211573037
  N   -1.70700619188204      2.39208431481542     -0.51623393991399
  N   1.57301618760226      1.13468708266125     -0.64343908674699
  H   2.37684512515802      0.87803976747602     -1.19502852492155
  H   1.05838003134696      1.92104953730679     -1.01541745654126
  C   1.52220000800189     -1.12520315915686      0.08761424435622
  N   2.12411473682724     -2.11562519067664      0.29219521641450
