13
Coordinates from ORCA-job run
  C   -0.55615363714547      0.04611540284739     -0.08745113082559
  C   0.80940597187537      0.12875275994581     -0.10446184152372
  C   -1.35196630778846     -0.95950842643202      0.69628278599379
  H   -0.69878259367276     -1.59305033108069      1.29784702367397
  H   -1.93040064717166     -1.59978618490802      0.02486085976456
  H   -2.05555891413211     -0.45487904988700      1.36322633793088
  C   -1.25874202027467      0.98792572372378     -0.89333056476388
  N   -1.80638280829221      1.78932446294056     -1.56260662408529
  N   1.55208998892797      0.96334731452640     -0.91571221371145
  H   1.03716018446684      1.72005562408407     -1.34436053557605
  H   2.45131620590158      1.23809148912054     -0.55232634864741
  C   1.58035963074437     -0.77456156073925      0.70283062417663
  N   2.22865494656119     -1.49082722414159      1.37520162759356
