13
Coordinates from ORCA-job run
  C   -0.57634418021443      0.18245006976069      0.16938693178833
  C   0.78729546449796      0.25920958316218      0.14208594815094
  C   -1.29587091768742     -0.98235199459329     -0.45594356108672
  H   -1.21063022695546     -0.96404149202553     -1.54869527706375
  H   -0.87952448434632     -1.92838829783291     -0.09562524580123
  H   -2.35590107615017     -0.96110858147020     -0.20676006817343
  C   -1.32842980350105      1.22106706849310      0.78358644885887
  N   -1.99420608538315      2.05893882009447      1.27731239951743
  N   1.59462932734311     -0.72711508647222     -0.39365177651041
  H   1.17520384269853     -1.29131921938665     -1.11653047580247
  H   2.53997465141356     -0.44781151725930     -0.60324512511034
  C   1.47313877706463      1.34855696312298      0.77339871873757
  N   2.07066471122023      2.23091368440668      1.27368108249522
