13
Coordinates from ORCA-job run
  C   -0.36248374454028     -0.26274800335723      0.33997156913348
  C   0.72840664035647      0.27726072205936     -0.28473064267724
  C   -1.75686526201474     -0.27830231224403     -0.22079313370961
  H   -2.47021635731717      0.08574854873350      0.52230409243611
  H   -2.05123215776310     -1.29539009838551     -0.49521391291763
  H   -1.82939751751985      0.35258468568790     -1.10719202095046
  C   -0.13700452573905     -0.88965894793108      1.59827706543873
  N   0.06976616555073     -1.38283434522239      2.64951973945657
  N   2.03362235120833      0.17529295126468      0.14882997278242
  H   2.64606190011225      0.92702471768232     -0.12483943110431
  H   2.15163494775104     -0.11784154295455      1.10808922752608
  C   0.55627399374114      0.92925778941348     -1.55225573926366
  N   0.42143356617423      1.48060583525355     -2.58296678615047
