13
Coordinates from ORCA-job run
  C   -0.54844681877785      0.13134539479011      0.04021204756119
  C   0.81272487570215      0.10948071151450     -0.09839525224581
  C   -1.38891037509154     -1.02497051526113      0.50426794268693
  H   -2.15413595047389     -1.26439274328858     -0.23839566906638
  H   -0.77698780937087     -1.91286167089680      0.66865991317408
  H   -1.89805724406158     -0.77941899704028      1.44006793993810
  C   -1.19726257409985      1.36049989930538     -0.27360656595508
  N   -1.69689736161623      2.39165366419580     -0.55186993652727
  N   1.60530714730301      1.19839965893984     -0.40198088923404
  H   1.11533356748528      1.99966356877634     -0.77536096402953
  H   2.46836886619878      0.99039234513737     -0.87948082170277
  C   1.52929436487679     -1.10348104890480      0.17980191236842
  N   2.12866931192579     -2.09531026726774      0.38508034303217
