13
Coordinates from ORCA-job run
  C   -0.55187445154264      0.02637610004994     -0.11887789475939
  C   0.81489751546753      0.09266068288951     -0.09989265740346
  C   -1.39363018553805     -0.74642355066094      0.85734101778614
  H   -1.93860526898974     -1.54587370749832      0.34819036401770
  H   -2.12897301035294     -0.09124768879837      1.33098161633605
  H   -0.77633378076001     -1.19396146148144      1.63747661645210
  C   -1.20631302416511      0.74137852144345     -1.16326411184557
  N   -1.71020330886971      1.35534305694375     -2.03461205693395
  N   1.60168826705635      0.69164830663198     -1.06305553444067
  H   2.49071216791507      1.04451158106286     -0.74485334675546
  H   1.11542155751725      1.31505761833669     -1.69247581301470
  C   1.53808921280747     -0.58063454777727      0.94224671992990
  N   2.14412430945453     -1.10883491114184      1.80179508063131
