13
Coordinates from ORCA-job run
  C   -0.54519411057052      0.13783788572844      0.05437765245987
  C   0.80934441167063      0.09599825138525     -0.13601257822206
  C   -1.37770344261746     -0.99165051773488      0.59332670120457
  H   -2.17580095985807     -1.24765124049254     -0.10805840055149
  H   -0.76899810160790     -1.88062878976291      0.76364801141611
  H   -1.84426911302945     -0.70711948124556      1.54028172424641
  C   -1.19354638151631      1.36383672960102     -0.27263771316978
  N   -1.69331731441288      2.39138658006640     -0.56352876881798
  N   1.60022009674066      1.16487997523863     -0.50697112034863
  H   2.44204934866255      0.93227309539836     -1.01019929138298
  H   1.10360756955631      1.95888474853379     -0.88691986028659
  C   1.52379708936157     -1.11469156997778      0.15738973932718
  N   2.11981090762085     -2.10535566673821      0.37730390412539
