13
Coordinates from ORCA-job run
  C   -0.35905733977625     -0.15512307457688      0.49254715557344
  C   0.63119433729995      0.53239245528688     -0.15016528566697
  C   -1.27869963640203     -1.07273499008101     -0.26806772984332
  H   -1.67924388198882     -0.56351876070219     -1.14981824173138
  H   -0.75269108377728     -1.97353871867581     -0.60542251017333
  H   -2.11297680011663     -1.39025093412018      0.35548815359968
  C   -0.51156345368176     -0.01524133497260      1.89939982838722
  N   -0.67642650271226      0.07028636218945      3.06330378787232
  N   0.82604732165129      0.48343551651270     -1.51959852614924
  H   0.52982416174528     -0.36938319309799     -1.96983379869633
  H   1.72985665726539      0.80199239056944     -1.83276234248559
  C   1.47107979964307      1.44818131901570      0.56536313966048
  N   2.18265642085007      2.20450296265249      1.12056636965302
