13
Coordinates from ORCA-job run
  C   -0.57869281391583      0.16500117487462      0.17642574466661
  C   0.78264263746632      0.27666931743202      0.12927268683762
  C   -1.27839933009776     -1.00705206614211     -0.45633480742103
  H   -2.34324720591075     -0.98641663432880     -0.23250185029772
  H   -1.16464406588302     -0.99660764262818     -1.54761541462313
  H   -0.86767554766319     -1.94876747865111     -0.07946497959146
  C   -1.33982246431272      1.17141188014049      0.83218813324914
  N   -1.99225636295310      1.99380460890807      1.36952085666308
  N   1.60396836100159     -0.68084977180079     -0.43274232535192
  H   1.18251643002818     -1.25667056488703     -1.14355365822734
  H   2.54062137408209     -0.38183178696916     -0.65495648655398
  C   1.44703514159326      1.37122698260772      0.77113354540979
  N   2.00895384656493      2.27808198144426      1.26762855524034
