13
Coordinates from ORCA-job run
  C   -0.55589963592286      0.07751765170646     -0.06670409563353
  C   0.81088396188443      0.14180069343733     -0.06776349886648
  C   -1.37724558042499     -0.85215098621288      0.78183525702676
  H   -0.73884857773711     -1.51632863975778      1.36593377876130
  H   -2.03238136835203     -1.46339038651397      0.15602639789351
  H   -2.00863557391634     -0.28616723349954      1.47192815315945
  C   -1.23339778031466      0.98048004756981     -0.93625355036293
  N   -1.75609192013935      1.73586375913226     -1.67548426948699
  N   1.56907162171193      1.07461284227288     -0.74682851262326
  H   2.49415623348966      0.77500832568829     -1.01280907387170
  H   1.08138213559790      1.58358295419386     -1.47115716653720
  C   1.55849907793159     -0.75500141705811      0.76825365025370
  N   2.18650740619182     -1.49582761095862      1.43302293028736
