11
Coordinates from ORCA-job run
  C   -0.80552380322220      0.42594858220797      0.10509336852678
  C   0.51225298122844     -0.28100483979029     -0.18715098246367
  F   -0.57470614916143      1.78430081326727      0.22359033084868
  H   0.29787549339338     -1.31089192615523     -0.49535782031827
  H   -1.21338089900411      0.07585169760676      1.05691011082204
  H   0.95551128431929      0.22843318421148     -1.04788386650677
  C   -1.78626710790167      0.20073314221980     -0.96810530820898
  N   -2.54396067096987     -0.01909660753139     -1.83700131652609
  N   1.36903614612676     -0.20426703227211      0.98555958704107
  H   1.52932025218795     -1.11385421580690      1.39066630553510
  H   2.25984247300346      0.21584720204264      0.77167959125010
