11
Coordinates from ORCA-job run
  C   -0.85693700432754      0.15030647972043      0.14988311442282
  C   0.56086769573424     -0.20588216716219     -0.25127241270265
  F   -0.82458051658625      1.30710941805706      0.91845520618429
  H   0.52328189864230     -1.09567563780960     -0.88537041092360
  H   -1.27828037307876     -0.64388456382542      0.77058378274930
  H   0.95929169507206      0.62283542401870     -0.85413790362909
  C   -1.71019683007783      0.38326917533647     -1.02454319446965
  N   -2.36932551452038      0.54629546640974     -1.98122983622592
  N   1.31159502653533     -0.50912025068398      0.95808409344432
  H   2.21455829479531     -0.89768446616516      0.72027444299254
  H   1.47072562781151      0.34343112210397      1.47927311815764
