11
Coordinates from ORCA-job run
  C   -0.87859867357785     -0.30933706132777     -0.43450060400019
  C   0.45104256290571     -0.61197593386523      0.24071024987366
  F   -1.80283242827638     -1.28654104675489     -0.10961210243706
  H   0.27258699382019     -0.71715536915217      1.31896860508735
  H   -0.74836489690270     -0.29789295032194     -1.51865843581563
  H   0.79049489080888     -1.57843962182894     -0.13853651029409
  C   -1.38669819529954      1.00103528432041      0.00275404920414
  N   -1.74597567644413      2.05169380131359      0.38195689236909
  N   1.39940721171183      0.42352486958089     -0.14252499902305
  H   2.34883492675573      0.09025597633449     -0.05228915326465
  H   1.29910328449826      1.23583205170158      0.45273200830042
