13

C	-0.649285	-0.467941	-1.290568
C	0.0	0.0	0.0
Br	0.169082	-2.04457	-2.047023
H	1.095671	0.0	0.0
H	-1.695488	-0.714135	-1.12629
H	-0.348178	1.026042	0.170967
N	-0.678395	0.654364	-2.297366
O	-1.676625	1.378307	-2.217177
O	0.265069	0.827548	-3.055176
N	-0.431498	-0.914971	1.066718
H	-0.966243	-0.413116	1.763765
H	0.416086	-1.244656	1.515258
H	2.899672	0.0	0.0
