13

C	-0.492385	0.028821	-1.425982
C	0.0	0.0	0.0
Br	-2.396413	0.494303	-1.585368
H	1.092315	0.0	0.0
H	0.049742	0.766431	-2.014427
H	-0.297843	0.957169	0.451848
N	-0.254095	-1.289989	-2.115132
O	-1.105809	-2.166266	-2.066131
O	0.847448	-1.381374	-2.652465
N	-0.452395	-1.176436	0.716614
H	0.300424	-1.47193	1.324806
H	-1.278974	-0.996432	1.268161
H	2.860931	0.0	0.0
