13

C	-0.480334	-0.037432	-1.421777
C	0.0	0.0	0.0
Br	-0.225147	1.651905	-2.346263
H	1.09342	0.0	0.0
H	0.016342	-0.813068	-2.000213
H	-0.377916	0.891793	0.507297
N	-1.953256	-0.354046	-1.49541
O	-2.317026	-1.132491	-2.37474
O	-2.693082	0.184488	-0.676755
N	-0.423677	-1.264091	0.611043
H	-1.16762	-1.112643	1.279117
H	0.380449	-1.649987	1.094007
H	2.898126	0.0	0.0
