13

C	-0.419687	0.021058	-1.457059
C	0.0	0.0	0.0
Br	-0.041648	1.715235	-2.314181
H	1.093013	0.0	0.0
H	0.071066	-0.75561	-2.041046
H	-0.388636	0.890514	0.496697
N	-1.896019	-0.235444	-1.593385
O	-2.234465	-1.229864	-2.236196
O	-2.664805	0.516053	-1.003015
N	-0.436687	-1.198062	0.69668
H	0.131544	-1.984708	0.412811
H	-1.413287	-1.411072	0.546445
H	2.918967	0.0	0.0
