13

C	-0.408997	-0.036847	-1.466115
C	0.0	0.0	0.0
Br	0.011287	1.589791	-2.423023
H	1.092836	0.0	0.0
H	0.085733	-0.857085	-1.9838
H	-0.335641	-0.957391	0.421281
N	-1.880684	-0.305841	-1.575129
O	-2.673689	0.612033	-1.366874
O	-2.197976	-1.4837	-1.760306
N	-0.483117	1.111707	0.78985
H	-1.398756	1.425285	0.490588
H	0.171671	1.876179	0.689799
H	2.863686	0.0	0.0
