13

C	-0.481465	-0.114192	-1.453377
C	0.0	0.0	0.0
Br	0.355699	-1.666022	-2.328507
H	1.108966	0.0	0.0
H	-0.37256	0.968101	0.36635
C	-1.930886	-0.308781	-1.532658
N	-3.101848	-0.418187	-1.53258
C	-0.120505	1.077458	-2.221273
N	0.130229	2.061539	-2.812827
N	-0.483007	-1.14139	0.761454
H	-1.194793	-0.88189	1.429764
H	0.311532	-1.520527	1.259819
F	2.599115	0.0	0.0
