13

C	-0.478841	0.040101	-1.45731
C	0.0	0.0	0.0
Br	0.263255	1.62683	-2.363846
H	1.10881	0.0	0.0
H	-0.369274	-0.949826	0.410541
C	-0.026603	-1.137019	-2.198427
N	0.289056	-2.101538	-2.7922
C	-1.935723	0.138012	-1.564181
N	-3.110334	0.178421	-1.601278
N	-0.520645	1.161395	0.712433
H	-1.0711	0.882579	1.510458
H	0.281915	1.682039	1.046267
F	2.604016	0.0	0.0
