13

C	-0.453577	-0.011102	-1.468416
C	0.0	0.0	0.0
Br	0.254452	-1.606948	-2.379731
H	1.10432	0.0	0.0
H	-0.36453	0.950007	0.415529
C	-1.911697	-0.05487	-1.59531
N	-3.087178	-0.035047	-1.626252
C	0.051855	1.162984	-2.179631
N	0.413157	2.13073	-2.739559
N	-0.532694	-1.166273	0.688416
H	0.25723	-1.660084	1.081652
H	-1.149438	-0.901836	1.441788
F	2.600274	0.0	0.0
