13

C	-0.379188	-0.017808	-1.463795
C	0.0	0.0	0.0
Br	-2.383949	-0.020275	-1.731483
H	1.099427	0.0	0.0
H	-0.380045	0.930725	0.438482
C	0.102317	1.175372	-2.157598
N	0.462103	2.154575	-2.698229
C	0.102239	-1.227087	-2.129623
N	0.468813	-2.200322	-2.675751
N	-0.453063	-1.218905	0.646295
H	0.334843	-1.594136	1.159625
H	-1.218623	-1.053428	1.284618
F	2.568765	0.0	0.0
