13

C	-0.485458	-0.007944	-1.457744
C	0.0	0.0	0.0
Br	0.391725	1.429734	-2.475057
H	1.097718	0.0	0.0
H	-0.380203	-0.926627	0.453511
C	-0.169462	-1.276947	-2.113557
N	0.047266	-2.318313	-2.613707
C	-1.928663	0.223261	-1.551429
N	-3.095286	0.359058	-1.602551
N	-0.470278	1.211788	0.654752
H	0.332911	1.630559	1.105855
H	-1.175095	1.020379	1.352236
F	2.603032	0.0	0.0
