13

C	-0.483465	0.018829	-1.457447
C	0.0	0.0	0.0
Br	0.397716	-1.412122	-2.482543
H	1.098503	0.0	0.0
H	-0.378939	0.924299	0.459399
C	-1.925908	-0.213594	-1.556039
N	-3.092917	-0.352648	-1.594327
C	-0.165603	1.290972	-2.105877
N	0.047957	2.329767	-2.611903
N	-0.473542	-1.21497	0.646422
H	-1.178746	-1.024878	1.344419
H	0.327586	-1.63945	1.096157
F	2.602632	0.0	0.0
