16

C	-0.363683	0.10249	-1.457627
C	0.0	0.0	0.0
Cl	-2.140142	0.18241	-1.782232
H	1.095847	0.0	0.0
C	0.242749	1.281465	-2.07104
N	0.685888	2.261884	-2.543347
N	0.166333	-1.140612	-2.200623
O	-0.4346	-2.185056	-2.002133
O	1.162737	-0.981293	-2.891826
C	-0.555185	-1.17612	0.633042
N	-0.977813	-2.092611	1.238015
C	-0.36022	1.265706	0.778433
H	-0.008762	1.136096	1.803767
H	-1.433585	1.47882	0.789015
H	0.184821	2.111791	0.355562
F	2.472657	0.0	0.0
