16

C	-0.448863	-0.017824	-1.456676
C	0.0	0.0	0.0
Cl	0.297659	-1.358477	-2.333318
H	1.095247	0.0	0.0
C	-1.900792	-0.095545	-1.625919
N	-3.070201	-0.197509	-1.702716
N	0.011615	1.31006	-2.090194
O	-0.826033	2.21072	-2.081154
O	1.162743	1.382725	-2.48082
C	-0.512126	-1.190113	0.649327
N	-0.933291	-2.139656	1.202872
C	-0.421784	1.268704	0.742091
H	-1.490646	1.493201	0.674038
H	-0.152425	1.137915	1.791191
H	0.156795	2.113072	0.364333
F	2.490014	0.0	0.0
