16

C	-0.44004	-0.028793	-1.460603
C	0.0	0.0	0.0
Cl	0.332425	-1.362182	-2.324776
H	1.095255	0.0	0.0
C	-1.888612	-0.129635	-1.640251
N	-3.055679	-0.249366	-1.717715
N	0.007211	1.303266	-2.092708
O	-0.850812	2.183901	-2.116293
O	1.170616	1.400988	-2.441977
C	-0.506185	-1.19032	0.65271
N	-0.920648	-2.143124	1.205092
C	-0.434387	1.267137	0.733963
H	-1.50887	1.465565	0.680961
H	-0.14455	1.155081	1.780202
H	0.116716	2.120953	0.339136
F	2.491274	0.0	0.0
