16

C	-0.383542	0.074258	-1.452711
C	0.0	0.0	0.0
Cl	-2.163765	0.103779	-1.756937
H	1.095899	0.0	0.0
C	0.182451	1.259702	-2.086903
N	0.559697	2.254282	-2.585506
N	0.171674	-1.163488	-2.186157
O	1.156213	-0.98322	-2.890772
O	-0.398854	-2.221997	-1.967516
C	-0.585003	-1.147586	0.661258
N	-1.048858	-2.032337	1.283133
C	-0.345789	1.286106	0.753742
H	-0.004097	1.168135	1.78366
H	-1.416337	1.515728	0.754471
H	0.215296	2.11591	0.320317
F	2.472827	0.0	0.0
