16

C	-0.445315	-0.008508	-1.458362
C	0.0	0.0	0.0
Cl	0.210765	-1.410347	-2.314745
H	1.095271	0.0	0.0
C	-1.898596	0.005732	-1.628945
N	-3.071089	-0.0118	-1.712316
N	0.096839	1.277495	-2.115462
O	1.231032	1.262144	-2.557534
O	-0.668709	2.239306	-2.070275
C	-0.524738	-1.185252	0.646274
N	-0.953002	-2.128092	1.205214
C	-0.406558	1.267316	0.753419
H	0.174126	2.110783	0.380513
H	-0.132569	1.127254	1.800441
H	-1.473932	1.49771	0.691878
F	2.488278	0.0	0.0
