16

C	-0.450239	0.009262	-1.456745
C	0.0	0.0	0.0
Cl	0.233756	-1.360379	-2.339289
H	1.095234	0.0	0.0
C	-1.904115	-0.004642	-1.623804
N	-3.076725	-0.048962	-1.701728
N	0.065309	1.319885	-2.087206
O	-0.723867	2.261685	-2.041151
O	1.205141	1.338262	-2.513609
C	-0.522439	-1.193824	0.633093
N	-0.95138	-2.144824	1.17779
C	-0.408824	1.259681	0.765128
H	-1.474924	1.497633	0.699058
H	-0.142109	1.107654	1.812384
H	0.17985	2.103619	0.404533
F	2.490049	0.0	0.0
