11
Coordinates from ORCA-job run
  C   -0.66613683132656     -0.60467726415955      0.29768543562852
  C   0.60147758839952     -0.14237246739049      0.05578916558799
  H   -0.73193370185331     -1.57788411797342      0.77648330595070
  N   -1.83129798560215     -0.02316358578572      0.00271004864751
  H   -2.69134237927234     -0.44201772315141      0.30793872825124
  H   -1.83241170368484      0.90293423877559     -0.39541547065029
  C   1.73658470062839     -0.91808534688109      0.41745499016059
  N   2.63719421833024     -1.60360151683304      0.73644221177960
  N   0.86282260585374      1.13234539093123     -0.56785651531391
  O   -0.11675912356598      1.81868193443863     -0.89124697340961
  O   2.03280261209329      1.45784045802924     -0.74098492663235
