11
Coordinates from ORCA-job run
  C   -0.67504148477279     -0.64567958815244      0.15670045173554
  C   0.59558072589572     -0.17107266003163     -0.04180147435309
  H   -0.76238310586561     -1.71741177012586      0.31210153030026
  N   -1.82102292339599      0.03681786211915      0.18198239529392
  H   -1.80680931369752      1.03714667453790      0.06188409094280
  H   -2.68575295716333     -0.43965287872002      0.36249678921521
  C   1.70799057945021     -1.05616175746442     -0.04494963359720
  N   2.59159642523719     -1.83192953345050     -0.03416981203276
  N   0.88198400851757      1.22551409612640     -0.26201940489932
  O   -0.07742182661305      2.01007296678227     -0.25865126554575
  O   2.05227987240760      1.55235658837914     -0.43357366705960
