11
Coordinates from ORCA-job run
  C   -0.84582080579769      0.22443730782031      0.10767624528191
  C   0.49707703662235      0.14084097315421     -0.09881201446897
  H   -1.31838913871889      1.19350605475282     -0.01389417414715
  N   -1.63130528888009     -0.79716194159428      0.48129396616791
  H   -2.62738360697768     -0.68121127863375      0.51430227285819
  H   -1.26569909217752     -1.73473249078869      0.54290652885092
  C   1.20401879384915     -1.08161988334611      0.02603161308372
  N   1.66346550023749     -2.15685896964113      0.16218638947871
  N   1.24447685800274      1.32818702367117     -0.47664217039167
  O   2.44784794299440      1.17600640810106     -0.67326312733183
  O   0.63171180084574      2.38860679650439     -0.57378552938173
