11
Coordinates from ORCA-job run
  C   -0.82150663185607      0.11023476937514     -0.30308378049738
  C   0.49936206250736      0.16008180703283      0.02189337540391
  H   -1.22486627581203      0.91532288489072     -0.90831459642988
  N   -1.66046447485494     -0.88035143584487      0.03840009736785
  H   -2.64480721596193     -0.78484496776010     -0.13219120435631
  H   -1.36371832150354     -1.60915171528754      0.66867033897625
  C   1.11978398837556     -0.83934940948436      0.81328620732049
  N   1.50663849704829     -1.73170759309188      1.47657000445294
  N   1.31553090835004      1.26989097232493     -0.44117419306468
  O   0.77613491608195      2.13588666096062     -1.12558376390789
  O   2.49791254762530      1.25398802688451     -0.10747248526531
