11
Coordinates from ORCA-job run
  C   -0.67493776307982     -0.66490047847615     -0.04950532424268
  C   0.59133416127025     -0.16114553897378      0.10055714992613
  H   -0.76744475349682     -1.74539253370174      0.01878498378446
  N   -1.81075976599731      0.00079397316102     -0.26890121275513
  H   -1.79025409621129      1.00605807684455     -0.34083470679902
  H   -2.67754340832013     -0.49724601047585     -0.35852554707724
  C   1.69493155221657     -1.02712480651495      0.33008182414404
  N   2.57215915618986     -1.78744680555270      0.51748506486726
  N   0.88234094935670      1.25079797249636      0.03510707917135
  O   -0.06971516493553      2.01973599589939     -0.15907714232010
  O   2.04888913300751      1.60387015529384      0.17482783130094
