11
Coordinates from ORCA-job run
  C   -0.80996782842757      0.04974173188120     -0.34509147586594
  C   0.49846972866669      0.16904367858755      0.01270831957539
  H   -1.19014645776815      0.71867592913450     -1.10983613127277
  N   -1.66666733039481     -0.84545152321279      0.16695502663472
  H   -2.63114752704928     -0.84310577254993     -0.10862030913665
  H   -1.38658001869921     -1.47262567547078      0.90471413178872
  C   1.08577680411190     -0.65574453904808      1.00490197630713
  N   1.44318257186594     -1.40345183245606      1.84103291012135
  N   1.33321697264888      1.17103125661501     -0.62706378545339
  O   2.50179812402862      1.22876086001309     -0.25159865354777
  O   0.82206496101700      1.88312588650629     -1.48810200915079
