11
Coordinates from ORCA-job run
  C   -0.86053131168762      0.16051331849681     -0.10524244930715
  C   0.49702731340268      0.17361311684023     -0.00017961640025
  H   -1.35615543049923      1.08256478220399     -0.39046498045030
  N   -1.63826237910691     -0.90537658094999      0.13232330335848
  H   -1.23923433959266     -1.79939530103992      0.37201821998998
  H   -2.63005312405724     -0.85433982958254     -0.00867776369682
  C   1.23557292944995     -0.98123982705060      0.36054733943268
  N   1.72033743590737     -2.00930148778315      0.66706426940330
  N   1.23013278447768      1.39775694976546     -0.27339670703761
  O   0.58745325798486      2.39667116924487     -0.58803090725801
  O   2.45271286372112      1.33753368985484     -0.16596070803430
