11
Coordinates from ORCA-job run
  C   -0.80615817031709      0.04569098753978     -0.35463248468857
  C   0.49750592833360      0.17056036934810      0.01753260390155
  H   -1.18406156838735      0.72246265465255     -1.11383579889659
  N   -1.65830476045757     -0.87057832927130      0.12853642186623
  H   -1.38516296786796     -1.48981098621231      0.87567460855692
  H   -2.62732718307404     -0.84708879368890     -0.13018312432018
  C   1.08191673411311     -0.66247739358918      1.00453813825673
  N   1.43683808414723     -1.41777611833624      1.83480698526619
  N   1.32987410874833      1.18937822983757     -0.59889868170757
  O   0.82112359407569      1.90948245400134     -1.45459885856856
  O   2.49375620068606      1.25215692571858     -0.20993980966617
