11
Coordinates from ORCA-job run
  C   -0.69450790680018     -0.64531349062776     -0.04034601784192
  C   0.57661258287537     -0.17025040121937      0.15540573120095
  H   -0.83205390236340     -1.71200894651516      0.11431940202039
  N   -1.78693924519975      0.03437144899880     -0.39505768661913
  H   -2.66280031618447     -0.44261788822097     -0.50835332202435
  H   -1.72197551918085      1.02746914222896     -0.55544005951528
  C   1.62878813640523     -1.04627767335109      0.53765513518987
  N   2.46212669357351     -1.81371554944523      0.85278304802813
  N   0.92380117033924      1.22080180018889     -0.00857714485897
  O   2.08906223917703      1.54925517920213      0.18957574832102
  O   0.01788606735827      1.99828637876080     -0.34096483390070
