11
Coordinates from ORCA-job run
  C   -0.79828239192183      0.18989930738536      0.32332858407940
  C   0.47738937380091      0.16157031203406     -0.15135652449684
  H   -1.18469197299653      1.13693528271340      0.68529277676090
  N   -1.62993251604090     -0.86222387239098      0.35435245976690
  H   -1.31039740334795     -1.78186004946419      0.09268169072812
  H   -2.52290718396616     -0.78688118337321      0.80512716857088
  C   1.07285738581753     -1.02980003166060     -0.63730465471466
  N   1.43994970760760     -2.08425500264018     -1.01042829245540
  N   1.27546131458031      1.37564237737677     -0.15170671408385
  O   0.75635362905271      2.40687877244576      0.26858971571991
  O   2.42320005741433      1.27409408757382     -0.57857620987536
