11
Coordinates from ORCA-job run
  C   -0.74834071959986     -0.47065484715308      0.34257192004594
  C   0.56397755972873     -0.08584300093909      0.24605728837989
  H   -0.97343614428185     -1.19991369774108      1.11594139128997
  N   -1.78692589023870     -0.06372323060375     -0.39038120026666
  H   -1.64164709496745      0.61240104643417     -1.12377783138492
  H   -2.70397925194745     -0.43052819560098     -0.21192563292607
  C   1.54540591107219     -0.63062989632492      1.11826677396914
  N   2.31423003112780     -1.11266278750399      1.86600172578374
  N   1.02662522324083      0.87262088121050     -0.72799462320218
  O   2.22108088765401      1.15237032901057     -0.73624632554862
  O   0.18300948821174      1.35556339921166     -1.49651348614022
