11
Coordinates from ORCA-job run
  C   -0.71388158469368     -0.42733581047514      0.45489062442012
  C   0.58611539996520     -0.18032553849091      0.09678655462398
  H   -0.86323451758740     -1.21709528097054      1.18597437965189
  N   -1.82358014799319      0.16497301704955      0.00738097032741
  H   -2.71481850113560     -0.07632203197419      0.40128439206342
  H   -1.74648685493463      0.93072060790706     -0.64363641759525
  C   1.65057493079791     -0.93234910659190      0.66435949779828
  N   2.49019317599011     -1.58677181513979      1.16386701944376
  N   0.95308535910486      0.83769199336311     -0.85782274751072
  O   0.03644904595379      1.49929281543699     -1.36506565328336
  O   2.14458369453262      0.98652114988574     -1.10901861993953
