11
Coordinates from ORCA-job run
  C   -0.65914984877431     -0.67949263036503     -0.05173759416912
  C   0.59685991338204     -0.14810203522979      0.08815224586447
  H   -0.72509720689972     -1.76277294888369      0.00193464247544
  N   -1.81292677075141     -0.03803296112036     -0.24809589796129
  H   -1.81717189708865      0.96846876261417     -0.30394504385120
  H   -2.66936177139966     -0.55486976304796     -0.33030581500794
  C   1.72291328989608     -0.99160509457659      0.29201561066848
  N   2.61823590338832     -1.73566003035733      0.45782565026982
  N   0.85335913446820      1.27119352083041      0.04353800554719
  O   -0.11847407025188      2.01956364038675     -0.13235405383018
  O   2.01181332403100      1.65030953974943      0.18197224999433
