11
Coordinates from ORCA-job run
  C   -0.85922687717813      0.13972107686678     -0.14720023691007
  C   0.49739386784151      0.16191128675383     -0.04059209551694
  H   -1.34006157928837      0.95341586123667     -0.67978453608741
  N   -1.65705371203615     -0.79531393498982      0.39252382337335
  H   -1.26456912072079     -1.61508578269948      0.82912993045349
  H   -2.63420357090886     -0.81249927343432      0.16415179557738
  C   1.21780959909818     -0.85772830276487      0.63127488488921
  N   1.68926198901345     -1.76465596185827      1.21510942312012
  N   1.25125497772141      1.25188342603588     -0.63612901498988
  O   0.62605926730293      2.13331854287833     -1.22053425520813
  O   2.47233515915483      1.20503306197526     -0.50794971870110
