11
Coordinates from ORCA-job run
  C   -0.68916194050606     -0.65109968697929     -0.02074035122979
  C   0.58933017692991     -0.17082118304952      0.09748691152422
  H   -0.80391237929023     -1.72682963555962      0.08090948803647
  N   -1.81608032690130      0.03347159929590     -0.23000881983265
  H   -1.77248224063687      1.03255708272744     -0.35622246913897
  H   -2.68633369319705     -0.45461662271638     -0.34046214164405
  C   1.67705072401679     -1.05188682369810      0.34494075957354
  N   2.53943912716193     -1.82343584506660      0.55379297603236
  N   0.90896843469045      1.23230528349177     -0.01323785773418
  O   -0.02938634166146      2.01526720201903     -0.21716709643020
  O   2.08456845939388      1.56408862953537      0.10070860084325
