11
Coordinates from ORCA-job run
  C   -0.79461998899357     -0.01072110340676     -0.38190937458142
  C   0.48433074551464      0.20434756295482      0.03252279687178
  H   -1.20067758221173      0.65099600555968     -1.13974087003943
  N   -1.58759354317756     -0.99999272009977      0.05619863947628
  H   -2.54932210338960     -1.03955085779654     -0.22675769607296
  H   -1.29145910738244     -1.60913563974958      0.80298229315731
  C   1.09725059306758     -0.59839815369174      1.02748887185357
  N   1.47762181317511     -1.33745181505473      1.86103677415935
  N   1.25286256266287      1.29884719654247     -0.53483417034259
  O   0.71880927857946      1.99224097445183     -1.39711542330252
  O   2.39279733215525      1.44781855029032     -0.10087184117936
