11
Coordinates from ORCA-job run
  C   -0.69539832053188     -0.64101347143948     -0.08122683884903
  C   0.59313666366342     -0.17329124921199     -0.05548553332934
  H   -0.81150997407641     -1.70881831479527     -0.24572246033191
  N   -1.82865243942722      0.04807350759885      0.06624024174969
  H   -2.71373617795098     -0.42530711252839      0.05529013857034
  H   -1.78092360897574      1.03990053575382      0.24265208414874
  C   1.69006912485733     -1.05864149369182     -0.24118104531233
  N   2.56052368811256     -1.83407587609108     -0.39462770929884
  N   0.91600261634877      1.21541296261614      0.16059849908582
  O   2.09989133163226      1.53700486979791      0.16860548137031
  O   -0.02940290365211      1.99975564199132      0.32585714219654
