11
Coordinates from ORCA-job run
  C   -0.70106094025381     -0.62363387445936     -0.13505398603138
  C   0.58614049466991     -0.19469803690046      0.05896354006397
  H   -0.83705223257525     -1.69943000769849     -0.20472114824733
  N   -1.80760993961521      0.11013121989742     -0.27779682311777
  H   -2.70143983489866     -0.34282623486367     -0.33579789562170
  H   -1.75158994137194      1.11062527778023     -0.16723190351065
  C   1.65337198122018     -1.12787427960368      0.16513144091030
  N   2.49669038360755     -1.94291470710725      0.24983972806941
  N   0.93444053495415      1.20062657633668      0.18218380393348
  O   2.11478353501495      1.48439297649718      0.35834914092955
  O   0.01332595924814      2.02560109012139      0.10513410262213
