11
Coordinates from ORCA-job run
  C   -0.73665787736974     -0.43142822575702      0.41004390674766
  C   0.58080972553163     -0.18822238894497      0.11875135369784
  H   -0.92672827929501     -1.22547407626700      1.12684276208813
  N   -1.82049826982956      0.17157409515185     -0.08459915125588
  H   -1.70924025260196      0.94416342964587     -0.72237311224972
  H   -2.73054351221067     -0.06912663791039      0.26405461645846
  C   1.61126579356640     -0.94484702247425      0.74047055096371
  N   2.42056786539156     -1.60026805726796      1.28626005552702
  N   0.99865437423564      0.84099035229001     -0.80251639402938
  O   2.20218046904188      0.99254569941205     -0.98620118985485
  O   0.11118996353984      1.50909283212181     -1.35073339809299
