11
Coordinates from ORCA-job run
  C   -0.80996005753360      0.03031498859522     -0.34634008529393
  C   0.49050607093034      0.19032672937130      0.02438207397079
  H   -1.20517041463953      0.69338244120495     -1.10878471231316
  N   -1.64772435740859     -0.88154667888910      0.16708100310248
  H   -2.58704768010035     -0.96169037894929     -0.17547586464112
  H   -1.33957105211186     -1.54013869516072      0.86523384138399
  C   1.09856365053792     -0.62686829399920      1.01020060295642
  N   1.47504705700219     -1.37343742176917      1.83891005970561
  N   1.29687103713996      1.22463178412805     -0.60029760394564
  O   0.76662615524884      1.93317742054111     -1.45266490437235
  O   2.46285959093469      1.31084810492684     -0.22224441055311
