11
Coordinates from ORCA-job run
  C   -0.72783494007559     -0.59111674851510     -0.14424775498791
  C   0.57080131837067     -0.22434584233794      0.09706295824765
  H   -0.91530527868001     -1.65928443283904     -0.21225645841078
  N   -1.79645010680239      0.19430415703140     -0.29534784648773
  H   -2.69285121359855     -0.21004788686767     -0.49628233858194
  H   -1.68492257972788      1.19561671714712     -0.26342980844644
  C   1.58842602453153     -1.20614696883426      0.24081517421009
  N   2.39096438136803     -2.05792505555905      0.35498160144197
  N   0.98419660098488      1.15368151092445      0.21026494695582
  O   2.17026389085442      1.38190505431310      0.42496073481115
  O   0.10971190277488      2.02235949553698      0.08347879124812
