11
Coordinates from ORCA-job run
  C   -0.84878306882517      0.18591946018554     -0.15236565849712
  C   0.50699316307715      0.13344910784607     -0.04105220545207
  H   -1.28094659244628      1.01623578914857     -0.70107324682688
  N   -1.69898002174397     -0.69692929405440      0.39391820340568
  H   -1.35592521182547     -1.52822415903791      0.84967806775829
  H   -2.67769249952126     -0.65395773619104      0.17689564823271
  C   1.16545452330109     -0.91576375071388      0.64846383180183
  N   1.57894209074554     -1.84153523143911      1.24659309385770
  N   1.32257570273398      1.16937482119073     -0.65146275123999
  O   2.53895838353581      1.05386972521530     -0.52135107869884
  O   0.74940353096859      2.07756126785013     -1.24824390434130
