11
Coordinates from ORCA-job run
  C   -0.68048451294084     -0.62212246135981      0.28043449696071
  C   0.59930607930459     -0.14342409471164      0.20651173805607
  H   -0.82607043611758     -1.61312155969442      0.69515496337292
  N   -1.78616448031196     -0.02738666323261     -0.22754690735585
  H   -1.75061686284275      0.93838913523674     -0.51718031876576
  H   -2.67424045366983     -0.32350442584277      0.13708762508556
  C   1.73702680237663     -0.91228483129525      0.56175103445984
  N   2.63076476663792     -1.59956773723416      0.90017153124981
  N   0.85177983819947      1.11418977220203     -0.49489833589276
  O   1.68684811558677      1.08607762399680     -1.39588280039581
  O   0.21285114377757      2.10375524193509     -0.14560302677472
