11
Coordinates from ORCA-job run
  C   -0.85315302710580      0.09702674879884     -0.19846649817025
  C   0.50254217158730      0.14174626490944     -0.07522640415764
  H   -1.32294018245436      0.79646187573288     -0.88256104429667
  N   -1.65345371174141     -0.75776762451084      0.45380003791797
  H   -1.27726792687843     -1.42611985923992      1.10815428279717
  H   -2.64808606818362     -0.73137122104498      0.32589712351198
  C   1.20696044349486     -0.72461423386056      0.79801301579072
  N   1.65721152864529     -1.50261728414432      1.55826265277420
  N   1.26239745947668      1.12058173961739     -0.83494573340884
  O   0.64635323697342      1.87732777255427     -1.58117867929754
  O   2.48043607618607      1.10934582118780     -0.67274875346108
