11
Coordinates from ORCA-job run
  C   -0.70304652831159     -0.62567884792295     -0.11423135184415
  C   0.59254195924200     -0.17834812372605     -0.05479051127850
  H   -0.82898840909194     -1.68327828514132     -0.32975348281096
  N   -1.82706653475048      0.06986328478567      0.06916360839565
  H   -2.71992673428826     -0.37507446903821     -0.04369334487654
  H   -1.77213700001212      1.06242722039773      0.23749662474142
  C   1.67648091832124     -1.07752924330576     -0.24801536985083
  N   2.52884577674405     -1.86977396529484     -0.41377843083638
  N   0.93256984259476      1.19476780625940      0.22620245012880
  O   2.12162261528172      1.49261290584715      0.27069133645231
  O   -0.00189590572936      1.99001171713918      0.39970847177918
