11
Coordinates from ORCA-job run
  C   -0.67827956762046     -0.66288777877958      0.00721867049016
  C   0.59764725630311     -0.16378702557709     -0.04251719532361
  H   -0.76727822892698     -1.74484723894196     -0.03919546814810
  N   -1.82730574111899      0.00926676139438      0.10458776286378
  H   -2.69976416509282     -0.48618653776369      0.13271127055909
  H   -1.81022943278122      1.01601605892827      0.15254507190838
  C   1.71510121156919     -1.03616188637697     -0.14709060056687
  N   2.60310965925186     -1.80202425272777     -0.23385607872807
  N   0.88544980819935      1.24951755364928      0.00830925190188
  O   -0.07785756218139      2.02353726342229      0.09949463119107
  O   2.06040676239834      1.59855708277285     -0.04220731614770
