11
Coordinates from ORCA-job run
  C   -0.67856307297811     -0.66159294692538     -0.03910755999653
  C   0.59320138900061     -0.16410059923990      0.08267550487136
  H   -0.77385581559027     -1.74215082763998      0.02257641404973
  N   -1.81620053556770      0.00989374772372     -0.22974204913841
  H   -1.79520197197831      1.01646842948941     -0.28093728556705
  H   -2.68832065560744     -0.48388530672897     -0.28540043674571
  C   1.69880040977856     -1.03633017256140      0.27720290835188
  N   2.57785412811028     -1.80101072319888      0.43597008722694
  N   0.88823532754171      1.24700756243288      0.02191675533314
  O   -0.06572753416665      2.02148129404284     -0.13792215101306
  O   2.05977833145732      1.59421954260565      0.13176781262771
