11
Coordinates from ORCA-job run
  C   -0.68822564148395     -0.62189042626323     -0.20892536365816
  C   0.57621588029708     -0.19956710135010      0.10851677932011
  H   -0.80841928033858     -1.69149179978218     -0.35821962825297
  N   -1.79760814904150      0.10995344194269     -0.33972785461471
  H   -1.73507824214318      1.11369468089140     -0.26999073535156
  H   -2.64463490073430     -0.32511201793492     -0.65868469751803
  C   1.64634743864520     -1.12703847548439      0.23229343180689
  N   2.50479872989897     -1.92704392203045      0.31427691231525
  N   0.90101976173859      1.18822205011061      0.33618815520546
  O   2.06096438075617      1.46653908661940      0.62252163814954
  O   -0.01537997759449      2.01373448328117      0.22075136259818
