11
Coordinates from ORCA-job run
  C   -0.66395633641721     -0.59122158677227      0.33044947467994
  C   0.59439901259498     -0.17805131714888     -0.02324995590876
  H   -0.73653849110481     -1.59404996218964      0.74251326076208
  N   -1.81611623008769      0.07436389246640      0.21939570957107
  H   -1.80653306650285      1.02594930184418     -0.11290331842109
  H   -2.66430052060477     -0.32935126209876      0.57306708498222
  C   1.71494867614497     -1.03627806186735      0.14665167769860
  N   2.60661850105897     -1.78537822530208      0.30932703034664
  N   0.85967396087283      1.12605879978983     -0.58158618239622
  O   2.01876182628500      1.39920935860232     -0.87595626622933
  O   -0.10495733223940      1.88974906267625     -0.72770851508514
