11
Coordinates from ORCA-job run
  C   -0.68049035502873     -0.64828260187682      0.12726071277609
  C   0.59169706041026     -0.17636842227002     -0.06837620384494
  H   -0.78149722417854     -1.72806502668881      0.19691207529429
  N   -1.81376082792834      0.04746674158562      0.24218499038942
  H   -2.68544670905592     -0.42946463628811      0.38349880104312
  H   -1.78598587276171      1.05355252079487      0.18582849278926
  C   1.69110110874709     -1.07150129210177     -0.17141700568633
  N   2.56400150326627     -1.85543310769262     -0.24983366488128
  N   0.89257655788092      1.23036586220271     -0.18486527420763
  O   -0.05484131140649      2.02435516732658     -0.09962395476746
  O   2.06264607005520      1.55437479500836     -0.36056896890456
