15

C	-0.271661	-0.029954	-1.496943
C	0.0	0.0	0.0
Cl	-2.04431	-0.129274	-1.870891
H	1.099128	0.0	0.0
H	0.022458	0.946125	-1.902023
N	0.402573	-1.15655	-2.074942
H	1.359137	-1.162627	-1.719536
H	0.436572	-1.065493	-3.083056
C	-0.487461	-1.208209	0.656592
N	-0.887863	-2.140772	1.247663
C	-0.507465	1.257588	0.694444
H	-0.068612	2.136989	0.216829
H	-1.596382	1.327872	0.647726
H	-0.194859	1.254124	1.739751
Br	3.468899	0.0	0.0
