15

C	-0.44524	0.053172	-1.469644
C	0.0	0.0	0.0
Cl	0.029626	-1.477453	-2.283563
H	1.096758	0.0	0.0
H	-1.538002	0.095806	-1.534086
N	0.110321	1.159115	-2.205992
H	-0.343836	2.017601	-1.916729
H	1.106116	1.224322	-2.004173
C	-0.519337	-1.185468	0.673046
N	-0.996401	-2.115545	1.20952
C	-0.453233	1.254475	0.755197
H	-0.169651	1.172277	1.80558
H	0.050954	2.133096	0.351257
H	-1.538219	1.394783	0.696729
Br	3.503543	0.0	0.0
