19

C	0.0	0.0	0.0
C	-0.186053	-0.19134	-1.559475
F	1.402358	0.0	0.0
H	0.619505	0.416976	-1.978328
N	-0.476101	1.220229	0.54541
H	-0.420847	1.957937	-0.146178
H	-1.470612	1.091806	0.742767
C	-0.487344	-1.159629	0.833283
H	0.031722	-2.080095	0.566841
H	-1.565963	-1.272826	0.700784
H	-0.278099	-0.926192	1.878667
N	-1.391352	0.447387	-2.198034
O	-2.157512	-0.253684	-2.846441
O	-1.450661	1.674913	-2.116193
C	-0.049395	-1.626613	-2.021591
H	-0.896539	-2.222627	-1.6843
H	-0.013127	-1.675854	-3.111306
H	0.878551	-2.040304	-1.621145
Br	-3.862773	0.0	0.0
