19

C	0.0	0.0	0.0
C	-0.15067	-0.060281	-1.569089
F	1.416052	0.0	0.0
H	0.562215	0.693989	-1.913603
N	-0.479476	1.18041	0.618916
H	-0.427272	1.963076	-0.019465
H	-1.469519	1.047225	0.832905
C	-0.500167	-1.218664	0.729052
H	-1.581853	-1.300988	0.585258
H	0.004659	-2.120869	0.382427
H	-0.289442	-1.086647	1.793216
N	-1.439011	0.452977	-2.146534
O	-2.174215	-0.32755	-2.742072
O	-1.614783	1.669073	-2.055961
C	0.181264	-1.4127	-2.167132
H	-0.591031	-2.142068	-1.924898
H	1.144938	-1.745271	-1.77798
H	0.245003	-1.340929	-3.254838
Br	-3.956515	0.0	0.0
