15

C	-0.310404	0.084728	-1.482546
C	0.0	0.0	0.0
Cl	-0.484611	-1.698591	-2.06713
H	1.088138	0.0	0.0
H	-0.424874	-0.864821	0.494354
N	-1.708677	0.613544	-1.793283
O	-2.572069	0.442244	-0.944551
O	-1.864155	1.13227	-2.890981
N	0.631986	0.817194	-2.156742
H	1.580953	0.653242	-1.822615
H	0.5296	0.832305	-3.159199
N	-0.443111	1.19837	0.759149
O	-0.641446	1.024983	1.959363
O	-0.543398	2.27072	0.16923
Cl	3.267417	0.0	0.0
