15

C	-0.661766	0.004871	-1.358718
C	0.0	0.0	0.0
Cl	-0.114454	1.54185	-2.184877
H	1.088018	0.0	0.0
H	-0.337908	0.880094	0.547987
N	-0.157241	-1.094957	-2.29748
O	-0.964876	-1.483269	-3.140023
O	1.001668	-1.44335	-2.179887
N	-2.056835	-0.132468	-1.259965
H	-2.482359	-0.21559	-2.173114
H	-2.457947	0.631203	-0.732992
N	-0.486182	-1.171019	0.777087
O	-0.910539	-0.956227	1.913004
O	-0.421153	-2.272769	0.240319
Cl	3.31561	0.0	0.0
