15

C	-0.466508	-0.183444	-1.436187
C	0.0	0.0	0.0
Cl	-2.17982	-0.662446	-1.462649
H	1.091031	0.0	0.0
H	-0.334039	-0.866288	0.569549
N	-0.293827	1.112592	-2.251679
O	-1.27805	1.741525	-2.606683
O	0.875239	1.381735	-2.485517
N	0.32012	-1.168066	-2.126436
H	0.140544	-2.074411	-1.709989
H	1.304037	-0.937018	-1.971093
N	-0.536124	1.181785	0.705792
O	-0.485809	2.26501	0.127378
O	-0.970849	1.00669	1.8444
Cl	3.258645	0.0	0.0
