15

C	-0.332922	-0.152233	-1.468774
C	0.0	0.0	0.0
Cl	-2.085466	-0.495345	-1.763322
H	1.090131	0.0	0.0
H	-0.43518	0.898301	0.41979
N	-0.185506	1.287467	-2.117274
O	-0.514552	2.265532	-1.460012
O	0.219408	1.303022	-3.272267
N	0.47224	-1.087922	-2.094106
H	1.419076	-1.055914	-1.718307
H	0.459163	-0.977922	-3.098984
N	-0.494283	-1.146074	0.797655
O	-0.047777	-2.258992	0.548793
O	-1.322201	-0.894389	1.67669
Cl	3.268974	0.0	0.0
