15

C	-0.718336	0.012346	-1.341536
C	0.0	0.0	0.0
Cl	-0.275055	1.563479	-2.114745
H	1.089446	0.0	0.0
H	-0.326697	0.87673	0.561146
N	-0.193748	-1.099556	-2.269817
O	-1.010655	-1.922752	-2.672304
O	0.994991	-1.06479	-2.52928
N	-2.136365	-0.106912	-1.289814
H	-2.498335	0.389861	-0.487199
H	-2.398842	-1.083168	-1.264536
N	-0.444544	-1.169841	0.796951
O	-0.705681	-0.98878	1.984622
O	-0.509608	-2.253429	0.2159
Cl	3.276163	0.0	0.0
