15

C	-0.525683	0.001123	-1.415962
C	0.0	0.0	0.0
Cl	-2.407784	-0.16361	-1.329006
H	1.091054	0.0	0.0
H	-0.395362	0.84042	0.558186
N	-0.408737	1.40932	-2.020878
O	-0.321824	2.360521	-1.256851
O	-0.44751	1.461455	-3.243451
N	0.092546	-0.883994	-2.259159
H	-0.3038	-0.942126	-3.183208
H	0.311584	-1.764739	-1.81886
N	-0.422893	-1.2269	0.720123
O	-0.873417	-1.087772	1.853608
O	-0.254726	-2.312176	0.162654
Cl	3.256085	0.0	0.0
