17

C	0.0	0.0	0.0
C	-0.316901	-0.006443	-1.509968
Cl	1.919631	0.0	0.0
H	0.314181	0.768518	-1.952702
N	-0.410945	1.242632	0.581309
H	-1.423598	1.19917	0.694066
H	0.014251	1.353927	1.494482
N	-0.508576	-1.135657	0.637801
H	-0.413483	-1.112509	1.642367
H	-0.191232	-2.013497	0.250553
C	-1.789726	0.279862	-1.805942
H	-2.026493	1.311969	-1.55036
H	-2.467192	-0.354921	-1.236358
H	-1.986032	0.140614	-2.871106
C	0.089615	-1.289696	-2.088272
N	0.387566	-2.328903	-2.547567
Br	-4.810323	0.0	0.0
