14

C	0.0	0.0	0.0
C	-0.533227	-0.078409	-1.41763
F	1.367716	0.0	0.0
H	-1.62448	0.098258	-1.378382
H	-0.370062	0.93765	0.418212
C	-0.439627	-1.124596	0.839224
N	-0.595562	-2.032954	1.565506
N	-0.284973	-1.373242	-2.105898
O	-0.959273	-1.569782	-3.111801
O	0.568	-2.12721	-1.642782
N	0.137922	0.999464	-2.216905
O	0.775864	0.690694	-3.216507
O	-0.016215	2.133675	-1.77622
Cl	-3.268913	0.0	0.0
