14

C	0.0	0.0	0.0
C	-0.300564	0.417728	-1.453156
F	1.374895	0.0	0.0
H	0.611572	0.213223	-2.014678
H	-0.397085	0.733174	0.695284
C	-0.413356	-1.359407	0.367119
N	-0.451278	-2.467475	0.756004
N	-0.459922	1.906321	-1.588037
O	-0.200771	2.343494	-2.708815
O	-0.774943	2.572081	-0.611293
N	-1.337123	-0.299929	-2.286366
O	-2.095057	0.356906	-2.975086
O	-1.170724	-1.51134	-2.307115
Cl	-2.9433	0.0	0.0
