14

C	0.0	0.0	0.0
C	-0.527976	0.009563	-1.420727
F	1.376335	0.0	0.0
H	-1.620762	0.173655	-1.375052
H	-0.366369	0.911781	0.474338
C	-0.435588	-1.171449	0.773243
N	-0.583013	-2.10522	1.467988
N	-0.267667	-1.235027	-2.193243
O	0.558588	-2.034429	-1.758182
O	-0.912512	-1.348127	-3.231293
N	0.13598	1.1451	-2.143325
O	0.814215	0.906285	-3.136223
O	-0.064617	2.249823	-1.649113
Cl	-3.270054	0.0	0.0
