16
Coordinates from ORCA-job run
  C   0.90380055934450      0.34545711399211     -0.20641001986752
  C   -0.58495095632887      0.03786259114872     -0.35388523583996
  F   1.09088676165824      1.22383859382905      0.85536755943993
  H   -0.72751948667468     -0.49408126295187     -1.29676845356352
  H   1.20208445478871      0.88327095649989     -1.11401303191438
  C   1.77816722998746     -0.86735500603650      0.01199340500608
  H   1.55037766213911     -1.32538208873936      0.97577217729891
  H   2.82631150019629     -0.56588559219877      0.01506060853422
  H   1.62286226751007     -1.61037396848094     -0.77239852252042
  C   -1.45952732103963      1.27131758853572     -0.26024018907382
  H   -2.51086673008789      1.00916391346999     -0.39133491886948
  H   -1.17813323469341      1.97626816662133     -1.04578399578467
  H   -1.32969998167311      1.75104304576971      0.70696084759358
  N   -0.97879696169675     -0.95851568016624      0.69475761844608
  O   -1.17267908986381     -0.53798353323890      1.83252481479556
  O   -1.03231667356623     -2.13864483805393      0.34839733631941
