16
Coordinates from ORCA-job run
  C   0.76296227967874     -0.64788081850009      0.09341865217426
  C   -0.58031119674198     -0.08817252380106     -0.33075153597007
  F   0.94843577041435     -1.83830834866088     -0.61059592869845
  H   -0.60538966840701      0.01096806394368     -1.41746264301350
  H   0.72557456456512     -0.91125991340211      1.15374171801992
  C   1.91819555313841      0.27667132948051     -0.21234884253687
  H   1.90164926231522      0.58070120141321     -1.26143953468941
  H   1.89417379535489      1.16622971149998      0.41884361087696
  H   2.85426743294956     -0.25058210013375     -0.02305481335285
  C   -0.95789315865277      1.20422033738679      0.37142205414065
  H   -0.30453126783139      2.01608502530892      0.05028807193695
  H   -0.88107147368507      1.08812971830816      1.45381492519587
  H   -1.98452393568634      1.48064804728785      0.12363272557813
  N   -1.63092184804186     -1.11507231526463     -0.01870643079498
  O   -1.70851247552638     -1.48725047703427      1.14990732321411
  O   -2.35210363384349     -1.48512693783232     -0.94070935208071
