16
Coordinates from ORCA-job run
  C   0.75922952439575     -0.63679681237954      0.16895132839378
  C   -0.56737051637054     -0.11403425297606     -0.34520337327339
  F   0.97263297027982     -1.87423346676699     -0.43965360779935
  H   -0.55108846816317     -0.09406866403152     -1.43641551434935
  H   0.68151231315731     -0.82330567459406      1.24331231737737
  C   1.92450127283005      0.26733487055079     -0.15875288144605
  H   2.85301858305972     -0.23949337825803      0.10776869818472
  H   1.87328506671456      1.20224124223388      0.40124403936949
  H   1.95000266072929      0.49044956034451     -1.22780793759066
  C   -0.97203398565108      1.22474236978389      0.24634345921381
  H   -1.99050359937452      1.47667064685054     -0.05538689561493
  H   -0.93163234997280      1.18966499214060      1.33635456895994
  H   -0.31054089483333      2.01408901713821     -0.11208452168572
  N   -1.62842857793524     -1.11905428607042      0.00066634570304
  O   -1.75007601009367     -1.40558899619530      1.18947163065856
  O   -2.31350798877216     -1.55761716777049     -0.91880765610125
