16
Coordinates from ORCA-job run
  C   0.73791596592510     -0.68078717052052     -0.05816319377347
  C   -0.60291996161233     -0.01668289878317     -0.30032948464518
  F   0.82701955831393     -1.75337670512747     -0.94651280879073
  H   -0.68981050930851      0.24981164831176     -1.35527174757242
  H   0.75471436011480     -1.10425617640315      0.94953045851518
  C   1.91142877581115      0.24046049201843     -0.29650699581437
  H   2.83335572669096     -0.34133690738869     -0.25635663407339
  H   1.96638450191712      1.01938641767370      0.46547642632879
  H   1.84262102551300      0.70692389662995     -1.28188660757570
  C   -0.87872128466829      1.16443561423440      0.61347894315403
  H   -0.74117233175984      0.87990542794635      1.65803198589367
  H   -1.90533651747113      1.51086681573478      0.47996079473700
  H   -0.21092470814532      1.99315550045475      0.37609495721277
  N   -1.67676354182011     -1.04226915746014     -0.07739928034526
  O   -1.69786724574846     -1.58852247035143      1.02317488180916
  O   -2.46992381375206     -1.23971432696954     -0.99332169506008
