15

C	0.0	0.0	0.0
C	-0.435667	-0.046602	-1.48797
Cl	1.789015	0.0	0.0
H	0.338457	0.478385	-2.061462
H	-0.311711	-0.911528	0.509914
C	-0.528834	1.214086	0.731811
H	-1.618881	1.128074	0.7805
H	-0.262898	2.131937	0.205045
H	-0.112798	1.242512	1.742966
N	-1.701286	0.619209	-1.701474
H	-2.460539	0.292235	-1.026172
H	-2.028156	0.424702	-2.642837
C	-0.366823	-1.45723	-1.954256
N	-0.323011	-2.550692	-2.384528
H	-3.547762	0.0	0.0
