15

C	0.0	0.0	0.0
C	-0.619687	0.067574	-1.383067
Cl	1.790215	0.0	0.0
H	-1.720482	0.105903	-1.10647
H	-0.311156	-0.955395	0.427377
C	-0.485602	1.137078	0.875796
H	-0.099675	1.03536	1.89261
H	-1.582105	1.07438	0.878035
H	-0.157422	2.096716	0.470675
N	-0.411501	-1.092581	-2.238442
H	-1.034797	-1.816715	-1.897556
H	0.542265	-1.421916	-2.142651
C	-0.23877	1.290167	-2.087484
N	0.069792	2.276695	-2.649562
H	-3.125224	0.0	0.0
