15

C	0.0	0.0	0.0
C	-0.542915	-0.039561	-1.432666
Cl	1.786225	0.0	0.0
H	0.232845	-0.474816	-2.073832
H	-0.301975	-0.918045	0.505602
C	-0.418484	1.206695	0.824522
H	-0.046466	2.118696	0.356352
H	-1.508939	1.204171	0.861596
H	-0.008384	1.1247	1.835134
N	-0.818868	1.306236	-1.929201
H	-1.720525	1.554341	-1.517536
H	-0.971926	1.22687	-2.930463
C	-1.729195	-0.94992	-1.548549
N	-2.214744	-1.83074	-2.188508
H	-2.750185	0.0	0.0
