15

C	0.0	0.0	0.0
C	-0.440398	-0.046107	-1.486726
Cl	1.789079	0.0	0.0
H	0.33866	0.464555	-2.065917
H	-0.31032	-0.911747	0.510392
C	-0.527102	1.212709	0.735648
H	-1.617049	1.126705	0.785834
H	-0.262026	2.131955	0.210956
H	-0.109328	1.237954	1.746191
N	-1.696695	0.638126	-1.698529
H	-2.021232	0.455194	-2.643256
H	-2.459896	0.308535	-1.029188
C	-0.394961	-1.4591	-1.948372
N	-0.366058	-2.551962	-2.381274
H	-3.54135	0.0	0.0
