15

C	0.0	0.0	0.0
C	-0.381577	-0.015468	-1.503122
Cl	1.789236	0.0	0.0
H	0.352463	0.629281	-2.007099
H	-0.32189	-0.92374	0.480691
C	-0.550471	1.204192	0.727633
H	-0.158835	1.23436	1.748355
H	-0.277665	2.126626	0.210564
H	-1.641739	1.107362	0.751877
N	-1.712016	0.494659	-1.751424
H	-2.436142	0.200683	-1.023151
H	-2.04248	0.156274	-2.648917
C	-0.123278	-1.378176	-2.035279
N	0.05348	-2.440981	-2.506028
H	-3.523773	0.0	0.0
