15

C	0.0	0.0	0.0
C	-0.601738	-0.007375	-1.386024
Cl	1.792865	0.0	0.0
H	-1.705206	-0.031922	-1.132066
H	-0.303216	-0.945791	0.451864
C	-0.507153	1.167638	0.816561
H	-0.181952	2.11656	0.38183
H	-0.139494	1.106931	1.843724
H	-1.604542	1.090134	0.801187
N	-0.241031	-1.214035	-2.122819
H	-0.854098	-1.30407	-2.925406
H	0.713004	-1.135453	-2.461688
C	-0.29643	1.228132	-2.121258
N	-0.062675	2.179654	-2.772805
H	-3.172184	0.0	0.0
