13

C	0.0	0.0	0.0
C	-0.387566	-0.076302	-1.481412
Br	1.955503	0.0	0.0
H	-0.056373	0.845965	-1.972366
H	-0.335896	0.929317	0.449587
H	0.201843	-0.880598	-1.936715
C	-0.434176	-1.202336	0.818279
H	-1.527602	-1.139572	0.819304
H	-0.02265	-1.150249	1.830134
H	-0.080114	-2.125613	0.348048
C	-1.794373	-0.312735	-1.886409
N	-2.557273	-0.558482	-2.756488
F	-2.648026	0.0	0.0
