13

C	0.0	0.0	0.0
C	-0.386141	-0.01086	-1.48224
Br	1.955372	0.0	0.0
H	0.080674	-0.892586	-1.937618
H	-0.330435	0.912415	0.487653
H	0.084793	0.852333	-1.965962
C	-0.435015	-1.233772	0.770107
H	-1.527963	-1.179019	0.76836
H	-0.031152	-1.218911	1.786236
H	-0.072111	-2.136011	0.267122
C	-1.808702	-0.014345	-1.903629
N	-2.571588	-0.054613	-2.807039
F	-2.649987	0.0	0.0
