13

C	0.0	0.0	0.0
C	-0.625064	0.145653	-1.374838
Br	1.953004	0.0	0.0
H	-0.405109	-0.72905	-1.995022
H	-0.285839	0.867789	0.593828
H	-1.731515	0.149543	-1.078393
C	-0.509551	-1.259303	0.674736
H	-0.139778	-1.331933	1.700793
H	-0.187605	-2.148302	0.122619
H	-1.603084	-1.142488	0.645806
C	-0.244677	1.354981	-2.081777
N	0.041552	2.336182	-2.663075
F	-2.921708	0.0	0.0
