13

C	0.0	0.0	0.0
C	-0.621367	-0.083026	-1.381402
Br	1.954354	0.0	0.0
H	-1.729416	-0.05165	-1.084937
H	-0.295835	0.959192	0.423361
H	-0.358777	0.785796	-1.992133
C	-0.490461	-1.119937	0.898829
H	-0.108736	-0.999984	1.916089
H	-0.167507	-2.092206	0.515867
H	-1.584501	-1.020226	0.86493
C	-0.286811	-1.299254	-2.102055
N	-0.029675	-2.279655	-2.69828
F	-2.909783	0.0	0.0
