16

C	0.0	0.0	0.0
C	-0.465537	-0.023264	-1.438959
F	1.332618	0.0	0.0
H	-1.525719	-0.29246	-1.361406
H	-0.413019	1.012545	-1.778927
N	-0.452318	1.228735	0.774375
O	-0.245302	2.280889	0.172038
O	-0.845354	1.133302	1.922116
N	-0.345377	-1.275311	0.765421
O	-0.88718	-2.189412	0.162618
O	0.107829	-1.344065	1.906603
C	0.393734	-0.91888	-2.324649
H	-0.027398	-0.921904	-3.334163
H	0.39024	-1.949839	-1.968348
H	1.430202	-0.580025	-2.397061
F	-2.509927	0.0	0.0
