16

C	0.0	0.0	0.0
C	-0.491356	-0.021086	-1.425273
F	1.332542	0.0	0.0
H	-1.570448	-0.223176	-1.311205
H	-0.371883	1.004264	-1.781795
N	-0.45335	1.226363	0.778578
O	-0.22046	2.281396	0.188889
O	-0.884287	1.120063	1.911501
N	-0.341193	-1.266733	0.785709
O	-0.95258	-2.163385	0.224181
O	0.166603	-1.336414	1.904117
C	0.295533	-0.984883	-2.308041
H	0.19668	-2.01374	-1.957086
H	-0.11253	-0.945889	-3.322827
H	1.360092	-0.739105	-2.368009
F	-2.578922	0.0	0.0
