16

C	0.0	0.0	0.0
C	-0.486952	0.021877	-1.426895
F	1.332809	0.0	0.0
H	-0.322138	1.04763	-1.766159
H	-1.574556	-0.143422	-1.318386
N	-0.460636	1.200067	0.811733
O	-0.250502	2.272853	0.250519
O	-0.878939	1.056236	1.944893
N	-0.338693	-1.289963	0.750045
O	-0.957968	-2.164684	0.165911
O	0.181404	-1.397474	1.859705
C	0.259371	-0.96114	-2.325305
H	0.051548	-1.992387	-2.031156
H	1.343927	-0.808024	-2.323285
H	-0.090647	-0.835227	-3.354622
F	-2.585322	0.0	0.0
