16

C	0.0	0.0	0.0
C	-0.440584	0.07021	-1.451892
F	1.332805	0.0	0.0
H	-1.476393	0.406924	-1.40694
H	-0.451998	-0.961439	-1.806048
N	-0.352935	1.253427	0.789234
O	0.029802	1.277697	1.956983
O	-0.820047	2.204418	0.179244
N	-0.446174	-1.261016	0.724252
O	-0.245766	-2.285773	0.073457
O	-0.823124	-1.221158	1.880941
C	0.490933	0.919511	-2.312616
H	1.498871	0.504363	-2.391102
H	0.074998	0.981256	-3.322639
H	0.565533	1.938565	-1.928454
F	-2.44748	0.0	0.0
