16

C	0.0	0.0	0.0
C	-0.50986	-0.089305	-1.411835
F	1.338724	0.0	0.0
H	-1.565934	-0.369081	-1.271606
H	0.087995	-0.888245	-1.865015
N	-0.394575	1.241372	0.802305
O	-1.0426	1.167647	1.827469
O	0.091231	2.272237	0.332122
N	-0.341236	-1.252236	0.804453
O	0.009269	-1.239762	1.980425
O	-0.765922	-2.225369	0.2002
C	-0.393143	1.191339	-2.225019
H	-0.644038	0.964757	-3.266282
H	-1.108638	1.925278	-1.85621
H	0.607295	1.63096	-2.197746
F	-2.589167	0.0	0.0
