15

C	-0.480253	0.02244	-1.432664
C	0.0	0.0	0.0
F	0.059823	-0.99987	-2.149796
H	1.095829	0.0	0.0
H	-1.567188	-0.008011	-1.557219
N	-0.071976	1.318856	-2.093494
O	-0.892195	2.233639	-2.00143
O	1.010986	1.372585	-2.65404
C	-0.530001	-1.203158	0.612807
N	-0.967726	-2.172926	1.116379
C	-0.387552	1.247655	0.797248
H	-1.455465	1.492472	0.757126
H	-0.094064	1.088874	1.836699
H	0.190398	2.09654	0.428016
F	2.516473	0.0	0.0
