15

C	-0.32642	-0.011612	-1.468069
C	0.0	0.0	0.0
F	0.141463	1.11185	-2.075694
H	1.096587	0.0	0.0
H	0.070107	-0.893167	-1.971396
N	-1.822392	-0.035183	-1.719101
O	-2.422694	1.036564	-1.731938
O	-2.334905	-1.148435	-1.835399
C	-0.481163	-1.207597	0.638033
N	-0.851819	-2.179286	1.188598
C	-0.453968	1.264173	0.723662
H	-0.017379	1.257473	1.724303
H	-1.540663	1.363533	0.80438
H	-0.053942	2.129814	0.194691
F	2.518365	0.0	0.0
