15

C	-0.374761	0.098715	-1.443744
C	0.0	0.0	0.0
F	-1.70976	0.352969	-1.669624
H	1.094348	0.0	0.0
H	0.219641	0.867906	-1.932154
N	-0.056136	-1.175099	-2.184117
O	-0.882217	-2.081527	-2.121481
O	1.013491	-1.205825	-2.780569
C	-0.578778	-1.143639	0.672461
N	-1.061375	-2.031042	1.274098
C	-0.352572	1.301731	0.724961
H	-1.426421	1.502628	0.759302
H	0.159689	2.127424	0.224478
H	0.039664	1.24881	1.741819
F	2.518845	0.0	0.0
