15

C	-0.355728	-0.009524	-1.459806
C	0.0	0.0	0.0
F	0.210928	1.043642	-2.105175
H	1.09658	0.0	0.0
H	-0.070968	-0.94017	-1.952048
N	-1.855125	0.12161	-1.668146
O	-2.326566	1.248142	-1.804774
O	-2.497419	-0.927371	-1.618938
C	-0.483678	-1.194878	0.659112
N	-0.84749	-2.152944	1.237393
C	-0.423536	1.275928	0.722873
H	0.06179	1.285458	1.700339
H	-0.052348	2.134732	0.161678
H	-1.505202	1.373849	0.856385
F	2.514242	0.0	0.0
