11

C	-0.394412	-0.204037	-1.448777
C	0.0	0.0	0.0
Br	-0.525909	1.696152	-2.354875
H	1.090369	0.0	0.0
H	-1.422511	-0.517217	-1.623714
H	-0.339097	-0.86755	0.576289
H	-0.403257	0.912973	0.431205
N	0.516863	-1.046434	-2.076997
H	1.480794	-0.82589	-1.835065
H	0.388868	-1.140959	-3.07311
Cl	3.552053	0.0	0.0
