11

C	-0.355208	0.02477	-1.467735
C	0.0	0.0	0.0
Br	-2.332981	0.150889	-1.704404
H	1.094711	0.0	0.0
H	-0.102371	-0.924429	-1.941247
H	-0.387886	-0.881314	0.513225
H	-0.362074	0.902223	0.499817
N	0.266371	1.082602	-2.22431
H	0.155715	1.950622	-1.710064
H	1.266391	0.880587	-2.225653
Cl	3.549257	0.0	0.0
