15

C	-0.333065	-0.079486	-1.486624
C	0.0	0.0	0.0
F	-0.073343	1.209961	-2.029089
H	1.092391	0.0	0.0
H	-0.333098	-0.92643	0.478453
C	0.642449	-1.021467	-2.16132
H	0.401838	-2.053738	-1.896799
H	1.639219	-0.771128	-1.780612
H	0.587408	-0.905283	-3.248297
N	-1.703232	-0.419837	-1.738435
H	-1.874956	-0.358131	-2.736675
H	-2.293796	0.268127	-1.282137
C	-0.630079	1.133235	0.644454
N	-1.162	2.051547	1.150868
F	2.639444	0.0	0.0
