15

C	-0.187831	0.024581	-1.524947
C	0.0	0.0	0.0
F	-0.022287	-1.349363	-1.922892
H	1.094468	0.0	0.0
H	-0.410108	-0.922408	0.41265
C	-1.557177	0.40449	-2.043568
H	-1.810022	1.41695	-1.728725
H	-2.303786	-0.294614	-1.658701
H	-1.570111	0.354467	-3.135318
N	0.85398	0.832662	-2.042653
H	1.720352	0.615866	-1.5198
H	0.97328	0.666237	-3.032903
C	-0.55713	1.161591	0.658761
N	-1.025729	2.092519	1.204385
F	2.650391	0.0	0.0
