15

C	-0.352298	-0.07997	-1.490468
C	0.0	0.0	0.0
F	-0.092019	1.184273	-2.026202
H	1.093269	0.0	0.0
H	-0.317748	-0.932336	0.483085
C	0.5949	-1.063659	-2.145278
H	0.524123	-0.967787	-3.230596
H	0.338336	-2.089594	-1.859279
H	1.598496	-0.835464	-1.768549
N	-1.739535	-0.343969	-1.835752
H	-1.98338	-1.267053	-1.49339
H	-2.315944	0.324463	-1.330454
C	-0.643602	1.118537	0.654458
N	-1.198809	2.022232	1.162407
F	2.633155	0.0	0.0
