15

C	-0.125518	-0.0661	-1.516013
C	0.0	0.0	0.0
F	-1.433554	-0.381123	-1.934335
H	1.094362	0.0	0.0
H	-0.36348	-0.935849	0.428829
C	0.237397	1.266611	-2.144903
H	-0.443495	2.064918	-1.834237
H	1.255918	1.495927	-1.821809
H	0.199804	1.174719	-3.235604
N	0.750784	-1.141058	-1.913161
H	1.624336	-0.977355	-1.390092
H	0.957468	-1.052881	-2.903106
C	-0.620656	1.144199	0.624799
N	-1.125977	2.071805	1.141093
F	2.64646	0.0	0.0
