15

C	-0.091899	-0.066273	-1.521428
C	0.0	0.0	0.0
F	-1.39341	-0.310748	-1.995283
H	1.094328	0.0	0.0
H	-0.404092	0.933713	0.395199
C	0.358973	1.272502	-2.085523
H	1.358599	1.449904	-1.683247
H	0.399871	1.221425	-3.178075
H	-0.316731	2.081594	-1.796197
N	0.752973	-1.163959	-1.920997
H	1.635327	-1.023706	-1.409289
H	0.943679	-1.094406	-2.914639
C	-0.580997	-1.1432	0.671795
N	-1.047986	-2.064184	1.232999
F	2.656239	0.0	0.0
