15

C	-0.329622	-0.087256	-1.48678
C	0.0	0.0	0.0
F	-0.05353	1.194979	-2.038825
H	1.092346	0.0	0.0
H	-0.335687	-0.922462	0.48396
C	0.639249	-1.044909	-2.148643
H	0.597647	-0.930761	-3.235092
H	1.634519	-0.800728	-1.758815
H	0.386298	-2.074664	-1.884005
N	-1.702583	-0.410479	-1.738158
H	-2.281223	0.290163	-1.290299
H	-1.873638	-0.354215	-2.735964
C	-0.629088	1.139524	0.63411
N	-1.161614	2.062997	1.130147
F	2.63827	0.0	0.0
