15

C	-0.409627	-0.018463	-1.496705
C	0.0	0.0	0.0
Cl	0.164889	1.508447	-2.235158
H	1.097283	0.0	0.0
C	0.262835	-1.194601	-2.195193
H	1.338954	-1.125826	-2.016059
H	-0.117614	-2.134369	-1.787858
H	0.054679	-1.158279	-3.265437
C	-1.866571	-0.063184	-1.642254
N	-3.034786	-0.129281	-1.757127
C	-0.46599	-1.222434	0.653319
N	-0.833267	-2.219136	1.155747
C	-0.510362	1.172843	0.703886
N	-0.92381	2.113876	1.272514
Br	3.329073	0.0	0.0
