15

C	-0.493056	0.018013	-1.472417
C	0.0	0.0	0.0
Cl	0.205042	-1.406919	-2.298849
H	1.096621	0.0	0.0
C	-2.012785	-0.041657	-1.58548
H	-2.305716	-0.038677	-2.636346
H	-2.454822	0.825286	-1.088534
H	-2.377276	-0.957038	-1.116446
C	-0.002526	1.227911	-2.136991
N	0.286539	2.216912	-2.703396
C	-0.485116	-1.197111	0.683974
N	-0.889199	-2.155403	1.230551
C	-0.479986	1.195474	0.692167
N	-0.876809	2.165311	1.224142
Br	3.300873	0.0	0.0
