15

C	-0.382297	0.029596	-1.49764
C	0.0	0.0	0.0
Cl	-2.173979	0.158725	-1.679662
H	1.098594	0.0	0.0
C	0.291553	1.211677	-2.181151
H	0.072855	1.198661	-3.249825
H	1.369886	1.1365	-2.010808
H	-0.082202	2.14236	-1.750532
C	0.021238	-1.231419	-2.122618
N	0.327392	-2.249839	-2.622905
C	-0.506254	-1.186569	0.681633
N	-0.914876	-2.142772	1.228083
C	-0.455716	1.215105	0.670885
N	-0.810895	2.200507	1.202547
Br	3.308658	0.0	0.0
