15

C	-0.493632	-0.003043	-1.471353
C	0.0	0.0	0.0
Cl	0.205884	-1.437877	-2.278257
H	1.096563	0.0	0.0
C	-2.013967	-0.065475	-1.581885
H	-2.456576	0.806589	-1.094279
H	-2.307682	-0.075354	-2.632389
H	-2.376678	-0.975828	-1.101803
C	-0.003816	1.198592	-2.151421
N	0.290643	2.178379	-2.729663
C	-0.483362	-1.18787	0.700989
N	-0.897967	-2.135767	1.257158
C	-0.480092	1.204307	0.675426
N	-0.879956	2.183318	1.187928
Br	3.299035	0.0	0.0
