15

C	-0.376445	0.034083	-1.499423
C	0.0	0.0	0.0
Cl	-2.165856	0.18703	-1.688566
H	1.098566	0.0	0.0
C	0.316863	1.206112	-2.180736
H	0.10236	1.196386	-3.250209
H	-0.044294	2.142308	-1.751218
H	1.393214	1.115207	-2.005857
C	0.011298	-1.232828	-2.122134
N	0.306587	-2.255205	-2.620758
C	-0.512768	-1.185357	0.67832
N	-0.93111	-2.139521	1.220961
C	-0.453363	1.215682	0.671736
N	-0.807916	2.19909	1.207449
Br	3.310962	0.0	0.0
