15

C	-0.398449	0.020257	-1.492194
C	0.0	0.0	0.0
Cl	-2.197372	0.092791	-1.64986
H	1.098543	0.0	0.0
C	0.226173	1.223728	-2.183327
H	-0.009244	1.205496	-3.248385
H	-0.170554	2.141167	-1.745163
H	1.308819	1.182566	-2.030952
C	0.035642	-1.225635	-2.125975
N	0.375056	-2.230329	-2.632745
C	-0.490601	-1.189065	0.689728
N	-0.877539	-2.149551	1.244264
C	-0.459107	1.213542	0.670997
N	-0.812932	2.200793	1.200162
Br	3.303999	0.0	0.0
