15

C	-0.406032	-0.021972	-1.497631
C	0.0	0.0	0.0
Cl	0.155628	1.510244	-2.235025
H	1.09724	0.0	0.0
C	0.278521	-1.192288	-2.195123
H	1.354051	-1.112986	-2.014713
H	0.071124	-1.15823	-3.265647
H	-0.093139	-2.135515	-1.78728
C	-1.862799	-0.080283	-1.646469
N	-3.029918	-0.157099	-1.766386
C	-0.463921	-1.222969	0.65404
N	-0.827694	-2.219079	1.160161
C	-0.514445	1.172198	0.701952
N	-0.935107	2.111493	1.268232
Br	3.333574	0.0	0.0
