15

C	-0.425367	-0.013915	-1.489979
C	0.0	0.0	0.0
Cl	0.182927	1.493154	-2.242618
H	1.097314	0.0	0.0
C	0.199403	-1.211927	-2.194774
H	1.27931	-1.177369	-2.031387
H	-0.022672	-1.169912	-3.261969
H	-0.206069	-2.137442	-1.779349
C	-1.885452	-0.014292	-1.616423
N	-3.055474	-0.04422	-1.720838
C	-0.469286	-1.218292	0.659403
N	-0.834916	-2.212694	1.167577
C	-0.497203	1.177363	0.708601
N	-0.89215	2.124888	1.279922
Br	3.32012	0.0	0.0
