18

C	-0.541075	0.001188	-1.427192
C	0.0	0.0	0.0
Br	0.243347	-1.508006	-2.450869
H	1.096095	0.0	0.0
N	-1.990058	-0.13007	-1.592138
H	-2.422912	0.644232	-1.094615
H	-2.273655	-0.988822	-1.131441
C	-0.14133	1.217312	-2.148112
N	0.098158	2.222336	-2.708542
C	-0.450313	-1.219299	0.793787
H	-0.245059	-2.148929	0.258436
H	0.133283	-1.249054	1.718376
H	-1.514096	-1.188499	1.064709
C	-0.403136	1.282804	0.726591
H	-0.0478	2.171645	0.200131
H	0.086163	1.278803	1.704745
H	-1.485961	1.371255	0.889884
H	2.86435	0.0	0.0
