18

C	-0.508668	0.146459	-1.423068
C	0.0	0.0	0.0
Br	0.237847	-1.263864	-2.608851
H	1.10867	0.0	0.0
N	-1.954023	0.010042	-1.508205
H	-2.266591	0.223924	-2.450456
H	-2.367737	0.685083	-0.871754
C	-0.04987	1.409021	-2.035108
N	0.179126	2.448335	-2.536837
C	-0.468546	-1.289887	0.657827
H	-1.542921	-1.29387	0.869207
H	0.08033	-1.405878	1.596909
H	-0.236592	-2.155816	0.036364
C	-0.38934	1.213749	0.845728
H	-0.064252	2.150867	0.38539
H	-1.46516	1.273694	1.063914
H	0.140771	1.131342	1.799561
H	2.850854	0.0	0.0
