13

C	0.0	0.0	0.0
C	-0.512755	0.010752	-1.439784
Cl	1.78889	0.0	0.0
H	-0.222793	-0.906433	-1.947926
H	-1.631482	0.087877	-1.241916
C	-0.456193	1.126552	0.824276
N	-0.613092	2.026243	1.563982
C	-0.445052	-1.265576	0.607181
N	-0.603064	-2.328905	1.082291
N	-0.002386	1.130754	-2.239146
O	0.204128	2.207855	-1.681498
O	0.127846	0.931506	-3.44928
F	-2.527897	0.0	0.0
