13

C	0.0	0.0	0.0
C	-0.515324	0.083762	-1.436237
Cl	1.788744	0.0	0.0
H	-0.223915	-0.804983	-1.992322
H	-1.634424	0.147602	-1.230071
C	-0.451415	1.086455	0.879535
N	-0.609001	1.945446	1.665612
C	-0.440845	-1.288525	0.549722
N	-0.588516	-2.374239	0.974817
N	-0.010893	1.246465	-2.177743
O	0.208354	2.288911	-1.562724
O	0.101314	1.115343	-3.398921
F	-2.528883	0.0	0.0
