15

C	0.0	0.0	0.0
C	-0.204435	0.152444	-1.552845
Br	1.940441	0.0	0.0
H	0.48275	-0.576945	-1.987446
H	0.233635	1.135342	-1.764514
C	-0.509318	1.080096	0.823638
N	-0.619587	2.054438	1.476604
N	-0.416307	-1.346659	0.533944
O	-0.528286	-1.450708	1.746783
O	-0.480876	-2.262052	-0.276187
C	-1.524838	0.030988	-2.298694
H	-1.979785	-0.94072	-2.135029
H	-2.239599	0.782557	-1.985581
H	-1.2791	0.147239	-3.366105
F	-2.268664	0.0	0.0
