15

C	0.0	0.0	0.0
C	-0.406455	-0.02267	-1.489879
Br	1.932109	0.0	0.0
H	0.130544	0.825496	-1.928708
H	-1.479438	0.180995	-1.430893
C	-0.446273	1.244156	0.622302
N	-0.600381	2.323347	1.063718
N	-0.448192	-1.16401	0.861603
O	-0.513343	-2.263107	0.331784
O	-0.581964	-0.936464	2.055151
C	-0.125001	-1.283854	-2.29497
H	0.892702	-1.661407	-2.170776
H	-0.822174	-2.071167	-2.020288
H	-0.27072	-1.047914	-3.354064
F	-2.435863	0.0	0.0
