15

C	0.0	0.0	0.0
C	-0.397902	0.084241	-1.490311
Br	1.932154	0.0	0.0
H	0.078762	1.007017	-1.840854
H	-1.482103	0.214963	-1.424255
C	-0.46283	1.182241	0.719709
N	-0.584757	2.224131	1.252555
N	-0.446571	-1.237477	0.752475
O	-0.518768	-2.282593	0.122849
O	-0.572368	-1.12064	1.962633
C	-0.01609	-1.069242	-2.410004
H	-0.658546	-1.929193	-2.235004
H	1.023999	-1.386634	-2.300815
H	-0.156846	-0.738365	-3.444605
F	-2.43499	0.0	0.0
