15

C	0.0	0.0	0.0
C	-0.381271	-0.132118	-1.483376
Br	1.947113	0.0	0.0
H	0.317316	-0.828509	-1.952777
H	-1.391517	-0.531693	-1.45816
C	-0.482894	1.198171	0.667521
N	-0.595039	2.253715	1.17669
N	-0.405355	-1.229723	0.791842
O	-0.457997	-2.283223	0.173092
O	-0.530859	-1.095949	2.000178
C	-0.383552	1.220553	-2.179062
H	-1.190977	1.823755	-1.761281
H	0.563099	1.758723	-2.068275
H	-0.572864	1.085273	-3.248602
F	-2.37488	0.0	0.0
