15

C	0.0	0.0	0.0
C	-0.196608	-0.052789	-1.559082
Br	1.941878	0.0	0.0
H	0.313625	0.854064	-1.90421
H	0.434728	-0.884824	-1.879052
C	-0.511099	1.187297	0.657208
N	-0.621931	2.25274	1.146502
N	-0.423922	-1.258349	0.712292
O	-0.488693	-2.276977	0.036723
O	-0.538089	-1.19201	1.928257
C	-1.526243	-0.166648	-2.28632
H	-1.284701	-0.175054	-3.361296
H	-2.045733	-1.080361	-2.014758
H	-2.187348	0.659952	-2.049135
F	-2.280081	0.0	0.0
