15

C	0.0	0.0	0.0
C	-0.369198	-0.199433	-1.477722
Br	1.958688	0.0	0.0
H	-1.396802	-0.553094	-1.441495
H	0.302521	-0.953575	-1.893745
C	-0.476431	1.232855	0.604714
N	-0.591896	2.313061	1.057965
N	-0.405288	-1.188318	0.848647
O	-0.463559	-2.269632	0.280224
O	-0.524678	-0.997562	2.050239
C	-0.29404	1.107572	-2.252902
H	0.678463	1.600546	-2.160885
H	-1.070872	1.781893	-1.889062
H	-0.475781	0.91673	-3.314926
F	-2.370713	0.0	0.0
