18

C	-0.42564	-0.100655	-1.469918
C	0.0	0.0	0.0
Cl	-2.292233	0.029197	-1.591752
H	1.089042	0.0	0.0
N	0.230076	0.88619	-2.222061
H	0.02167	1.822866	-1.919889
H	0.086107	0.766988	-3.212038
C	-0.049283	-1.474651	-1.999378
H	-0.633656	-2.261542	-1.526512
H	-0.2493	-1.503749	-3.072836
H	1.015897	-1.634444	-1.813775
N	-0.495197	-1.171772	0.782459
O	-1.652375	-1.141942	1.191808
O	0.290887	-2.104841	0.910043
N	-0.430064	1.236773	0.720629
O	-0.440335	1.179157	1.943539
O	-0.653019	2.24504	0.051701
Br	3.363523	0.0	0.0
