18

C	-0.531056	0.029771	-1.449062
C	0.0	0.0	0.0
Cl	0.047917	-1.515998	-2.173939
H	1.086803	0.0	0.0
N	-1.954543	0.106176	-1.628283
H	-2.410681	-0.573414	-1.032762
H	-2.280621	1.034095	-1.386211
C	0.160562	1.161655	-2.191402
H	-0.082564	1.068013	-3.250361
H	-0.192994	2.13026	-1.828748
H	1.240252	1.104243	-2.041223
N	-0.473016	-1.152129	0.832254
O	0.177715	-1.357992	1.852259
O	-1.469874	-1.783343	0.47991
N	-0.488006	1.214925	0.723341
O	0.201939	2.226309	0.638465
O	-1.573924	1.13048	1.302846
Br	3.417103	0.0	0.0
