18

C	-0.450074	-0.01171	-1.463858
C	0.0	0.0	0.0
Cl	-2.250133	-0.521068	-1.544714
H	1.089135	0.0	0.0
N	-0.225985	1.264945	-2.021348
H	-0.846307	1.96401	-1.639591
H	-0.282682	1.234958	-3.029212
C	0.334925	-1.052532	-2.244885
H	1.400855	-0.847308	-2.113187
H	0.118337	-2.058506	-1.898572
H	0.056577	-0.976248	-3.2997
N	-0.465052	-1.212257	0.748906
O	0.073688	-2.267993	0.436361
O	-1.345896	-1.074688	1.592556
N	-0.45136	1.174248	0.807296
O	0.125836	1.315035	1.878478
O	-1.353954	1.896706	0.383218
Br	3.381972	0.0	0.0
