15

C	0.0	0.0	0.0
C	-0.379465	-0.294135	-1.495519
Cl	1.831763	0.0	0.0
H	0.554612	-0.307788	-2.062966
H	-0.249009	-0.86653	0.61665
N	-0.559059	1.233198	0.440271
H	-0.35373	1.335692	1.430954
H	-1.58789	1.012647	0.380836
C	-1.287674	0.734605	-2.177708
H	-1.423063	0.450796	-3.226886
H	-0.818786	1.715702	-2.13018
H	-2.249391	0.740711	-1.660377
C	-0.896189	-1.65834	-1.618695
N	-1.195374	-2.782419	-1.780846
H	-2.995313	0.0	0.0
