15

C	0.0	0.0	0.0
C	-0.254335	-0.048913	-1.556349
Cl	1.783369	0.0	0.0
H	0.478911	0.656074	-1.958853
H	-0.295272	-0.949147	0.457623
N	-0.61886	1.163958	0.542962
H	-0.440403	1.183543	1.54283
H	-1.642768	0.921623	0.439968
C	-1.598725	0.346265	-2.174059
H	-1.898912	1.321005	-1.794265
H	-1.449934	0.404576	-3.26015
H	-2.393953	-0.33975	-1.908356
C	0.142624	-1.37087	-2.054117
N	0.447231	-2.428531	-2.464345
H	-3.117555	0.0	0.0
