15

C	0.0	0.0	0.0
C	-0.27259	-0.039748	-1.56559
Cl	1.79353	0.0	0.0
H	0.54781	0.514506	-2.033091
H	-0.318904	-0.941482	0.444597
N	-0.602756	1.061592	0.721817
H	-1.616292	0.827506	0.735435
H	-0.495615	1.934856	0.217351
C	-1.585635	0.572194	-2.055121
H	-1.540102	1.659292	-1.937459
H	-2.43723	0.21767	-1.452485
H	-1.717437	0.3502	-3.11915
C	-0.119493	-1.418972	-2.03009
N	-0.00969	-2.519886	-2.425736
H	-3.377511	0.0	0.0
