15

C	0.0	0.0	0.0
C	-0.536157	0.012393	-1.435965
Cl	1.789089	0.0	0.0
H	-1.639857	0.013382	-1.222125
H	-0.311636	-0.952021	0.436353
N	-0.519294	1.045472	0.827677
H	-1.542276	0.860096	0.807647
H	-0.356565	1.937213	0.366581
C	-0.159525	-1.212686	-2.261952
H	-0.471387	-2.111688	-1.724642
H	0.91561	-1.268187	-2.44413
H	-0.679827	-1.198839	-3.22343
C	-0.195529	1.253404	-2.114472
N	0.07153	2.253146	-2.672539
H	-3.000732	0.0	0.0
