15

C	0.0	0.0	0.0
C	-0.232074	-0.026759	-1.571568
Cl	1.793776	0.0	0.0
H	0.463658	0.72503	-1.96419
H	-0.323294	-0.946916	0.430654
N	-0.618784	1.057814	0.705485
H	-1.63765	0.807314	0.681425
H	-0.503494	1.928655	0.195992
C	-1.610871	0.293237	-2.149052
H	-1.946094	1.268544	-1.799025
H	-2.372454	-0.400335	-1.805223
H	-1.523888	0.306185	-3.242734
C	0.228958	-1.312896	-2.103525
N	0.562256	-2.350167	-2.543513
H	-3.230496	0.0	0.0
