15

C	0.0	0.0	0.0
C	-0.458373	-0.131155	-1.463613
Cl	1.794284	0.0	0.0
H	0.254578	-0.790801	-1.972569
H	-0.297987	-0.907126	0.526986
N	-0.472574	1.116384	0.765572
H	-1.497922	0.948385	0.744098
H	-0.293458	1.97022	0.246185
C	-0.480997	1.208242	-2.190563
H	0.455661	1.754567	-2.042683
H	-1.315893	1.810985	-1.829108
H	-0.617949	1.043953	-3.261814
C	-1.787169	-0.8097	-1.590982
N	-2.387543	-1.576211	-2.281331
H	-2.654011	0.0	0.0
