14
Coordinates from ORCA-job run
  C   -0.52294708763192     -0.17370175349753      0.05734444120380
  C   0.71025029421824     -0.68339849434407      0.17770176014077
  H   0.77522535186563     -1.72972151522744      0.46275027592696
  N   -1.65706486933154     -1.09913587179727      0.32069366089132
  O   -2.78590336849826     -0.62581886808461      0.18048268880447
  O   -1.42324319799112     -2.25610597815878      0.65600595642108
  C   -0.94869552020729      1.20704892692722     -0.31636508596384
  H   -1.55905930402948      1.64856931973493      0.47303313066980
  H   -0.08099072003761      1.84185825214056     -0.48758837053340
  H   -1.55876967081118      1.19042200167951     -1.22093636088619
  C   1.99898944045955      0.04140989804283     -0.03688912053900
  H   1.86826824724720      1.08451911168808     -0.32081351020730
  H   2.60373365229831      0.00748373472102      0.87404650147979
  H   2.58120675244949     -0.45542876382445     -0.81846596740827
