14
Coordinates from ORCA-job run
  C   -0.52237434715381     -0.15497147361983      0.10254204800305
  C   0.71425097163161     -0.59259817491319      0.37530885857159
  H   0.78707366385562     -1.49531372933238      0.97548233894104
  N   -1.64762709369252     -0.93783823898049      0.67637891037161
  O   -1.41761912843420     -2.02167973217623      1.20396776493937
  O   -2.76535891514173     -0.42804208139034      0.58169777562016
  C   -0.95791548950139      1.03963010489463     -0.67898071981566
  H   -1.64436711959883      0.74696712226307     -1.47539291257551
  H   -0.09908667581222      1.54048656462602     -1.12264607061888
  H   -1.49078205743552      1.74636462889172     -0.04101280179250
  C   1.99781436777154      0.02935747644065     -0.06980394130671
  H   2.61567600943762      0.27413932378497      0.79897944859474
  H   2.57021183665000     -0.68339450275404     -0.67084526923211
  H   1.86010397742382      0.93689271226544     -0.65567542970018
