14
Coordinates from ORCA-job run
  C   -0.43803455395653      0.23712550504240     -0.06171624591855
  C   0.84462838731753      0.09342774584123     -0.42756368553729
  H   1.18858084931435      0.80859389144829     -1.17238766211577
  N   -1.01346909775466     -0.65818781185566      0.95282509358878
  O   -1.84204444668342     -0.16135961088283      1.71711839523960
  O   -0.64611653908596     -1.83296623841367      0.97580395794419
  C   -1.38561637161141      1.28688835994725     -0.54477551729817
  H   -0.92577298443745      1.85706954291776     -1.35257155406225
  H   -1.65780754414639      1.96551403101611      0.26455052809160
  H   -2.30857557052293      0.83346884815425     -0.91461178415450
  C   1.84955337486579     -0.90760185586528      0.05509114624018
  H   1.70170456293687     -1.17655515870136      1.10043070030405
  H   2.85818542636691     -0.51119372693707     -0.07134882568761
  H   1.77378450739729     -1.83322352171142     -0.52184454663426
