14
Coordinates from ORCA-job run
  C   -0.44322775802474      0.22415981231058     -0.07257381056638
  C   0.88099002864885      0.21765702633389     -0.28566309730746
  H   1.26061460500958      1.08135217072063     -0.82840388994807
  N   -1.06899580739284     -0.88292543444135      0.66615552230342
  O   -0.63629835528577     -2.02231542739473      0.49249593298790
  O   -2.00284637140602     -0.58675957930946      1.41274889930112
  C   -1.40089959510925      1.30261479002744     -0.46347899348301
  H   -0.88984951984460      2.04945161493917     -1.07186709722893
  H   -1.82181600109196      1.78497872367458      0.41951329167779
  H   -2.23333618042285      0.88973083381905     -1.03882868447036
  C   1.89023006549489     -0.81147698575981      0.12251878152462
  H   1.62374376920272     -1.31365914584069      1.05166249298850
  H   1.97402711194587     -1.58729007956291     -0.64353980877453
  H   2.86966400827612     -0.34451831951641      0.23826046099539
