14
Coordinates from ORCA-job run
  C   -0.51977621610708     -0.19225096084074      0.00071234378076
  C   0.71649455036368     -0.67440735640145     -0.18432539471593
  H   0.79401959294178     -1.73817209766114     -0.39115271075442
  N   -1.63781785996951     -1.16835244420681     -0.09026755916546
  O   -1.39537571431755     -2.33410502287957     -0.38668745282722
  O   -2.76302440994077     -0.72614880200117      0.14761745516019
  C   -0.96179471049037      1.20186164402989      0.29787440591366
  H   -1.65745562430984      1.55526585263945     -0.46505457762140
  H   -1.48643297381221      1.24548116135740      1.25360409095816
  H   -0.10660981724321      1.87467284943851      0.33371289927490
  C   1.99269935818801      0.10073848883001     -0.13521648081092
  H   1.84916116388658      1.16118468290241      0.06652018572198
  H   2.52629589317753      0.00202859100974     -1.08506131031250
  H   2.64961676763295     -0.30879658621651      0.63772410539822
