14

C	-0.42664	-0.090004	-1.478405
C	0.0	0.0	0.0
Cl	0.015688	1.417473	-2.350077
H	1.094538	0.0	0.0
C	0.26487	-1.218775	-2.106619
N	0.787375	-2.135269	-2.62183
C	-1.875606	-0.284908	-1.607155
N	-3.040631	-0.434835	-1.657998
N	-0.386865	-1.251192	0.634766
H	-1.182938	-1.158317	1.250248
H	0.415257	-1.587993	1.152964
C	-0.568729	1.178951	0.629529
N	-1.034899	2.098516	1.197183
F	2.49587	0.0	0.0
