14

C	-0.353973	-0.040922	-1.483166
C	0.0	0.0	0.0
Cl	-2.152537	-0.183548	-1.761001
H	1.095967	0.0	0.0
C	0.094106	1.174101	-2.168581
N	0.437026	2.147742	-2.729979
C	0.271023	-1.215601	-2.096913
N	0.764919	-2.156842	-2.595661
N	-0.390044	-1.243927	0.633768
H	-1.227597	-1.157301	1.192845
H	0.38403	-1.543554	1.212294
C	-0.533651	1.19769	0.624935
N	-0.974548	2.134062	1.185605
F	2.481055	0.0	0.0
