14

C	-0.422556	-0.0801	-1.480145
C	0.0	0.0	0.0
Cl	0.025594	1.430014	-2.34295
H	1.094608	0.0	0.0
C	0.265549	-1.207008	-2.115963
N	0.764537	-2.133216	-2.637562
C	-1.871419	-0.268299	-1.61166
N	-3.038294	-0.405326	-1.658576
N	-0.389822	-1.254326	0.627796
H	0.407048	-1.589713	1.154106
H	-1.194205	-1.161783	1.23363
C	-0.566058	1.176111	0.63594
N	-1.037758	2.089907	1.2086
F	2.494427	0.0	0.0
