14

C	-0.321968	0.002598	-1.526983
C	0.0	0.0	0.0
Cl	0.502692	-1.393278	-2.298705
H	1.095811	0.0	0.0
C	-1.759951	-0.157528	-1.767605
N	-2.92056	-0.313755	-1.878681
C	0.150393	1.231513	-2.165242
N	0.498553	2.217079	-2.702911
N	-0.430211	-1.177212	0.705761
H	-1.340351	-1.522016	0.422724
H	0.276416	-1.891223	0.59231
C	-0.572521	1.207338	0.576753
N	-1.036722	2.183535	1.04144
F	2.495983	0.0	0.0
