14

C	-0.455342	-0.043895	-1.476431
C	0.0	0.0	0.0
Cl	0.407877	-1.366823	-2.315675
H	1.094459	0.0	0.0
C	-1.895011	-0.31331	-1.570017
N	-3.0497	-0.532862	-1.593992
C	-0.15785	1.213984	-2.167565
N	0.046636	2.215179	-2.747058
N	-0.400731	-1.229082	0.660353
H	-1.186841	-1.104515	1.283578
H	0.402091	-1.563385	1.177781
C	-0.529102	1.200796	0.629416
N	-0.975033	2.14234	1.17832
F	2.498633	0.0	0.0
