14

C	-0.364945	-0.024248	-1.479635
C	0.0	0.0	0.0
Cl	-2.167001	-0.160263	-1.745381
H	1.097387	0.0	0.0
C	0.080086	1.195823	-2.15799
N	0.405506	2.180793	-2.709428
C	0.250592	-1.194829	-2.11113
N	0.70778	-2.120529	-2.670876
N	-0.386068	-1.254456	0.61898
H	-1.224446	-1.172236	1.179171
H	0.387804	-1.553684	1.199273
C	-0.527609	1.190663	0.642682
N	-0.933576	2.149752	1.191129
F	2.478836	0.0	0.0
