14

C	-0.46294	-0.01206	-1.474227
C	0.0	0.0	0.0
Cl	0.391324	-1.318284	-2.343489
H	1.097951	0.0	0.0
C	-1.907041	-0.26727	-1.571389
N	-3.069421	-0.437278	-1.623644
C	-0.164697	1.260917	-2.137238
N	0.042844	2.27269	-2.697502
N	-0.394987	-1.241284	0.64083
H	0.424119	-1.598969	1.12471
H	-1.149727	-1.117775	1.301589
C	-0.523863	1.187956	0.655344
N	-0.973298	2.116135	1.22239
F	2.499047	0.0	0.0
