13
Coordinates from ORCA-job run
  C   0.18509557309106     -0.03993156068372     -0.40684966985273
  C   1.23146200442418     -0.14350079269940      0.69352330889619
  H   0.58145021292847     -0.52974925924413     -1.30430729165065
  H   0.87235534726237      0.34422745352643      1.60643779261050
  H   2.15328841920245      0.35131739241868      0.38422885223879
  H   1.45090546031943     -1.18593211484067      0.93657960767790
  N   0.01212323518685      1.37390725581022     -0.75213394486710
  H   -0.36786397269370      1.86520347694360      0.05102751147276
  H   -0.66910783062822      1.46238256952367     -1.49827277129412
  C   -1.11206028574451     -0.74374166263356     -0.00612584701922
  H   -1.85823269333460     -0.67048027860212     -0.80263086302873
  H   -1.53102389554005     -0.27899760971016      0.89258109767854
  H   -0.94839157447373     -1.80470486980885      0.20594221713787
