13

C	0.0	0.0	0.0
C	-0.211038	-0.069425	-1.601099
Br	2.003453	0.0	0.0
H	0.589158	0.548111	-2.031881
H	-0.370446	-0.919504	0.470183
N	-0.384873	1.12919	0.732383
H	-1.343694	1.082929	1.044467
H	-0.172622	2.006429	0.255214
C	-1.412802	0.442569	-2.255802
N	-2.179042	0.976475	-2.976474
C	0.064655	-1.481129	-2.039378
N	0.173614	-2.592785	-2.376828
Br	-3.489122	0.0	0.0
