13

C	0.0	0.0	0.0
C	-0.508843	0.101281	-1.448247
Br	1.937552	0.0	0.0
H	-1.61594	0.131018	-1.348643
H	-0.30156	-0.977073	0.394074
N	-0.472667	1.14991	0.714877
H	-1.495295	1.07578	0.740223
H	-0.120396	1.132441	1.665608
C	-0.138791	-1.070411	-2.242767
N	0.140355	-2.01156	-2.887135
C	-0.035102	1.322316	-2.101767
N	0.333126	2.292402	-2.650996
Br	-3.595375	0.0	0.0
