13

C	0.0	0.0	0.0
C	-0.504176	-0.061351	-1.470993
Br	1.946551	0.0	0.0
H	-1.612158	-0.085792	-1.358899
H	-0.321677	-0.922607	0.484012
N	-0.480548	1.112938	0.746344
H	-1.497551	1.010425	0.807239
H	-0.261052	1.981919	0.270655
C	-0.068855	-1.261933	-2.179362
N	0.244484	-2.241385	-2.747075
C	-0.131009	1.144605	-2.206699
N	0.131967	2.134883	-2.781396
Br	-3.590173	0.0	0.0
