13

C	0.0	0.0	0.0
C	-0.529985	0.164406	-1.433338
Br	1.995952	0.0	0.0
H	-1.639826	0.119519	-1.271727
H	-0.317937	-0.973746	0.368987
N	-0.507804	1.030994	0.800335
H	-0.756057	0.768129	1.738607
H	-0.015327	1.907288	0.738236
C	-0.104877	-0.906126	-2.329482
N	0.215258	-1.775048	-3.052216
C	-0.185023	1.476522	-1.976516
N	0.058102	2.543397	-2.403112
Br	-3.64779	0.0	0.0
