16

C	-0.542304	0.011796	-1.407545
C	0.0	0.0	0.0
Br	-2.506585	-0.256479	-1.483977
H	1.09211	0.0	0.0
N	-0.219667	1.421186	-1.959473
O	0.956434	1.556704	-2.273189
O	-1.095894	2.264856	-1.997616
C	0.058347	-0.938397	-2.333551
N	0.506316	-1.64607	-3.159431
N	-0.335451	-1.248282	0.661527
O	-0.333224	-2.281801	-0.025618
O	-0.464288	-1.224864	1.896312
N	-0.328343	1.177186	0.719945
H	-1.139592	1.038774	1.307836
H	0.472208	1.398919	1.306924
H	2.374465	0.0	0.0
