16

C	-0.627536	0.058665	-1.381907
C	0.0	0.0	0.0
Br	0.077666	1.609935	-2.342793
H	1.091964	0.0	0.0
N	-0.266458	-1.136554	-2.272596
O	0.87904	-1.5418	-2.185106
O	-1.136259	-1.530499	-3.039578
C	-2.076562	0.188531	-1.31503
N	-3.236014	0.345743	-1.185299
N	-0.43441	-1.202743	0.67219
O	-0.905197	-2.138803	-0.006856
O	-0.214314	-1.270236	1.892439
N	-0.265453	1.194675	0.741973
H	-1.002725	1.049291	1.419648
H	0.595067	1.434471	1.229857
H	2.373404	0.0	0.0
