16

C	-0.493575	0.032421	-1.431608
C	0.0	0.0	0.0
Br	-0.19174	-1.52455	-2.563194
H	1.092005	0.0	0.0
N	-2.022597	0.263918	-1.462818
O	-2.66174	-0.284072	-0.574588
O	-2.477926	0.942737	-2.373584
C	0.129814	1.167217	-2.108243
N	0.636883	2.064558	-2.67311
N	-0.392385	-1.176662	0.78364
O	-0.123588	-2.287812	0.319658
O	-0.841861	-0.986726	1.922992
N	-0.39493	1.244018	0.587343
H	0.411166	1.605189	1.092274
H	-1.151053	1.090873	1.24335
H	2.470407	0.0	0.0
