16

C	-0.500301	0.036657	-1.419708
C	0.0	0.0	0.0
Br	0.531425	-1.09444	-2.628736
H	1.094624	0.0	0.0
N	-2.014509	-0.346227	-1.513418
O	-2.42779	-0.936636	-2.495151
O	-2.684632	0.076539	-0.579077
C	-0.43595	1.39466	-1.95319
N	-0.418572	2.455998	-2.459515
N	-0.416268	-1.216457	0.664274
O	-0.263857	-1.255723	1.894121
O	-0.794925	-2.178857	-0.024236
N	-0.253577	1.197422	0.728882
H	0.548445	1.360117	1.335307
H	-1.10069	1.127754	1.279116
H	2.379155	0.0	0.0
