16

C	0.0	0.0	0.0
C	-0.412719	-0.139117	-1.503107
F	1.387945	0.0	0.0
H	0.330355	0.477873	-2.026921
C	-0.379375	1.364015	0.428139
N	-0.543781	2.480629	0.752759
C	-0.563733	-1.044466	0.926625
H	-0.201621	-0.868966	1.943017
H	-0.25082	-2.037054	0.595547
H	-1.65886	-0.956652	0.892844
N	-1.737972	0.271648	-1.89285
H	-2.47123	0.034326	-1.1533
H	-1.747332	1.286882	-1.936252
C	-0.141329	-1.529277	-1.92256
N	0.101299	-2.631984	-2.25031
H	-3.478713	0.0	0.0
