16

C	0.0	0.0	0.0
C	-0.638707	0.040464	-1.373855
F	1.392393	0.0	0.0
H	-1.750699	0.100826	-1.060972
C	-0.362967	1.241711	0.726942
N	-0.51373	2.233857	1.33696
C	-0.474826	-1.21213	0.770023
H	-1.571186	-1.157984	0.802974
H	-0.152459	-2.10687	0.23875
H	-0.051458	-1.190907	1.776925
N	-0.41224	-1.194525	-2.113573
H	0.417867	-1.118777	-2.688339
H	-1.209033	-1.365115	-2.714718
C	-0.251995	1.233842	-2.127256
N	0.054324	2.147158	-2.803826
H	-3.074294	0.0	0.0
