16

C	0.0	0.0	0.0
C	-0.413729	-0.017241	-1.508146
F	1.387355	0.0	0.0
H	0.327308	0.640456	-1.982415
C	-0.381362	1.321144	0.545054
N	-0.57571	2.388131	0.99479
C	-0.562427	-1.11928	0.836839
H	-1.657051	-1.030697	0.812285
H	-0.249031	-2.079526	0.422702
H	-0.198823	-1.028925	1.86343
N	-1.739421	0.419329	-1.862048
H	-2.472618	0.123683	-1.142781
H	-1.753089	1.434061	-1.824395
C	-0.144022	-1.368342	-2.039065
N	0.071489	-2.437835	-2.474406
H	-3.481708	0.0	0.0
