16

C	0.0	0.0	0.0
C	-0.658542	0.044465	-1.363231
F	1.392547	0.0	0.0
H	-1.770053	0.118633	-1.023174
C	-0.359208	1.240514	0.732273
N	-0.512982	2.231257	1.343826
C	-0.469183	-1.213707	0.771949
H	-0.040269	-1.193051	1.776466
H	-0.147154	-2.106589	0.23728
H	-1.565138	-1.16459	0.811496
N	-0.478045	-1.197093	-2.104251
H	-1.319389	-1.380978	-2.637588
H	0.30405	-1.125215	-2.742777
C	-0.272125	1.228084	-2.12758
N	0.034074	2.138501	-2.808514
H	-3.066023	0.0	0.0
