16

C	0.0	0.0	0.0
C	-0.639235	0.097396	-1.382679
F	1.390733	0.0	0.0
H	-1.728319	0.275583	-1.080247
C	-0.356823	1.222902	0.762275
N	-0.509196	2.204368	1.389116
C	-0.481576	-1.224674	0.744421
H	-1.580119	-1.17603	0.749617
H	-0.131592	-2.124316	0.23415
H	-0.084901	-1.213555	1.761851
N	-0.622556	-1.107976	-2.192601
H	-1.389889	-1.694288	-1.881218
H	0.250009	-1.611371	-2.085924
C	-0.096007	1.229245	-2.130445
N	0.332938	2.139663	-2.738423
H	-3.062437	0.0	0.0
