16

C	0.0	0.0	0.0
C	-0.496042	0.018036	-1.446037
F	1.383131	0.0	0.0
H	0.296952	-0.48801	-2.014532
C	-0.41061	1.191981	0.759919
N	-0.519276	2.171204	1.403287
C	-0.347392	-1.299668	0.720598
H	-1.423157	-1.390614	0.832258
H	0.041394	-2.126945	0.118611
H	0.153478	-1.30332	1.692086
N	-0.583014	1.393208	-1.931113
H	-0.724134	1.350904	-2.936067
H	-1.443344	1.770249	-1.532284
C	-1.768015	-0.747498	-1.6231
N	-2.297606	-1.503121	-2.385758
H	-2.554255	0.0	0.0
