17

C	-0.546229	0.007251	-1.433632
C	0.0	0.0	0.0
Cl	0.296357	-1.311966	-2.403474
H	1.094051	0.0	0.0
N	-1.970693	-0.160726	-1.444157
H	-2.326665	-0.064583	-2.388247
H	-2.195745	-1.092031	-1.115314
C	-0.232719	1.266908	-2.118298
N	-0.031254	2.239926	-2.74323
C	-0.451514	-1.235978	0.774099
H	-1.525462	-1.206186	0.993433
H	-0.213769	-2.161401	0.24479
H	0.087216	-1.253507	1.723343
N	-0.421341	1.257666	0.607271
H	-1.279811	1.148877	1.129468
H	0.313371	1.591889	1.216466
Cl	3.424956	0.0	0.0
