17

C	-0.446786	-0.015149	-1.459269
C	0.0	0.0	0.0
Cl	-2.417728	-0.082386	-1.429667
H	1.095946	0.0	0.0
N	0.000218	1.101773	-2.128328
H	-0.082463	1.918259	-1.534427
H	-0.344717	1.216679	-3.068672
C	-0.141521	-1.25189	-2.171316
N	0.093772	-2.24393	-2.754529
C	-0.465931	-1.20383	0.801135
H	-0.173945	-2.139216	0.317215
H	-1.549317	-1.20328	0.94145
H	0.023875	-1.173375	1.776313
N	-0.388032	1.299118	0.548803
H	0.314219	1.579294	1.223857
H	-1.289401	1.235002	1.009904
Cl	3.379165	0.0	0.0
