14
Coordinates from ORCA-job run
  C   0.94622518187084      0.10232687696040     -0.25591973480185
  C   -0.56689883093255      0.00906910665046     -0.08603733484194
  Cl  1.43344067163652     -0.20858584114170     -1.92103592311212
  H   -1.01448525382579      0.73841718487709     -0.76816673385794
  H   1.48491609151577     -0.57984884920074      0.40022633402225
  N   1.41010851159985      1.48852765474839      0.12364647519614
  O   2.34103172699438      1.54941476419662      0.91981926450516
  O   0.81359846634306      2.42663208574287     -0.39099458209689
  C   -0.89506335038823      0.40702699355927      1.28607491686154
  N   -1.15062720656487      0.69429462195488      2.39570112582203
  C   -1.09792168218414     -1.39769546160405     -0.37448184038729
  H   -2.17258673723930     -1.43012546610406     -0.19159103922119
  H   -0.91524365061247     -1.66937414080058     -1.41364928471103
  H   -0.61749393821307     -2.13207952983886      0.27540835662311
