14
Coordinates from ORCA-job run
  C   0.69172019012772      0.49180138692506     -0.79136354183711
  C   -0.68607387789595     -0.03917657446771     -0.39547500734325
  Cl  0.59699978858456      2.03375009235377     -1.62203815280330
  H   -1.22521697798208     -0.18325725605655     -1.33898530274090
  H   1.20302804854899     -0.22472312436709     -1.43158677796372
  N   1.55308123292726      0.59948666338891      0.44338561617602
  O   2.35326330982437     -0.32070512249572      0.59966770522672
  O   1.34494737698139      1.53233112763046      1.20660695708747
  C   -1.44510440737899      0.93763798556401      0.38865105059276
  N   -2.10896395894295      1.68182437121771      1.00791396054870
  C   -0.58431359680942     -1.37695718826004      0.34608229729141
  H   -0.12893092827747     -1.24968727596962      1.32882525286268
  H   -1.58215667184456     -1.79491349614392      0.48441005084824
  H   0.01672047213712     -2.08641158931927     -0.22609410794572
