14
Coordinates from ORCA-job run
  C   0.62065498103448      0.91929810041700      0.08479343567326
  C   -0.60678856333128      0.09360022044854     -0.32197633353712
  Cl  0.70013833324461      1.24249394894491      1.80066970310502
  H   -0.56050885934283      0.01034578682536     -1.41361674683459
  H   0.65132384212246      1.86556239622466     -0.45436964691154
  N   1.83667599939904      0.14699939293380     -0.40230546615831
  O   1.93847675243991      0.13205609311381     -1.62594445125404
  O   2.56170863526448     -0.41748627404037      0.40157071555119
  C   -1.81585360123278      0.84503408251493      0.01489455170280
  N   -2.79540752347755      1.43274727121087      0.28578163661612
  C   -0.62542784653949     -1.30528019335316      0.29744237149756
  H   -1.52386241607090     -1.83440221242057     -0.02223229381509
  H   -0.62285956216619     -1.25115801076549      1.38588474630372
  H   0.24272982865605     -1.87981060205428     -0.02959222193898
