14
Coordinates from ORCA-job run
  C   0.56829903153465      0.95352327601964     -0.07868027817142
  C   -0.61724767505179      0.00880171008548     -0.31677294649399
  Cl  0.65809830545402      1.55116477644834      1.56131620084602
  H   -0.58635978560242     -0.24444141198803     -1.38242472944406
  H   0.53503819175328      1.80154183652917     -0.76191931755886
  N   1.81746780427439      0.17938956039306     -0.46811682178210
  O   1.89940348779613     -0.02523135471032     -1.67604998467266
  O   2.58641396673012     -0.21062775917034      0.39625449015365
  C   -1.86102296141086      0.73798140900787     -0.06940765262778
  N   -2.86766868076583      1.30749297939224      0.13200733898655
  C   -0.54361556608020     -1.27309837276685      0.51557776125705
  H   -0.52269320494620     -1.04699783494051      1.58152748686336
  H   0.34934235729626     -1.84517881710170      0.25816857508555
  H   -1.41645527098156     -1.89331999719805      0.30851987755868
