14
Coordinates from ORCA-job run
  C   0.71357210265362      0.49217107376498     -0.77339770742970
  C   -0.68363511302811     -0.00631603240989     -0.40393073720267
  Cl  0.67249017881828      2.05707489592278     -1.56478285760324
  H   -1.21736492035808     -0.10767163104312     -1.35605743148301
  H   1.20790765431918     -0.22361362806924     -1.42772203437111
  N   1.56666760168599      0.54210511736599      0.47098951308817
  O   1.38464666816691      1.46463824466463      1.25306371787885
  O   2.33273407749444     -0.40890597060536      0.61288453476000
  C   -1.41879595694385      0.97048308561502      0.40245901030182
  N   -2.05758187950863      1.70382387666811      1.05987447172793
  C   -0.63070580028353     -1.36679042086621      0.30076451422578
  H   -0.04777172599261     -2.07874864137188     -0.28673148521050
  H   -0.17979015253462     -1.28110188739066      1.29002894803280
  H   -1.64237273448900     -1.75614808224517      0.42055754328489
