14
Coordinates from ORCA-job run
  C   0.70108948558190      0.45763329270289     -0.80277877061674
  C   -0.68695040822154     -0.03642438106439     -0.39605686384708
  Cl  0.63880324252977      1.98138493860966     -1.66985863695407
  H   -1.22554422915281     -0.19927124016737     -1.33683759721435
  H   1.19771656747038     -0.28435864991374     -1.42534334248977
  N   1.56455155209927      0.57826023025091      0.42895562830004
  O   2.36180547867996     -0.34221574082828      0.59776956412820
  O   1.35960132274115      1.52242081346328      1.17913726329959
  C   -1.43216913894379      0.97456035398958      0.35717363310365
  N   -2.08514447816412      1.74642927510264      0.95368261949735
  C   -0.60853883641455     -1.35389044420016      0.38398176026397
  H   -0.01999935270278     -2.08998460140072     -0.16724328969623
  H   -1.61314981128175     -1.75086517695000      0.53452706269008
  H   -0.15107139422109     -1.20567866959430      1.36289096953536
