14
Coordinates from ORCA-job run
  C   0.73959368784310      0.43821622954830     -0.78089716593907
  C   -0.67639354390611     -0.00653646114900     -0.41567777639129
  Cl  0.75506778945632      1.96882061034549     -1.63798244720968
  H   -1.19566840674797     -0.13828095984857     -1.37201571231144
  H   1.22587162628623     -0.31698171372452     -1.39570906376702
  N   1.57318732026234      0.51871189575668      0.47501321290389
  O   1.39281539040762      1.47145109034479      1.22067661884493
  O   2.32196242253455     -0.43792889340969      0.66357340602390
  C   -1.40057726846541      1.02470759561589      0.33068219924308
  N   -2.03370368460612      1.80362699207268      0.93937719706435
  C   -0.67157045163070     -1.33372212949807      0.35160286567135
  H   -0.23319424546101     -1.21457205221280      1.34310248045837
  H   -0.10001092381586     -2.08780491133414     -0.19315517705374
  H   -1.69537971215700     -1.68970729250704      0.47240936246236
