18

C	-0.344556	-0.044807	-1.48376
C	0.0	0.0	0.0
Cl	-2.121952	-0.020078	-1.762728
H	1.10745	0.0	0.0
N	0.172227	1.221668	-2.19014
O	0.232289	1.175986	-3.415287
O	0.457253	2.188469	-1.495888
C	0.276052	-1.238999	-2.17156
H	-0.181733	-2.156341	-1.803631
H	1.346961	-1.240837	-1.944143
H	0.118915	-1.169233	-3.245563
C	-0.415224	-1.284013	0.732658
H	-1.479525	-1.499776	0.611544
H	-0.201983	-1.158301	1.79516
H	0.180408	-2.125979	0.380738
C	-0.56799	1.141571	0.705672
N	-1.083519	1.968738	1.36187
Cl	3.276216	0.0	0.0
