16

C	-0.491291	-0.015725	-1.439657
C	0.0	0.0	0.0
F	-0.021761	1.102625	-2.107981
H	1.102099	0.0	0.0
C	-0.042022	-1.21125	-2.180505
N	0.286415	-2.148679	-2.806023
C	-1.970087	0.02531	-1.490427
N	-3.143402	0.010984	-1.537284
C	-0.495321	-1.207224	0.76913
H	0.013249	-1.21955	1.738167
H	-1.579504	-1.177491	0.931789
H	-0.231827	-2.138626	0.261464
N	-0.502092	1.252594	0.581155
H	0.247776	1.935834	0.480317
H	-0.621351	1.110515	1.578923
H	2.826671	0.0	0.0
