16

C	-0.49425	-0.015354	-1.433649
C	0.0	0.0	0.0
F	-1.898158	-0.047297	-1.478439
H	1.09582	0.0	0.0
C	-0.077043	1.197382	-2.160735
N	0.208873	2.146123	-2.789493
C	-0.031157	-1.205676	-2.174691
N	0.288991	-2.163774	-2.773699
C	-0.467527	-1.226453	0.765604
H	-0.163505	-2.152277	0.270066
H	0.015144	-1.210499	1.74595
H	-1.554765	-1.237576	0.898893
N	-0.412498	1.269728	0.590574
H	-1.147523	1.13432	1.271977
H	0.399769	1.653968	1.06422
H	2.777951	0.0	0.0
