16

C	-0.484167	-0.02933	-1.444904
C	0.0	0.0	0.0
F	-0.023358	1.088377	-2.11697
H	1.102074	0.0	0.0
C	-0.014845	-1.226039	-2.171538
N	0.327029	-2.184353	-2.75651
C	-1.962462	-0.004313	-1.505862
N	-3.135413	-0.021859	-1.556066
C	-0.492414	-1.204032	0.775801
H	-0.218397	-2.139348	0.283375
H	-1.577851	-1.182237	0.923351
H	0.001543	-1.201364	1.750415
N	-0.493426	1.261584	0.563783
H	0.291398	1.906532	0.552033
H	-0.726709	1.113117	1.539858
H	2.815936	0.0	0.0
