16

C	-0.490277	0.241678	-1.413562
C	0.0	0.0	0.0
F	-1.894936	0.188683	-1.474894
H	1.106928	0.0	0.0
C	-0.103838	1.578964	-1.898345
N	0.149307	2.637508	-2.338643
C	0.001409	-0.781457	-2.35727
N	0.338227	-1.618706	-3.108332
C	-0.462075	-1.348075	0.527934
H	0.019419	-1.509742	1.49556
H	-0.153942	-2.1659	-0.128404
H	-1.549476	-1.388955	0.655767
N	-0.413874	1.137423	0.811829
H	-1.167005	0.888974	1.44075
H	0.391465	1.425746	1.358783
H	2.769115	0.0	0.0
