16

C	-0.400042	-0.083586	-1.466543
C	0.0	0.0	0.0
F	-1.804687	-0.023745	-1.604309
H	1.10535	0.0	0.0
C	0.124801	1.067528	-2.225233
N	0.466892	2.007631	-2.840268
C	0.026756	-1.33662	-2.112181
N	0.311935	-2.348049	-2.637084
C	-0.522672	-1.186841	0.788147
H	-0.149074	-1.083948	1.808021
H	-0.150238	-2.132193	0.384024
H	-1.617112	-1.212059	0.816605
N	-0.419526	1.263084	0.587586
H	-1.281897	1.607675	0.184471
H	0.316951	1.945977	0.445357
H	2.785473	0.0	0.0
