16

C	-0.478158	-0.010747	-1.449579
C	0.0	0.0	0.0
F	-0.003902	1.106051	-2.111236
H	1.102044	0.0	0.0
C	-0.02061	-1.208008	-2.186794
N	0.313584	-2.148202	-2.808425
C	-1.956707	0.030772	-1.511699
N	-3.131275	0.055828	-1.548777
C	-0.489679	-1.216762	0.757583
H	-0.0071	-1.219947	1.73785
H	-0.20517	-2.144999	0.257766
H	-1.578103	-1.207798	0.894828
N	-0.482892	1.254063	0.580539
H	-0.829419	1.08492	1.514086
H	0.32114	1.868578	0.660133
H	2.806799	0.0	0.0
