16

C	-0.49898	-0.035068	-1.430013
C	0.0	0.0	0.0
F	-1.900482	-0.148368	-1.476301
H	1.111251	0.0	0.0
C	-0.159914	1.202157	-2.157212
N	0.054403	2.159388	-2.802318
C	0.033371	-1.195342	-2.171726
N	0.406145	-2.144583	-2.753217
C	-0.460668	-1.221976	0.775709
H	0.048682	-1.215626	1.74322
H	-0.183405	-2.150909	0.269413
H	-1.544563	-1.219959	0.937098
N	-0.414282	1.27036	0.58932
H	0.416835	1.689742	0.997529
H	-1.095057	1.125566	1.325484
H	2.764534	0.0	0.0
