17

C	0.0	0.0	0.0
C	-0.540939	-0.440085	-1.373986
Cl	1.785744	0.0	0.0
H	-1.610501	-0.206722	-1.313154
N	-0.501052	1.316565	0.290618
H	-1.524822	1.236434	0.266624
H	-0.23219	1.578978	1.233328
C	-0.348766	-1.008212	1.028452
N	-0.578834	-1.799558	1.866392
N	-0.305831	-1.872883	-1.558865
H	-0.447231	-2.087811	-2.539564
H	-1.027083	-2.376055	-1.049437
C	0.090814	0.351529	-2.504519
H	1.101037	-0.010728	-2.709976
H	0.1323	1.410084	-2.246746
H	-0.515499	0.237106	-3.408535
Cl	-3.615033	0.0	0.0
