17

C	0.0	0.0	0.0
C	-0.434839	-0.693685	-1.352963
Cl	1.853276	0.0	0.0
H	0.431496	-0.609247	-2.015872
N	-0.504849	1.309429	0.123651
H	-1.04178	1.442356	0.967475
H	-1.078334	1.503811	-0.695944
C	-0.315331	-0.812454	1.182876
N	-0.539309	-1.425399	2.160379
N	-1.501981	0.081358	-1.959424
H	-2.396546	-0.076268	-1.477382
H	-1.594599	-0.174296	-2.932356
C	-0.768596	-2.168506	-1.141314
H	0.0383	-2.712432	-0.64258
H	-1.680222	-2.255711	-0.547013
H	-0.94877	-2.634284	-2.114527
Cl	-4.018882	0.0	0.0
