17

C	0.0	0.0	0.0
C	-0.510587	0.149989	-1.440902
Cl	1.798603	0.0	0.0
H	-1.595157	0.032152	-1.334654
N	-0.515923	1.053757	0.823649
H	-0.296932	0.85767	1.794608
H	-1.539176	0.998961	0.72457
C	-0.328831	-1.356585	0.497706
N	-0.538179	-2.397563	1.001572
N	-0.008785	-0.96256	-2.237608
H	0.86655	-0.710783	-2.682295
H	-0.681549	-1.188881	-2.957983
C	-0.210809	1.529908	-2.012453
H	-0.666778	1.606986	-3.003454
H	-0.613602	2.318054	-1.376531
H	0.868711	1.68316	-2.113795
Cl	-3.615503	0.0	0.0
