17

C	0.0	0.0	0.0
C	-0.34959	0.148539	-1.539785
Cl	1.841111	0.0	0.0
H	0.431635	0.826177	-1.902096
N	-0.520026	1.107286	0.736097
H	-0.288026	1.01639	1.719824
H	-1.539313	1.060647	0.649253
C	-0.34532	-1.320594	0.550742
N	-0.588313	-2.386317	0.984654
N	-1.606501	0.758483	-1.867912
H	-1.641178	1.708626	-1.519655
H	-2.409212	0.273681	-1.463464
C	-0.231657	-1.193013	-2.249325
H	-0.3104	-1.020513	-3.323542
H	-1.057951	-1.842381	-1.948729
H	0.713517	-1.696823	-2.0337
Cl	-4.027918	0.0	0.0
