17

C	0.0	0.0	0.0
C	-0.481793	-0.047343	-1.465559
Cl	1.80399	0.0	0.0
H	-1.562126	-0.190653	-1.355648
N	-0.500899	1.078398	0.804513
H	-1.520054	0.947752	0.829299
H	-0.307448	1.954969	0.334308
C	-0.353399	-1.274914	0.654365
N	-0.565616	-2.295536	1.193449
N	0.075165	-1.222453	-2.122431
H	-0.561005	-1.537919	-2.842439
H	0.965911	-1.002597	-2.551393
C	-0.239073	1.26468	-2.205398
H	-0.80447	2.090375	-1.768745
H	0.824694	1.523669	-2.22388
H	-0.582766	1.151297	-3.237277
Cl	-3.58256	0.0	0.0
