17

C	0.0	0.0	0.0
C	-0.518116	-0.032495	-1.456632
Cl	1.788518	0.0	0.0
H	-1.594912	0.133656	-1.332138
N	-0.49631	1.096039	0.794067
H	-1.518089	0.992849	0.791746
H	-0.257498	1.968244	0.335089
C	-0.375521	-1.259098	0.669728
N	-0.609827	-2.288305	1.183837
N	-0.221392	-1.329268	-2.067071
H	-0.88128	-2.008504	-1.697831
H	-0.411808	-1.262023	-3.061196
C	0.069539	1.074186	-2.31725
H	-0.510974	1.153089	-3.241388
H	0.021177	2.046271	-1.823037
H	1.108594	0.854169	-2.570669
Cl	-3.600646	0.0	0.0
