18
Coordinates from ORCA-job run
  C   0.63278157374455     -0.33710620238388      0.26631356577794
  C   -0.63083114078414      0.33684939081388     -0.26596998631889
  H   0.49998759028125     -0.58735250727826      1.31925810149531
  H   -0.49793160407797      0.58747876773622     -1.31884933386108
  N   1.70592838163208      0.70687014466829      0.23588725253768
  O   2.19381213588326      1.05236715525235      1.30978822348907
  O   2.00938470199410      1.15321928365353     -0.86915965940913
  C   1.07218873687539     -1.53685072597010     -0.55151326346973
  H   2.02744532798147     -1.91657170063666     -0.18341460454555
  H   0.33564517119639     -2.33718271012508     -0.46078711093733
  H   1.17972383684988     -1.26747788329203     -1.60283835779182
  C   -1.07227970586171      1.53575291878309      0.55214323824386
  H   -0.33489276379351      2.33585864649534      0.46622792978124
  H   -2.02581395735822      1.91653932904339      0.18071201631105
  H   -1.18372114700657      1.26427851171986      1.60252874855409
  N   -1.70542716185167     -0.70619915998576     -0.23689256113809
  O   -2.00117139680867     -1.16228056074946      0.86625114873591
  O   -2.20482857889589     -1.03819269774472     -1.30968534745452
