15

C	0.0	0.0	0.0
C	-0.493624	-0.054102	-1.430219
Cl	1.82633	0.0	0.0
H	-1.59625	-0.059708	-1.393494
H	-0.08658	-0.92206	-1.934148
N	-0.539876	0.99659	0.757383
H	-0.167606	1.116935	1.681945
H	-0.83322	1.822404	0.265768
N	-0.308683	-1.365611	0.669058
O	-0.387265	-1.348471	1.885863
O	-0.389739	-2.349243	-0.055382
N	-0.049903	1.129058	-2.217661
O	0.453515	0.908267	-3.318083
O	-0.248847	2.25193	-1.754462
Br	-3.719289	0.0	0.0
