15

C	0.0	0.0	0.0
C	-0.516466	-0.111537	-1.435985
Cl	1.758977	0.0	0.0
H	-1.61483	-0.049167	-1.380723
H	-0.186524	-1.025221	-1.915681
N	-0.495351	1.041497	0.813372
H	-1.510931	0.912202	0.886862
H	-0.328795	1.912397	0.322965
N	-0.386537	-1.34987	0.679046
O	-0.72467	-1.314836	1.847281
O	-0.261136	-2.354886	-0.010837
N	-0.025472	1.004725	-2.28343
O	0.399586	0.710308	-3.400161
O	-0.095402	2.154147	-1.84711
Br	-3.678228	0.0	0.0
