12

C	0.0	0.0	0.0
C	-0.247773	-0.001318	-1.530795
Br	1.962989	0.0	0.0
H	0.250644	0.888703	-1.942306
H	0.26715	-0.877302	-1.942862
C	-0.413216	1.211213	0.708034
N	-0.658508	2.155099	1.372743
C	-0.425146	-1.217004	0.68505
N	-0.698799	-2.166807	1.328516
C	-1.668196	-0.006232	-1.925109
N	-2.542628	-0.01847	-2.729097
H	-1.921254	0.0	0.0
