12

C	0.0	0.0	0.0
C	-0.280249	0.067458	-1.52908
Br	1.96278	0.0	0.0
H	0.290307	-0.728932	-2.01529
H	0.121292	1.02643	-1.883225
C	-0.524763	1.180486	0.680621
N	-0.57024	2.212117	1.260146
C	-0.532264	-1.206747	0.641031
N	-0.701147	-2.202186	1.259257
C	-1.697571	-0.029479	-1.905597
N	-2.632313	-0.085799	-2.628505
H	-1.983418	0.0	0.0
