12

C	0.0	0.0	0.0
C	-0.272184	-0.069276	-1.540924
Br	1.960292	0.0	0.0
H	-1.349228	0.029695	-1.677675
H	0.24834	0.765175	-2.017271
C	-0.563556	1.223505	0.581706
N	-0.702703	2.225276	1.196922
C	-0.595556	-1.133203	0.725764
N	-0.723585	-1.999507	1.522355
C	0.176294	-1.328668	-2.131154
N	0.485843	-2.329632	-2.65591
H	-2.085583	0.0	0.0
