12

C	0.0	0.0	0.0
C	-0.247301	-0.009486	-1.531094
Br	1.963093	0.0	0.0
H	0.271869	-0.89308	-1.940525
H	0.25871	0.873176	-1.950806
C	-0.410697	1.196956	0.701004
N	-0.652049	2.164305	1.35443
C	-0.40278	-1.207961	0.697936
N	-0.664883	-2.198685	1.292471
C	-1.656063	-0.021923	-1.943896
N	-2.566512	-0.03458	-2.702833
H	-1.915639	0.0	0.0
