12

C	0.0	0.0	0.0
C	-0.276218	0.426984	-1.483751
Br	1.960193	0.0	0.0
H	0.215274	-0.305748	-2.129758
H	-1.357385	0.393137	-1.63091
C	-0.472805	1.00172	0.95571
N	-0.545004	1.843347	1.781679
C	-0.657607	-1.290371	0.242366
N	-0.664856	-2.466875	0.414606
C	0.208495	1.762704	-1.808081
N	0.539863	2.840166	-2.138572
H	-2.08893	0.0	0.0
