13

C	-0.592743	0.015078	-1.398334
C	0.0	0.0	0.0
Br	0.083705	-1.567028	-2.434426
H	1.086985	0.0	0.0
H	-0.119136	0.841544	-1.93027
H	-0.363777	0.89486	0.511259
N	-2.002689	0.077813	-1.407662
H	-2.44364	0.020861	-0.5043
H	-2.411301	0.730715	-2.046866
N	-0.542702	-1.136387	0.787154
O	0.108325	-2.169047	0.867872
O	-1.659317	-0.963864	1.305323
Cl	3.40069	0.0	0.0
