13

C	-0.535342	0.031293	-1.416846
C	0.0	0.0	0.0
Br	-0.170487	-1.764956	-2.277409
H	1.086945	0.0	0.0
H	0.118613	0.684974	-1.992442
H	-0.355098	0.905568	0.502291
N	-1.883538	0.44762	-1.526933
H	-2.475729	-0.168826	-0.985768
H	-2.18403	0.455644	-2.492455
N	-0.550453	-1.125741	0.803095
O	0.199435	-1.728909	1.558267
O	-1.761731	-1.352577	0.692804
Cl	3.39821	0.0	0.0
