13

C	-0.486581	-0.078545	-1.44608
C	0.0	0.0	0.0
Br	-0.278729	1.728422	-2.224933
H	1.088733	0.0	0.0
H	-1.561119	-0.262062	-1.486067
H	-0.432155	0.836477	0.54509
N	0.207573	-1.037549	-2.243264
H	-0.180219	-1.960089	-2.096337
H	1.194334	-1.041848	-1.997784
N	-0.50306	-1.236495	0.66408
O	-1.693486	-1.236824	0.997774
O	0.25755	-2.193935	0.789443
Cl	3.405487	0.0	0.0
