13

C	-0.350979	-0.000752	-1.479647
C	0.0	0.0	0.0
Br	-2.312672	0.155279	-1.715786
H	1.093284	0.0	0.0
H	-0.120684	-1.00391	-1.842941
H	-0.400597	-0.862102	0.528626
N	0.321586	0.952521	-2.315402
H	0.233786	1.864578	-1.882881
H	1.312302	0.71196	-2.283932
N	-0.476899	1.193386	0.731908
O	-0.342761	2.295255	0.19766
O	-0.967066	1.018493	1.846233
Cl	3.304454	0.0	0.0
