16
Coordinates from ORCA-job run
  C   0.81708089264159     -0.71503191860462     -0.35964134553557
  C   -0.03368887833213      0.47424854932284      0.07493191312234
  Br  -0.24538713451245     -2.05581183010436     -1.33454565470343
  H   0.67741425906836      1.12704267333616      0.60717139041434
  H   1.53764448691262     -0.38508195250597     -1.11839614768400
  N   1.40689379434254     -1.37506448349962      0.78155216986387
  H   2.04432588278149     -2.10276500335549      0.48192546338393
  H   1.92779961205532     -0.69350362496221      1.32367019019488
  C   -1.14318636117872      0.09047952617959      1.04807686285916
  H   -1.91878998319193     -0.48346285312952      0.53688090231262
  H   -0.75806410478215     -0.51604072545810      1.86793157530743
  H   -1.60531930739698      0.99072864194733      1.46184341139653
  C   -0.57041624033173      1.25924224109845     -1.11706806569730
  H   -1.31395433273424      0.67437717371244     -1.66230518148920
  H   -1.04810640592729      2.18167755988910     -0.77764026721671
  H   0.22775382058571      1.52996602613397     -1.81438721652889
