16
Coordinates from ORCA-job run
  C   0.74569715736271     -0.76414909379187     -0.52765164773707
  C   -0.50765049227195      0.09835185430878     -0.42040813086379
  Br  0.17105709112518     -2.69867892708789     -0.84765363687284
  H   -1.15563707861140     -0.18302613246640     -1.25647730995808
  H   1.27956978587274     -0.54795276320986     -1.45334184632037
  N   1.61877855740857     -0.61870787144309      0.56979535956473
  H   1.20092124524905     -0.93974137441905      1.43308160749806
  H   2.49312095845222     -1.10582813124639      0.42705349644160
  C   -0.11244841458927      1.56772738946778     -0.58090175862850
  H   -1.00170884911415      2.20303642224160     -0.55274972365511
  H   0.39283345977249      1.74226149080319     -1.53499040353295
  H   0.56079046376281      1.87424903256857      0.22139996736354
  C   -1.26955917242875     -0.12365968351568      0.88237221128729
  H   -1.49817537940627     -1.17943736995409      1.04126033811352
  H   -0.70288500420433      0.25175781748349      1.73939207142050
  H   -2.21470432837963      0.42379734026092      0.85881940587948
