16
Coordinates from ORCA-job run
  C   1.04159245632450     -0.45913681225655     -0.22020046983468
  C   -0.07502920145299      0.52760478721776      0.10034364477800
  Br  0.37638285342290     -1.83443872364812     -1.57580708667969
  H   0.42551056818948      1.26370061315530      0.74434819704484
  H   1.82854970114704      0.03678735586421     -0.78937558195579
  N   1.59715712634740     -1.05769360137949      0.93133385469175
  H   2.40559086049721     -1.62267142887815      0.70792654022804
  H   0.92440307101868     -1.63250323996947      1.42081290878467
  C   -1.22142384386680     -0.09182066459774      0.89359083972915
  H   -1.98389598557214      0.66444106900317      1.09494695612695
  H   -0.89153097217419     -0.47793905775781      1.86119944397714
  H   -1.69032259459938     -0.90250477479000      0.33125485273815
  C   -0.58484154068596      1.25323573162860     -1.14082811347367
  H   -1.18365921227175      0.59108384013638     -1.76800576903137
  H   -1.20833077530856      2.10124733197026     -0.84618429965194
  H   0.24084748898457      1.63760757430166     -1.74635591747155
