16
Coordinates from ORCA-job run
  C   0.92132104474427     -0.58703972863422     -0.27129068276375
  C   -0.45022121150688      0.07800563413374     -0.30125147086150
  Br  1.53818854867573     -0.97975136337905     -2.09350331785594
  H   -1.10942374430113     -0.58459087240222     -0.87300964751170
  H   1.66850998071042      0.12777035155722      0.10256376651223
  N   0.88806139731527     -1.85061387872453      0.44108149232245
  H   0.77323629651998     -1.66368726563481      1.43144304883377
  H   1.77160775845946     -2.33263717872800      0.32431441084497
  C   -0.40034125206843      1.45171425488572     -0.96340800362588
  H   -1.39466674456279      1.90489059275831     -0.96854855844379
  H   -0.05100257018637      1.39452551537451     -1.99465601843266
  H   0.26753028912836      2.12205819278886     -0.41236471794130
  C   -0.99501162568788      0.19880462846818      1.12470018869741
  H   -0.29288267982821      0.73857884222618      1.77032690402354
  H   -1.20176976098258     -0.77830550838292      1.56385094434765
  H   -1.93213572642922      0.76027778369303      1.12075166185450
