16
Coordinates from ORCA-job run
  C   0.69467623862846     -0.89557250553587     -0.56450194577542
  C   -0.50696150180070      0.04820875241963     -0.41893796711398
  Br  0.03442832751001     -2.74838340284609     -0.79881061358115
  H   -1.17005697903427     -0.15211746513651     -1.26808947158043
  H   1.19903546708895     -0.68510650811241     -1.51036282459674
  N   1.68307273093554     -0.88541392877965      0.47216227180078
  H   1.27217073101824     -0.90931292654175      1.39515793718043
  H   2.30072540933275     -0.09028127217096      0.38284324606636
  C   -0.01476537212454      1.49305453571225     -0.52174315139584
  H   0.55526278335847      1.66074810432208     -1.44040984199697
  H   -0.86133072604588      2.18409114936733     -0.52480813685941
  H   0.62035464935437      1.75501079561363      0.32897579857735
  C   -1.29615604738454     -0.16246771549912      0.86873736003342
  H   -2.17265781175662      0.48995215001108      0.87960555423563
  H   -0.69873019173485      0.09120804011731      1.74966468434387
  H   -1.64106770734539     -1.19261780294095      0.96751710066208
