13

C	-0.31567	3.2e-05	-1.488067
C	0.0	0.0	0.0
F	-1.683272	-0.000332	-1.744985
H	1.097757	0.0	0.0
C	0.247734	1.203482	-2.129057
N	0.641616	2.158817	-2.687516
C	0.248395	-1.203109	-2.129077
N	0.641473	-2.159137	-2.68688
C	-0.482997	-1.201566	0.644053
N	-0.799272	-2.199683	1.181898
C	-0.483133	1.201468	0.644133
N	-0.799556	2.199641	1.181797
H	2.405952	0.0	0.0
