13

C	-0.316666	-0.000281	-1.487891
C	0.0	0.0	0.0
F	-1.684901	0.002851	-1.743341
H	1.097697	0.0	0.0
C	0.249048	1.202141	-2.130597
N	0.62955	2.166062	-2.683412
C	0.24354	-1.205743	-2.1296
N	0.631378	-2.16171	-2.691178
C	-0.484714	-1.201043	0.644482
N	-0.805022	-2.197815	1.182578
C	-0.483798	1.201756	0.643859
N	-0.803573	2.199089	1.181152
H	2.407618	0.0	0.0
