13

C	-0.315645	-0.000872	-1.488112
C	0.0	0.0	0.0
F	-1.683227	-0.002092	-1.745059
H	1.097817	0.0	0.0
C	0.247153	1.202614	-2.129544
N	0.641257	2.157269	-2.689009
C	0.248895	-1.204127	-2.128495
N	0.638489	-2.163277	-2.683448
C	-0.482809	-1.20127	0.644739
N	-0.798727	-2.199325	1.182868
C	-0.483245	1.201833	0.643361
N	-0.799558	2.200583	1.18003
H	2.40595	0.0	0.0
