13

C	-0.310073	-0.008741	-1.502471
C	0.0	0.0	0.0
F	0.13101	1.177923	-2.04167
H	1.097501	0.0	0.0
C	0.379849	-1.133788	-2.173348
N	0.811302	-2.044149	-2.778451
C	-1.757037	-0.119168	-1.779244
N	-2.908414	-0.201063	-2.001921
C	-0.475903	-1.209446	0.634483
N	-0.790884	-2.21795	1.154378
C	-0.513216	1.197482	0.627096
N	-0.851282	2.195755	1.151794
H	2.4107	0.0	0.0
