17

C	0.0	0.0	0.0
C	-0.302966	0.024001	-1.526508
Cl	1.792965	0.0	0.0
H	0.433448	0.689752	-1.975486
H	-0.290661	0.991281	0.355814
C	-0.689533	-1.038299	0.841111
H	-0.441663	-0.878461	1.89454
H	-1.771854	-0.854164	0.67591
H	-0.414491	-2.052572	0.555504
C	-1.692645	0.417438	-1.987575
H	-1.751351	0.244764	-3.069247
H	-2.503178	-0.052085	-1.3901
H	-1.806878	1.490663	-1.806328
N	0.048999	-1.295731	-2.149317
O	-0.600391	-2.287669	-1.823048
O	0.944262	-1.300312	-3.000278
F	-3.367722	0.0	0.0
