17

C	0.0	0.0	0.0
C	-0.644914	0.117907	-1.359478
Cl	1.788606	0.0	0.0
H	-1.751323	0.15846	-1.022044
H	-0.289652	0.888009	0.556152
C	-0.494935	-1.228548	0.743637
H	-0.125831	-2.149225	0.284563
H	-1.589044	-1.15754	0.701742
H	-0.141081	-1.200726	1.777585
C	-0.374119	-1.010907	-2.326086
H	0.69138	-1.114999	-2.551643
H	-0.909804	-0.847121	-3.259981
H	-0.73925	-1.939889	-1.885292
N	-0.323263	1.436668	-1.967595
O	-0.229725	2.412545	-1.221407
O	-0.224049	1.513374	-3.196772
F	-2.920856	0.0	0.0
