16
Coordinates from ORCA-job run
  C   0.69916426069489     -0.39606768050590      0.54580853336287
  C   -0.29657398791720      0.49119308202682     -0.20581704461180
  H   0.17700205189990     -1.10216674742297      1.19136743028549
  H   0.24273177394053      1.24078820083102     -0.78586506618218
  C   1.66147706131065      0.39221825669568      1.30611549454151
  N   2.41472279467742      1.04805101846808      1.92396350785688
  N   1.42543614605829     -1.21020574652937     -0.49693213621592
  O   2.16440938995666     -0.58984847723736     -1.25322250782123
  O   1.16805098887597     -2.40855054381970     -0.52946436404329
  N   -1.08092176803290      1.25595853062514      0.82197324859758
  O   -1.31504108533015      2.43332647594393      0.57235824988523
  O   -1.46705761663025      0.62688145220308      1.80508996340677
  C   -1.26792260140174     -0.30310252793677     -1.06064025428709
  H   -2.01153089675500      0.37211525358367     -1.48771348113978
  H   -0.74198766449417     -0.78860809943523     -1.88395220678158
  H   -1.77495884685290     -1.06298244749012     -0.46306936685346
