16
Coordinates from ORCA-job run
  C   1.01270822551651     -0.27057966931002     -0.20769254113952
  C   -0.38130192396751      0.23336827034839     -0.59843418440328
  H   1.77146532719230      0.39865309572467     -0.62135171304404
  H   -0.50784838686335      0.02342473236521     -1.66487697332621
  C   1.21672310122921     -1.63801939601821     -0.66427295839548
  N   1.34936203951153     -2.72397995643821     -1.09119025290005
  N   1.14939374297706     -0.18320727760977      1.29742572853158
  O   1.28048705068930     -1.21857929202941      1.93646441087990
  O   1.07379074513038      0.95701310878316      1.74152099892178
  N   -0.37077415521371      1.74856674046610     -0.53403499882704
  O   -1.28122237851603      2.30409213265008      0.06723618897576
  O   0.54101598516376      2.30063111950486     -1.14113366133225
  C   -1.50110296961061     -0.36839636126912      0.22003168672770
  H   -2.46668002348584     -0.04663616057514     -0.16715610969165
  H   -1.43793498316814     -0.05819760858445      1.26296548778230
  H   -1.44708139658485     -1.45815347800815      0.16349889124051
