15

C	-0.539078	-0.00121	-1.434269
C	0.0	0.0	0.0
F	-0.131615	1.155629	-2.026927
H	1.094904	0.0	0.0
N	0.050137	-1.124673	-2.304916
O	1.238315	-1.342067	-2.155847
O	-0.713117	-1.620238	-3.126734
C	-2.002338	-0.092387	-1.498204
N	-3.17694	-0.11262	-1.518105
N	-0.422364	-1.247093	0.713263
O	-0.38497	-1.231976	1.934942
O	-0.718522	-2.205947	0.000975
C	-0.49993	1.168231	0.703773
N	-0.906666	2.130058	1.242265
Br	3.277517	0.0	0.0
