10
Coordinates from ORCA-job run
  C   0.62376066773692     -0.27939170584712      0.02213339300486
  C   -0.65167606857502      0.15155813202826      0.06180844157541
  H   0.96996799243367     -1.29102057505500      0.18167631107486
  H   -0.83970745156464      1.20620552415469     -0.11121786604651
  N   1.68645421323139      0.65824411107269     -0.24425430258350
  O   1.41430326238339      1.84355153411313     -0.43628254023437
  O   2.82592625633826      0.18751873838129     -0.26531323062841
  N   -1.74305478627000     -0.60681137314924      0.37329999624934
  H   -2.63822201584877     -0.26146120879504      0.07546953229874
  H   -1.64675206986518     -1.60839317690366      0.34268026528958
