10
Coordinates from ORCA-job run
  C   0.52648930319345      0.10049405829251      0.42456502963609
  C   -0.56110786403893     -0.20095808452047     -0.31047996058727
  H   0.65791017703156     -0.06773677798398      1.48434483330623
  H   -0.53748964288311      0.02217935640339     -1.37218934549855
  N   1.67352025359546      0.70107841403746     -0.21031008805859
  O   2.62898592712150      0.94831609244775      0.52886672699413
  O   1.64357265575626      0.93498939998435     -1.41873132945439
  N   -1.68207386234600     -0.83483767017854      0.14217319174563
  H   -2.51841762141049     -0.72756016091673     -0.40400902791829
  H   -1.83138932601969     -0.87796462756573      1.13676996983502
