10
Coordinates from ORCA-job run
  C   0.52564848506233      0.37807404140644      0.69271855996024
  C   -0.80179056247219      0.25488034034033      0.43411466899033
  H   0.90720371109217      0.83510500327897      1.59200849235130
  H   -1.47457981047048      0.64839865416570      1.19111008032398
  N   1.54120596834197     -0.09884975944428     -0.18943139009282
  O   1.20077836321837     -0.64885485639886     -1.25005428522058
  O   2.71227879731038      0.05927617638730      0.15746861003666
  N   -1.40333079865965     -0.24146788979376     -0.66838222431393
  H   -0.82453468538453     -0.73151347670853     -1.33179731213780
  H   -2.38287946803836     -0.45504823323330     -0.62775519989737
