10
Coordinates from ORCA-job run
  C   0.62169427162802     -0.28255863539681      0.00263345728548
  C   -0.65725425019510      0.13747442898303     -0.04120905697125
  H   0.96395197567050     -1.30144071462340      0.11908452989167
  H   -0.84211105132595      1.19853511615905     -0.17376677893057
  N   1.69300401681926      0.67378724099733     -0.12735970691345
  O   2.83524512900006      0.21179835019574     -0.07951494609464
  O   1.42528710576397      1.86711744317280     -0.27017655162577
  N   -1.76324244037174     -0.66237777174637     -0.00714051962573
  H   -1.64875248308609     -1.61054104842014      0.31145184984350
  H   -2.62882227390294     -0.23079440932123      0.26499772314077
