10
Coordinates from ORCA-job run
  C   0.43794885847543      0.70945271902202      0.45281905255382
  C   -0.73876709553873      0.04528823443705      0.58968956462962
  H   0.71936442747901      1.53742887508601      1.08395718895194
  H   -1.39214751790262      0.38933522444193      1.38673070917008
  N   1.39940756373450      0.39512640562650     -0.55367900331989
  O   1.16079145350512     -0.53977479736677     -1.33616632036494
  O   2.42265354139909      1.07953647145313     -0.59235603820885
  N   -1.18579855221381     -1.02759354066472     -0.09682845312070
  H   -0.67274052281987     -1.30246919397782     -0.91915723472043
  H   -2.15171215611811     -1.28633039805733     -0.01600946557065
