10
Coordinates from ORCA-job run
  C   0.62593947736900     -0.24308971124906      0.12722898599437
  C   -0.65908698841693      0.12961649147491     -0.02774292238156
  H   0.98346785835037     -1.19996137642958      0.48126769862204
  H   -0.85959442777191      1.13355676200269     -0.38756689769868
  N   1.68232614447876      0.68775413215593     -0.18337455693560
  O   2.83133687743816      0.27208700233993     -0.01767387930823
  O   1.39664522556097      1.81402903412302     -0.59077561430434
  N   -1.75339837431529     -0.61895359015070      0.29675808128084
  H   -2.62341119000370     -0.36810323700978     -0.13854566490009
  H   -1.62422460268942     -1.60693550725736      0.44042476963125
