10
Coordinates from ORCA-job run
  C   0.48297172083260      0.63635960113371      0.51196378138252
  C   -0.76996902464110      0.11281084883074      0.53940739917428
  H   0.81283146381587      1.40272107366939      1.19528645774367
  H   -1.43480210583209      0.50420631668190      1.30446025232950
  N   1.47214550530795      0.24486696451120     -0.43909597027856
  O   1.18531757739514     -0.62876934831088     -1.27446164601856
  O   2.56757178002857      0.80481352972529     -0.37916494125473
  N   -1.28704260534928     -0.87430063640154     -0.22213997205346
  H   -2.27941443670743     -1.02126295541919     -0.21825022229915
  H   -0.74960987485022     -1.18144539442062     -1.01700513872550
