10
Coordinates from ORCA-job run
  C   0.50352639912348      0.30841731174747      0.34395642077133
  C   -0.56789805414987     -0.29553618480154     -0.20516883176937
  H   0.51606481328917      0.91244932689589      1.24050431919468
  H   -0.41886055651252     -0.87945511272197     -1.10759800449110
  N   1.79947628855781      0.16318164681378     -0.27108370987735
  O   1.91086342262725     -0.50901102891346     -1.29669039825906
  O   2.72990515608779      0.74557462242169      0.29059397775135
  N   -1.83191670417817     -0.30409843419320      0.30972990777707
  H   -2.58212594951950     -0.51493630328653     -0.32429984472575
  H   -2.05803481532542      0.37241415603787      1.02005616362821
