10
Coordinates from ORCA-job run
  C   0.52629997604701      0.34459648133893      0.71033216601848
  C   -0.79991320428433      0.27186124427604      0.42688983698223
  H   0.91105167943879      0.83363607291021      1.59118219563855
  H   -1.46931551373112      0.73107345820439      1.14907817448376
  N   1.53744695311771     -0.19064672095398     -0.14243826011420
  O   2.70903394937336     -0.04520366835255      0.20855817420698
  O   1.19363200260329     -0.76805779342662     -1.18732244781153
  N   -1.40778902279379     -0.34762614831473     -0.60702995897504
  H   -0.82601562881052     -0.67838218977730     -1.36015590716256
  H   -2.37443119096039     -0.15025073590440     -0.78909397326668
