10
Coordinates from ORCA-job run
  C   0.59950714194399     -0.18616963094045      0.26928433337307
  C   -0.64760899276097      0.10474339890796     -0.14793671487834
  H   0.89021319923424     -0.99658815277003      0.92311424034896
  H   -0.78115273964968      0.96196466462304     -0.79977214841654
  N   1.70494706306260      0.63810630321884     -0.15235843632461
  O   1.49563162242853      1.59856243760564     -0.89385735737733
  O   2.81484958885206      0.30667460300623      0.27039028834444
  N   -1.78839588607802     -0.54179972133384      0.23114487221932
  H   -1.69731455935085     -1.44611261719040      0.66395444907404
  H   -2.59067643768189     -0.44038128512700     -0.36496352636301
