10
Coordinates from ORCA-job run
  C   0.44342763187559      0.68247361594555      0.48686722359085
  C   -0.84612458363414      0.29760110052122      0.30387710773723
  H   0.71946129131446      1.53826402540389      1.08230216509806
  H   -1.60099270212875      0.90293525433025      0.79799862962698
  N   1.55271268156196      0.00434216104043     -0.10104296475450
  O   1.33592106679636     -0.99257079172275     -0.80991510979968
  O   2.67652509933895      0.45311332995391      0.12831329879355
  N   -1.31736618884794     -0.77522376437680     -0.36670553137035
  H   -2.29648117301308     -0.82018295732268     -0.58080648101956
  H   -0.66708312326342     -1.28975197377302     -0.93888833790258
