10
Coordinates from ORCA-job run
  C   0.60352449360914     -0.19028251907723      0.25871429748389
  C   -0.64909178553329      0.11290705700630     -0.13248735649793
  H   0.89863726776963     -0.99681739219427      0.91533557342336
  H   -0.78622981626221      0.96236082433100     -0.79366004084546
  N   1.71007693864809      0.60912180883189     -0.20547965380015
  O   2.82577586562500      0.26520584640167      0.19133670241476
  O   1.49605927883541      1.56236373169588     -0.95494458627298
  N   -1.78948419657614     -0.51042365275398      0.28427172725425
  H   -2.60543639426255     -0.40417911725551     -0.29208328866750
  H   -1.70183165185308     -1.40925658698574      0.72899662550775
