10
Coordinates from ORCA-job run
  C   0.59321442329973     -0.17686638093610      0.31081887400298
  C   -0.62191728669478      0.08985635871344     -0.20774774055936
  H   0.77030012849405     -0.70174432870657      1.23922162566345
  H   -0.74420616614419      0.76839921570839     -1.04455493371504
  N   1.75235373382626      0.48691021891943     -0.23610377695224
  O   1.63829380405281      1.08954190843919     -1.30374406359189
  O   2.76147949760880      0.49164236320868      0.47275013392706
  N   -1.79771944573788     -0.41643261309332      0.30297896735154
  H   -1.74642839799925     -1.31467411675731      0.75596139615299
  H   -2.60437029070553     -0.31663262549582     -0.28958048227948
