10
Coordinates from ORCA-job run
  C   0.45412535734014      0.25700081962842      0.45645513079362
  C   -0.50427389061820     -0.27587516297984     -0.32704257839093
  H   0.50811940033470      0.14821737010331      1.53075337813497
  H   -0.40674809595544     -0.29060511186606     -1.40689995494773
  N   1.65048522667280      0.78317018062585     -0.15528349618925
  O   2.62466808413516      0.92445394116584      0.58728426986044
  O   1.66212155158082      0.95751193664320     -1.37430364711814
  N   -1.63666579581974     -0.89052295746342      0.16261828000380
  H   -1.99008274528612     -0.55262642621203      1.04332643245767
  H   -2.36074909238411     -1.05972458964528     -0.51490781460445
