10
Coordinates from ORCA-job run
  C   0.57789773865178      0.17737519758248      0.73098384909356
  C   -0.74361753060523     -0.09534448257077      0.57750032758827
  H   1.02471433625503      0.38749456259732      1.68976440663979
  H   -1.33952017720135     -0.09820904690112      1.48602342860471
  N   1.49526230550447      0.23575402601657     -0.36058692635334
  O   1.07359682640088      0.01418240847867     -1.50787732360472
  O   2.66747217888709      0.51025032280573     -0.10035365522753
  N   -1.41172823698971     -0.42188062642796     -0.54918618435177
  H   -2.41472664081964     -0.39992763696001     -0.53974189613985
  H   -0.92935080008331     -0.30969472462092     -1.42652602624912
