10
Coordinates from ORCA-job run
  C   0.50535706368281      0.33630079430104      0.72925835616369
  C   -0.81390736074516      0.23324760596177      0.42337042250698
  H   0.85915389823152      0.73563566153335      1.66652364091373
  H   -1.50969814250022      0.58747778195867      1.17895809634671
  N   1.54597324837158     -0.09782017204891     -0.14494125116445
  O   1.23717093319260     -0.57943557878459     -1.24774452984007
  O   2.70605959766872      0.02804076835792      0.24916734525392
  N   -1.38137271821540     -0.19932311392171     -0.72237045065235
  H   -2.36460651954062     -0.39811173170485     -0.73251570865932
  H   -0.78413000014583     -0.64601201565268     -1.39970592086884
