10
Coordinates from ORCA-job run
  C   0.56065350546294      0.12893653167867      0.75439714134476
  C   -0.63778067414683     -0.46625994754700      0.52145159023897
  H   1.00427566621296      0.18687500140701      1.73568519549684
  H   -1.13409783743605     -0.89750496969368      1.38642180331322
  N   1.33265188214452      0.75710936905728     -0.26796860002948
  O   0.90051382530694      0.74894353503538     -1.43275199357884
  O   2.39572855786206      1.28131680053891      0.06676997361432
  N   -1.27375328797108     -0.64672828909746     -0.65529776321388
  H   -0.91156074844921     -0.16212980420956     -1.46090024366192
  H   -2.23563088898625     -0.93155822716957     -0.64880710352399
