10
Coordinates from ORCA-job run
  C   0.45826078908997      0.67042514391211      0.49062524494236
  C   -0.78634548434937      0.12711407960288      0.51147293113410
  H   0.78021386366779      1.42288087574068      1.19292250099068
  H   -1.45839769412361      0.50035482202774      1.27927796993758
  N   1.46552152192897      0.27951171675247     -0.44140069566383
  O   2.56410243123684      0.82900069495715     -0.35105063458912
  O   1.19196576855891     -0.58774032738948     -1.28779497109807
  N   -1.32440875933225     -0.77806987628202     -0.33290337174160
  H   -0.70542550477221     -1.23739184130303     -0.98162791794021
  H   -2.18548693190504     -1.22608528801850     -0.07952105597189
