17

C	-0.292267	0.029185	-1.487325
C	0.0	0.0	0.0
Cl	-2.087963	0.209449	-1.833087
H	1.101157	0.0	0.0
H	-0.069809	-0.954552	-1.917892
N	0.404398	1.123067	-2.11155
H	0.41043	1.005125	-3.116876
H	1.368346	1.096204	-1.779769
C	-0.496839	-1.273113	0.665563
H	-0.148896	-1.308965	1.701802
H	-0.107101	-2.160911	0.158482
H	-1.59116	-1.322533	0.664871
C	-0.478829	1.252173	0.721173
H	-0.043293	1.282948	1.723618
H	-0.167541	2.149595	0.185313
H	-1.569391	1.264184	0.812986
Br	3.629402	0.0	0.0
