12

C	0.0	0.0	0.0
C	-0.457728	0.298919	-1.46104
F	1.383721	0.0	0.0
H	0.475137	0.293481	-2.039266
H	-0.366727	0.735682	0.713521
H	-0.857626	1.316095	-1.473408
C	-0.394074	-1.349552	0.440632
N	-0.497811	-2.471949	0.771936
N	-1.4361	-0.566718	-2.081712
H	-2.251577	-0.494439	-1.436714
H	-1.106541	-1.525883	-2.028999
H	-2.935493	0.0	0.0
