12

C	0.0	0.0	0.0
C	-0.520042	-0.358417	-1.395068
F	1.383323	0.0	0.0
H	0.363148	-0.604081	-1.994377
H	-0.350488	0.990831	0.282662
H	-1.167582	-1.238318	-1.315076
C	-0.393023	-0.98612	1.028883
N	-0.447691	-1.829129	1.845157
N	-1.210235	0.803814	-1.953777
H	-1.511452	0.558808	-2.895055
H	-2.071174	0.815053	-1.368643
H	-2.892625	0.0	0.0
