12

C	0.0	0.0	0.0
C	-0.261457	0.039861	-1.536639
F	1.383716	0.0	0.0
H	0.509726	0.746907	-1.863959
H	-0.381628	0.884243	0.508649
H	0.073768	-0.949558	-1.893734
C	-0.431883	-1.219115	0.693963
N	-0.565996	-2.230333	1.276928
N	-1.561501	0.438723	-2.03035
H	-1.873895	-0.260773	-2.696339
H	-2.239879	0.346728	-1.224026
H	-2.967181	0.0	0.0
