12

C	0.0	0.0	0.0
C	-0.554066	0.143034	-1.405878
F	1.378929	0.0	0.0
H	0.147212	0.784753	-1.953858
H	-0.345921	0.839629	0.608624
H	-1.533736	0.617741	-1.28013
C	-0.408832	-1.24545	0.675967
N	-0.540779	-2.244892	1.276681
N	-0.654265	-1.163325	-2.0654
H	-0.833915	-1.00005	-3.05038
H	-1.513382	-1.573153	-1.690743
H	-3.032897	0.0	0.0
