12

C	0.0	0.0	0.0
C	-0.284862	0.119569	-1.524986
F	1.383797	0.0	0.0
H	0.470836	0.858257	-1.824108
H	-0.378505	0.855737	0.559333
H	0.053919	-0.83775	-1.946655
C	-0.42444	-1.252917	0.638134
N	-0.586553	-2.278057	1.189914
N	-1.601611	0.528738	-1.973074
H	-2.266936	0.426186	-1.155343
H	-1.943041	-0.173171	-2.619514
H	-3.081781	0.0	0.0
