12

C	0.0	0.0	0.0
C	-0.52985	-0.196034	-1.423247
F	1.383657	0.0	0.0
H	0.350412	-0.346095	-2.059882
H	-0.349367	0.95385	0.392733
H	-1.152151	-1.097448	-1.443926
C	-0.386609	-1.088269	0.921663
N	-0.501623	-1.97014	1.689183
N	-1.256973	1.005446	-1.823944
H	-2.11132	0.919978	-1.23175
H	-1.56701	0.86897	-2.784793
H	-2.95479	0.0	0.0
