12

C	0.0	0.0	0.0
C	-0.451395	-0.096344	-1.486734
F	1.383594	0.0	0.0
H	0.421853	-0.523456	-1.994524
H	-0.373448	0.890756	0.504551
H	-0.570803	0.929927	-1.848842
C	-0.391513	-1.200126	0.762513
N	-0.551585	-2.187043	1.377687
N	-1.636363	-0.850228	-1.814539
H	-1.491901	-1.817079	-1.53806
H	-2.4142	-0.50234	-1.198121
H	-3.332657	0.0	0.0
