12

C	0.0	0.0	0.0
C	-0.382319	0.023254	-1.47938
F	1.388634	0.0	0.0
H	-1.466325	-0.069204	-1.524887
H	-0.379663	0.878192	0.520659
H	0.101982	-0.841333	-1.947957
C	-0.435934	-1.22448	0.691914
N	-0.485491	-2.264015	1.24119
N	0.066065	1.24064	-2.152991
H	-0.523873	2.003057	-1.837486
H	1.012949	1.447418	-1.854162
H	-2.761896	0.0	0.0
