12

C	0.0	0.0	0.0
C	-0.441909	-0.011727	-1.456248
F	1.388479	0.0	0.0
H	0.00321	-0.891594	-1.934351
H	-0.369329	0.894316	0.503297
H	-1.532357	-0.094586	-1.431521
C	-0.422692	-1.192007	0.756633
N	-0.511975	-2.180843	1.385932
N	-0.028622	1.191102	-2.175627
H	-0.61526	1.957048	-1.862652
H	0.928084	1.415587	-1.923493
H	-2.923506	0.0	0.0
