12

C	0.0	0.0	0.0
C	-0.387131	0.062749	-1.473866
F	1.388813	0.0	0.0
H	-1.468867	0.168239	-1.508757
H	-0.384481	0.854885	0.554926
H	0.106303	0.953924	-1.880385
C	-0.406323	-1.241085	0.683082
N	-0.565747	-2.203409	1.338087
N	0.051322	-1.105587	-2.241202
H	-0.545482	-1.886832	-1.980932
H	0.998878	-1.348563	-1.957333
H	-2.801074	0.0	0.0
