15

C	0.0	0.0	0.0
C	-0.526366	0.011809	-1.463187
Cl	1.748447	0.0	0.0
H	-1.634082	0.047122	-1.400992
H	-0.254334	0.921693	0.504513
N	-0.737597	-1.057313	0.722937
O	-0.863351	-2.204406	0.09581
O	-0.551921	-1.002979	1.975794
N	-0.280588	-1.156871	-2.32292
O	0.787633	-1.749568	-2.276024
O	-1.252881	-1.46615	-3.024011
N	-0.173064	1.261506	-2.124634
O	0.24444	1.21724	-3.289336
O	-0.541933	2.284677	-1.533389
H	-1.998772	0.0	0.0
