19

C	0.0	0.0	0.0
C	-0.340205	-0.067478	-1.499012
F	1.416828	0.0	0.0
H	0.365559	-0.824589	-1.891836
C	-0.500947	1.244635	0.689061
H	-0.160875	1.245779	1.729999
H	-1.596139	1.227903	0.664959
H	-0.144184	2.141714	0.183609
C	-0.451949	-1.25486	0.713645
H	-1.543405	-1.262295	0.771704
H	-0.114168	-2.142956	0.1727
H	-0.025643	-1.268325	1.722622
N	-0.022738	1.24812	-2.11038
H	0.973858	1.403509	-1.972356
H	-0.157302	1.15178	-3.112861
N	-1.678464	-0.521976	-1.73731
H	-1.997891	-0.228143	-2.653274
H	-2.399023	-0.208832	-1.044464
H	-3.676075	0.0	0.0
