19

C	0.0	0.0	0.0
C	-0.519972	-0.105295	-1.433636
F	1.406293	0.0	0.0
H	-1.555697	-0.458695	-1.329313
C	-0.472296	1.262041	0.68368
H	-0.05606	2.140817	0.186899
H	-0.143227	1.258066	1.727137
H	-1.569523	1.267323	0.647729
C	-0.44686	-1.226489	0.770054
H	-0.116375	-2.126499	0.247941
H	-0.011576	-1.209081	1.77443
H	-1.540719	-1.20578	0.833782
N	0.265435	-1.093442	-2.152955
H	-0.174189	-1.281597	-3.046344
H	1.179113	-0.689128	-2.326757
N	-0.490502	1.209129	-2.112354
H	-1.247145	1.754849	-1.702927
H	-0.788396	1.034262	-3.068639
H	-3.444807	0.0	0.0
