19

C	0.0	0.0	0.0
C	-0.343139	-0.162963	-1.491007
F	1.416899	0.0	0.0
H	0.365764	-0.939381	-1.838462
C	-0.500619	1.286836	0.608242
H	-1.595892	1.270132	0.584242
H	-0.161191	1.353904	1.647312
H	-0.143105	2.149294	0.046865
C	-0.451569	-1.205936	0.79431
H	-1.542559	-1.208056	0.856331
H	-0.118145	-2.127603	0.310378
H	-0.021752	-1.15526	1.80035
N	-0.039329	1.113959	-2.18298
H	-0.195501	0.960124	-3.17495
H	0.958975	1.281039	-2.073584
N	-1.678352	-0.642299	-1.693882
H	-2.404332	-0.278968	-1.032576
H	-1.994861	-0.438343	-2.634692
H	-3.687829	0.0	0.0
