19

C	0.0	0.0	0.0
C	-0.34447	0.145903	-1.492751
F	1.416803	0.0	0.0
H	0.36596	0.916176	-1.849571
C	-0.449963	1.215443	0.780713
H	-0.019769	1.175277	1.78715
H	-0.115284	2.131019	0.286168
H	-1.54087	1.220382	0.843481
C	-0.499373	-1.279663	0.624096
H	-0.142327	-2.148499	0.072278
H	-1.594687	-1.2643	0.601639
H	-0.158264	-1.334229	1.663452
N	-1.678787	0.625156	-1.698579
H	-2.406431	0.269785	-1.034554
H	-1.99561	0.421687	-2.639607
N	-0.042495	-1.139971	-2.169973
H	-0.202744	-0.998734	-3.163223
H	0.956782	-1.30381	-2.061779
H	-3.689425	0.0	0.0
