19

C	0.0	0.0	0.0
C	-0.45515	-0.102833	-1.456664
F	1.421919	0.0	0.0
H	-1.546645	-0.216933	-1.403551
C	-0.479551	1.273664	0.65371
H	-0.170066	1.290622	1.70291
H	-1.577744	1.266658	0.595759
H	-0.070585	2.158614	0.158821
C	-0.46815	-1.202415	0.788938
H	-1.565979	-1.180165	0.783904
H	-0.113244	-2.122884	0.325244
H	-0.098852	-1.13832	1.818105
N	0.140511	-1.292198	-2.056294
H	-0.096206	-1.26264	-3.041777
H	1.14932	-1.191819	-1.994156
N	-0.170198	1.090031	-2.267821
H	0.743552	1.449348	-2.008036
H	-0.85359	1.80411	-2.038116
H	-3.414122	0.0	0.0
