19

C	0.0	0.0	0.0
C	-0.342235	-0.118466	-1.509102
F	1.413208	0.0	0.0
H	-0.043585	0.855968	-1.939055
C	-0.494314	1.29814	0.588612
H	-1.589656	1.286461	0.590659
H	-0.13363	2.144712	-0.003086
H	-0.131946	1.409291	1.615526
C	-0.468083	-1.195647	0.796946
H	-0.082403	-1.130284	1.819573
H	-0.10397	-2.121141	0.344944
H	-1.561963	-1.205971	0.817942
N	-1.718041	-0.466344	-1.727869
H	-2.415628	-0.211686	-0.988799
H	-2.046295	-0.080431	-2.603616
N	0.470154	-1.1273	-2.212907
H	-0.008034	-2.008071	-2.058022
H	1.395482	-1.17105	-1.801024
H	-3.683541	0.0	0.0
