19

C	0.0	0.0	0.0
C	-0.340066	0.079436	-1.513071
F	1.413202	0.0	0.0
H	-0.042848	-0.906516	-1.915469
C	-0.46663	1.215821	0.766351
H	-1.560295	1.224238	0.79384
H	-0.10689	2.129436	0.287689
H	-0.074692	1.1785	1.788093
C	-0.492862	-1.282757	0.622425
H	-1.588153	-1.2733	0.621796
H	-0.128591	-2.144116	0.054678
H	-0.132232	-1.364817	1.652683
N	0.47657	1.067008	-2.24025
H	-0.00167	1.952094	-2.116097
H	1.398395	1.12255	-1.822777
N	-1.716109	0.420449	-1.74701
H	-2.409916	0.194523	-0.994568
H	-2.046356	-0.015386	-2.597683
H	-3.672326	0.0	0.0
