19

C	0.0	0.0	0.0
C	-0.504933	-0.020316	-1.448665
F	1.407307	0.0	0.0
H	-1.566498	-0.296367	-1.371662
C	-0.47072	1.232044	0.736613
H	-0.148798	1.187651	1.781999
H	-1.567607	1.24313	0.692565
H	-0.046413	2.1251	0.273905
C	-0.458091	-1.251535	0.721791
H	-0.102837	-2.150492	0.208914
H	-0.058153	-1.260373	1.740297
H	-1.555164	-1.238179	0.748175
N	0.19244	-0.986764	-2.292383
H	1.175726	-0.959706	-2.043921
H	-0.153605	-1.914823	-2.085523
N	-0.334393	1.293443	-2.083574
H	-1.101173	1.8779	-1.762692
H	-0.493716	1.126214	-3.071737
H	-3.422789	0.0	0.0
