19

C	0.0	0.0	0.0
C	-0.34373	-0.036739	-1.510164
F	1.413675	0.0	0.0
H	0.424209	-0.705855	-1.930008
C	-0.499729	1.22313	0.728775
H	-0.090462	2.138739	0.296536
H	-0.197571	1.174479	1.77926
H	-1.595024	1.230694	0.672545
C	-0.446603	-1.270023	0.692655
H	-0.126455	-2.144814	0.121596
H	-1.536568	-1.27497	0.769489
H	-0.000809	-1.312459	1.692647
N	-0.137811	1.251005	-2.200768
H	0.774644	1.619412	-1.943195
H	-0.841784	1.899149	-1.861207
N	-1.645072	-0.58876	-1.752546
H	-2.386197	-0.285264	-1.082676
H	-1.935974	-0.336483	-2.689733
H	-3.640861	0.0	0.0
