17

C	0.0	0.0	0.0
C	-0.38694	0.206752	-1.512571
Cl	1.789408	0.0	0.0
H	-1.39193	0.615491	-1.504104
N	-0.634901	1.10734	0.77734
O	-0.637712	2.219801	0.193239
O	-0.625261	0.974405	2.018254
C	-0.445796	-1.267232	0.561656
N	-0.5511	-2.356057	1.002376
N	-0.518831	-1.127538	-2.180513
O	0.502499	-1.805153	-2.299458
O	-1.62745	-1.443278	-2.611598
C	0.536689	1.058314	-2.363239
H	0.682756	2.01156	-1.860228
H	1.495175	0.579319	-2.543923
H	0.03915	1.233732	-3.322348
H	-2.061448	0.0	0.0
