16

C	-0.55086	-0.061993	-1.410045
C	0.0	0.0	0.0
Cl	0.156165	1.248489	-2.40615
H	1.096988	0.0	0.0
H	-1.627895	0.109901	-1.387412
C	-0.203363	-1.395676	-2.049283
H	-0.497891	-1.39703	-3.099993
H	0.874366	-1.564172	-1.987938
H	-0.73778	-2.2014	-1.540792
N	-0.511825	-1.134022	0.785095
H	0.088138	-1.918976	0.547914
H	-0.271335	-0.920628	1.749936
N	-0.479305	1.218826	0.735052
O	-1.277078	1.981113	0.192839
O	-0.055524	1.349844	1.882142
Br	3.49573	0.0	0.0
