16

C	-0.560555	-0.077295	-1.417792
C	0.0	0.0	0.0
Cl	-0.411033	1.492675	-2.273045
H	1.090851	0.0	0.0
H	-1.634672	-0.274706	-1.355511
C	0.175073	-1.152348	-2.193464
H	-0.207259	-1.218508	-3.214364
H	1.242494	-0.920631	-2.213278
H	0.03661	-2.109469	-1.687968
N	-0.445303	-1.158199	0.722353
H	-1.385417	-1.011878	1.069301
H	0.187414	-1.336507	1.491946
N	-0.510239	1.269625	0.652727
O	0.259007	2.203754	0.834008
O	-1.711125	1.269661	0.949754
Br	3.539861	0.0	0.0
