16

C	-0.354293	0.003911	-1.488743
C	0.0	0.0	0.0
Cl	-2.141854	-0.106531	-1.742791
H	1.092311	0.0	0.0
H	0.042661	-0.94099	-1.866236
C	0.225995	1.157988	-2.27833
H	0.081138	0.988088	-3.347378
H	1.295024	1.218163	-2.05554
H	-0.242174	2.102582	-2.004005
N	-0.45559	-1.110957	0.769883
H	-1.372842	-1.430138	0.487841
H	0.227262	-1.854904	0.717192
N	-0.502505	1.274537	0.621241
O	-1.560848	1.226114	1.245522
O	0.152319	2.29612	0.418914
Br	3.487766	0.0	0.0
