16

C	-0.520961	0.00567	-1.435219
C	0.0	0.0	0.0
Cl	-0.001242	-1.528964	-2.215067
H	1.100591	0.0	0.0
H	-0.003892	0.794366	-1.97767
C	-2.027615	0.131535	-1.541032
H	-2.344852	1.099285	-1.145546
H	-2.34026	0.06873	-2.585314
H	-2.508398	-0.662789	-0.970652
N	-0.585102	-1.071215	0.78387
H	-0.28687	-0.937329	1.743455
H	-0.141978	-1.924504	0.459867
N	-0.378571	1.30987	0.628593
O	-0.703106	1.313403	1.814353
O	-0.286442	2.315414	-0.074466
Br	3.482326	0.0	0.0
