16

C	-0.358967	0.007701	-1.487238
C	0.0	0.0	0.0
Cl	-2.148765	-0.102784	-1.729495
H	1.09228	0.0	0.0
H	0.03579	-0.935953	-1.870021
C	0.214144	1.164914	-2.278685
H	-0.256846	2.10697	-2.000438
H	1.284292	1.228916	-2.059835
H	0.06467	0.996626	-3.347805
N	-0.452517	-1.1123	0.769853
H	0.229544	-1.854824	0.715266
H	-1.369281	-1.431426	0.490314
N	-0.503711	1.273009	0.624633
O	-1.559433	1.22497	1.251568
O	0.149756	2.295229	0.42361
Br	3.492725	0.0	0.0
