16

C	-0.540164	-0.062425	-1.423057
C	0.0	0.0	0.0
Cl	-0.135029	1.445758	-2.310557
H	1.090766	0.0	0.0
H	-1.634295	-0.093166	-1.381192
C	0.040004	-1.256307	-2.160287
H	1.132026	-1.213322	-2.127422
H	-0.293937	-2.185176	-1.688979
H	-0.293644	-1.2604	-3.199758
N	-0.434166	-1.099504	0.820727
H	0.275269	-1.81394	0.845135
H	-1.328127	-1.47559	0.544228
N	-0.533985	1.24807	0.65526
O	0.249858	2.080097	1.091798
O	-1.765182	1.31814	0.727461
Br	3.536262	0.0	0.0
