16

C	-0.514013	0.012554	-1.442928
C	0.0	0.0	0.0
Cl	0.203553	-1.362113	-2.326429
H	1.09066	0.0	0.0
H	-0.124931	0.911416	-1.918488
C	-2.024697	-0.064672	-1.540373
H	-2.34482	-0.01729	-2.583037
H	-2.370898	-1.011309	-1.122506
H	-2.493254	0.763003	-1.000945
N	-0.502912	-1.079827	0.774071
H	-1.397937	-0.846048	1.182472
H	0.153416	-1.285022	1.515707
N	-0.422813	1.36586	0.554442
O	-1.273683	1.392804	1.448318
O	0.074482	2.359991	0.036596
Br	3.491449	0.0	0.0
