16

C	-0.536414	-0.022868	-1.426853
C	0.0	0.0	0.0
Cl	-0.022359	-1.573484	-2.179224
H	1.100597	0.0	0.0
H	-0.028198	0.753617	-1.993902
C	-2.044151	0.099809	-1.517159
H	-2.371301	0.008242	-2.554271
H	-2.514379	-0.679255	-0.919046
H	-2.356945	1.076935	-1.143683
N	-0.579312	-1.054199	0.812503
H	-0.122558	-1.913303	0.518577
H	-0.286458	-0.884939	1.767939
N	-0.362399	1.325416	0.609153
O	-0.31614	2.315052	-0.11983
O	-0.616556	1.35837	1.810311
Br	3.477752	0.0	0.0
