17

C	0.0	0.0	0.0
C	-0.42744	-0.01924	-1.497529
F	1.363831	0.0	0.0
H	0.006531	-0.894418	-1.993526
N	-0.445692	1.261642	0.672644
O	-1.758703	1.30375	0.662704
O	0.204356	1.634451	1.694409
C	-0.458419	-1.207883	0.800474
H	-0.187752	-2.115442	0.255799
H	0.067246	-1.167888	1.758185
H	-1.535586	-1.233618	0.989205
C	0.16908	1.183151	-2.15303
N	1.219194	1.544025	-2.575753
N	-1.896967	-0.080354	-1.640107
O	-2.328569	0.511285	-2.706069
O	-2.452133	-1.178024	-1.211111
H	-1.653307	0.0	0.0
