17

C	0.0	0.0	0.0
C	-0.414195	-0.015961	-1.479479
F	1.364256	0.0	0.0
H	-0.092145	-0.979029	-1.937221
N	-0.391518	1.351579	0.545946
O	0.320187	1.74678	1.537492
O	-1.708896	1.573628	0.539813
C	-0.442862	-1.207773	0.821777
H	-0.199313	-2.150463	0.315169
H	-1.530807	-1.201251	1.006634
H	0.047157	-1.127216	1.79482
C	0.267372	1.132419	-2.113467
N	0.491405	2.27676	-2.323727
N	-1.869167	0.092372	-1.697466
O	-2.207218	0.780862	-2.701137
O	-2.652106	-0.811459	-1.153127
H	-1.609872	0.0	0.0
