15

C	-0.714793	0.029486	-1.520865
C	0.140763	0.031488	-0.25179
Br	-0.199755	-1.419464	-2.762262
H	1.19479	0.15738	-0.544577
H	-1.740169	-0.208784	-1.231016
C	-0.668723	1.273699	-2.278988
N	-0.63227	2.285916	-2.875333
N	-0.115666	-1.18222	0.49831
H	0.358687	-1.949587	0.031039
H	0.418998	-1.001774	1.40098
C	-0.24954	1.219386	0.623611
H	0.335657	1.068631	1.541324
H	-1.317804	1.169983	0.862059
H	-0.020574	2.178734	0.150975
F	1.354275	-0.301549	2.438703
