15

C	-0.643652	0.152076	-1.601671
C	0.090262	0.080975	-0.259291
Br	-0.402603	1.873947	-2.541386
H	1.149542	0.275691	-0.451521
H	-0.216779	-0.602066	-2.262543
C	-2.076016	-0.086561	-1.465397
N	-3.226856	-0.290597	-1.342929
N	0.009707	-1.309609	0.16529
H	-0.871234	-1.424717	0.663104
H	0.774288	-1.304452	0.915594
C	-0.38038	1.071258	0.795363
H	0.257538	0.838599	1.652414
H	-0.255589	2.116164	0.494209
H	-1.433787	0.898225	1.047235
F	1.785749	-0.667377	1.883422
