15

C	-0.093373	0.133412	-1.401636
C	0.061439	0.238803	0.130858
Br	0.470204	1.785514	-2.330325
H	1.107551	0.524229	0.279927
H	0.634557	-0.691983	-1.673292
C	-1.459094	-0.160431	-1.788777
N	-2.575384	-0.419566	-2.058175
N	-0.097775	-1.083654	0.716188
H	0.553804	-1.672139	0.159182
H	-1.045532	-1.406017	0.536337
C	-0.866669	1.250117	0.779783
H	-1.911777	0.963912	0.620265
H	-0.680631	1.266591	1.856271
H	-0.721461	2.253974	0.374145
F	1.591435	-1.874778	-1.183186
