14

C	-0.29904	-0.091206	-1.498966
C	0.0	0.0	0.0
F	-0.162092	1.199229	-2.062938
H	1.09784	0.0	0.0
H	-1.340594	-0.37174	-1.714107
N	0.605114	-1.027636	-2.051524
H	0.574446	-1.008388	-3.062319
H	1.549091	-0.809357	-1.716089
N	-0.401184	-1.188043	0.749634
H	-1.238797	-1.59319	0.344822
H	0.34889	-1.861542	0.638787
C	-0.573119	1.202123	0.59272
N	-1.05877	2.158572	1.072245
H	2.795703	0.0	0.0
