14

C	-0.357308	-0.114043	-1.474549
C	0.0	0.0	0.0
F	-0.196845	1.150863	-2.075872
H	1.103544	0.0	0.0
H	-1.410411	-0.376811	-1.633586
N	0.502984	-1.097023	-2.027215
H	0.408992	-1.145767	-3.034091
H	1.468298	-0.87498	-1.763077
N	-0.504398	-1.202597	0.698999
H	0.029195	-1.259568	1.560656
H	-0.16465	-1.975546	0.132141
C	-0.553991	1.2012	0.608452
N	-0.978801	2.164139	1.130378
H	2.837734	0.0	0.0
