14

C	-0.332116	0.002754	-1.47216
C	0.0	0.0	0.0
F	-1.715539	0.088375	-1.69209
H	1.095863	0.0	0.0
H	-0.044401	-0.978105	-1.869611
N	0.303781	1.12689	-2.090264
H	1.249604	1.188563	-1.709547
H	0.375529	0.975291	-3.089949
N	-0.457706	-1.224376	0.646975
H	-1.416072	-1.123673	0.958765
H	0.129374	-1.386452	1.45661
C	-0.478289	1.217924	0.660314
N	-0.847737	2.151117	1.272936
H	2.772566	0.0	0.0
