14

C	-0.512262	0.021672	-1.429018
C	0.0	0.0	0.0
F	-0.003339	-1.141566	-2.052718
H	1.099186	0.0	0.0
H	-0.088561	0.861213	-1.985419
N	-1.931615	0.040879	-1.469808
H	-2.259411	-0.147937	-2.408615
H	-2.26084	-0.682538	-0.840243
N	-0.51228	-1.23375	0.646478
H	0.096393	-1.967527	0.289754
H	-0.286559	-1.159209	1.633038
C	-0.478545	1.171973	0.721816
N	-0.827853	2.104576	1.344763
H	2.813757	0.0	0.0
