14

C	-0.488141	0.003676	-1.439066
C	0.0	0.0	0.0
F	0.003354	-1.189081	-2.027005
H	1.099118	0.0	0.0
H	-0.026125	0.81543	-2.00411
N	-1.903592	0.059124	-1.513172
H	-2.214325	-0.125086	-2.458937
H	-2.269738	-0.650651	-0.888217
N	-0.534145	-1.216142	0.658492
H	0.054953	-1.966711	0.304817
H	-0.300101	-1.140357	1.643715
C	-0.476848	1.191669	0.692004
N	-0.810023	2.152172	1.28147
H	2.825308	0.0	0.0
