14

C	-0.301487	-0.188727	-1.488735
C	0.0	0.0	0.0
F	-0.148182	1.059796	-2.136952
H	1.095386	0.0	0.0
H	-1.346104	-0.469287	-1.686492
N	0.590734	-1.170513	-1.97877
H	0.558058	-1.216	-2.989047
H	1.53751	-0.940232	-1.659406
N	-0.399688	-1.138799	0.824516
H	0.368273	-1.800457	0.786799
H	-1.213674	-1.592564	0.423879
C	-0.574154	1.237685	0.513619
N	-1.055817	2.222943	0.935682
H	2.793972	0.0	0.0
