13

C	-0.215794	0.055686	-1.481347
C	0.0	0.0	0.0
Br	-2.088505	0.350871	-2.080281
H	1.093258	0.0	0.0
H	-0.326423	-0.97515	0.369481
N	0.566203	1.227632	-2.096525
O	1.089371	1.029382	-3.183324
O	0.551059	2.269781	-1.467826
C	0.238142	-1.178729	-2.108908
N	0.542227	-2.210084	-2.581982
C	-0.615706	1.054559	0.768156
N	-1.112465	1.865718	1.459766
F	2.464534	0.0	0.0
