13

C	-0.382228	0.045013	-1.462242
C	0.0	0.0	0.0
Br	0.251121	-1.518915	-2.407853
H	1.092764	0.0	0.0
H	-0.324973	0.937894	0.46292
N	-1.922799	0.140903	-1.598593
O	-2.37646	1.259425	-1.372701
O	-2.567946	-0.873586	-1.811164
C	0.171161	1.22991	-2.109717
N	0.587305	2.186444	-2.650992
C	-0.580169	-1.129669	0.689868
N	-1.032966	-2.037824	1.284725
F	2.477409	0.0	0.0
