13

C	-0.487569	0.009271	-1.42938
C	0.0	0.0	0.0
Br	0.446309	1.402185	-2.425432
H	1.091154	0.0	0.0
H	-0.300166	0.950771	0.454015
N	-0.159853	-1.31945	-2.139933
O	-0.822323	-1.568453	-3.143395
O	0.740901	-1.990838	-1.666998
C	-1.921596	0.236329	-1.582926
N	-3.075468	0.462917	-1.628018
C	-0.591974	-1.097917	0.738091
N	-1.066879	-1.984222	1.348177
F	2.494791	0.0	0.0
