16

C	0.0	0.0	0.0
C	-0.260817	-0.050492	-1.534935
Cl	1.756661	0.0	0.0
H	0.4193	0.68071	-1.967244
H	-0.315094	-0.875359	0.549999
N	-0.679475	1.164731	0.577429
O	-0.671203	2.196395	-0.159197
O	-0.688196	1.22616	1.831335
C	-1.619413	0.156422	-2.190014
H	-2.30475	-0.662514	-1.986708
H	-1.440569	0.236899	-3.271988
H	-2.037525	1.089303	-1.820563
N	0.241661	-1.372308	-2.043596
O	-0.062009	-2.388672	-1.42119
O	0.868519	-1.365114	-3.103589
H	-2.051243	0.0	0.0
