16

C	0.0	0.0	0.0
C	-0.26546	-0.048665	-1.534469
Cl	1.756569	0.0	0.0
H	0.418584	0.677888	-1.968665
H	-0.314243	-0.875294	0.550972
N	-0.679126	1.165364	0.578565
O	-0.671269	2.197164	-0.158091
O	-0.68964	1.227329	1.832543
C	-1.625805	0.169865	-2.182973
H	-2.315679	-0.646955	-1.985111
H	-1.450908	0.258447	-3.26475
H	-2.036709	1.102331	-1.804075
N	0.226367	-1.373493	-2.04613
O	0.835038	-1.370779	-3.117419
O	-0.068759	-2.387543	-1.415652
H	-2.049977	0.0	0.0
