16

C	0.0	0.0	0.0
C	-0.262289	-0.039956	-1.534946
Cl	1.756716	0.0	0.0
H	0.422983	0.687632	-1.964719
H	-0.316308	-0.877618	0.545554
N	-0.672078	1.164827	0.58647
O	-0.663554	2.199569	-0.14424
O	-0.679965	1.218009	1.840127
C	-1.619913	0.18149	-2.187516
H	-2.035087	1.111448	-1.807319
H	-2.309466	-0.635569	-1.993314
H	-1.441843	0.2734	-3.269307
N	0.231347	-1.3629	-2.050548
O	0.844668	-1.355685	-3.119165
O	-0.065837	-2.379363	-1.425155
H	-2.056767	0.0	0.0
