19

C	-0.527321	-0.029886	-1.435882
C	0.0	0.0	0.0
Br	0.287739	-1.526052	-2.437479
H	1.094329	0.0	0.0
N	-1.960235	-0.321478	-1.43879
H	-2.4256	0.415912	-0.916257
H	-2.299412	-0.28819	-2.394865
N	-0.109169	1.159459	-2.157013
H	-0.599866	1.96136	-1.776291
H	-0.345373	1.070102	-3.138651
C	-0.471468	-1.199714	0.817248
H	-0.245746	-2.13528	0.303751
H	-1.547489	-1.169052	1.010835
H	0.06324	-1.206335	1.770893
C	-0.400669	1.305087	0.702568
H	-1.487177	1.458998	0.752957
H	-0.032058	1.267052	1.730159
H	0.071915	2.170938	0.234995
Cl	3.610279	0.0	0.0
