19

C	-0.357726	-0.095858	-1.491824
C	0.0	0.0	0.0
Br	-0.076399	1.785002	-2.332147
H	1.095458	0.0	0.0
N	0.52762	-0.925383	-2.260668
H	0.373591	-1.883196	-1.962192
H	1.487665	-0.67794	-2.023039
N	-1.685417	-0.526448	-1.729881
H	-1.859113	-0.526945	-2.727669
H	-2.348141	0.086448	-1.273903
C	-0.422441	-1.299995	0.697586
H	-0.096632	-2.183971	0.147219
H	0.05491	-1.337067	1.679985
H	-1.506769	-1.362152	0.826744
C	-0.547824	1.194402	0.766582
H	-1.642508	1.25733	0.702552
H	-0.284522	1.089987	1.82332
H	-0.125562	2.130794	0.406397
Cl	3.496315	0.0	0.0
