17

C	-0.532193	-0.016679	-1.429662
C	0.0	0.0	0.0
F	-0.217619	1.173575	-2.074581
H	1.09967	0.0	0.0
C	0.112411	-1.095493	-2.230946
N	0.49254	-1.98702	-2.895111
N	-1.963571	-0.159885	-1.426477
H	-2.156394	-0.88729	-0.74261
H	-2.289921	-0.467266	-2.335336
N	-0.46171	-1.255397	0.634633
H	0.34601	-1.872925	0.66495
H	-0.696802	-1.057015	1.599109
C	-0.497073	1.219506	0.751088
H	0.039765	1.276659	1.702334
H	-1.574908	1.180037	0.937108
H	-0.273938	2.12701	0.189734
H	2.895594	0.0	0.0
