17

C	-0.564008	0.030308	-1.411791
C	0.0	0.0	0.0
F	-2.002024	0.180918	-1.309886
H	1.094431	0.0	0.0
C	-0.157775	1.22869	-2.175078
N	0.102248	2.186838	-2.800723
N	-0.239384	-1.139456	-2.116831
H	-0.357509	-1.912846	-1.470041
H	-0.811294	-1.24045	-2.945103
N	-0.360847	-1.295259	0.589898
H	0.456414	-1.618959	1.099884
H	-1.133321	-1.196001	1.237295
C	-0.460704	1.193548	0.819749
H	-1.542691	1.180516	0.988658
H	-0.197074	2.134237	0.328453
H	0.059105	1.171159	1.781346
H	2.856698	0.0	0.0
