17

C	-0.534526	0.009214	-1.42865
C	0.0	0.0	0.0
F	-0.223683	1.213115	-2.049108
H	1.096131	0.0	0.0
C	0.11759	-1.051527	-2.247399
N	0.51263	-1.938148	-2.90933
N	-1.962234	-0.141948	-1.42508
H	-2.294832	-0.448085	-2.331898
H	-2.154243	-0.863325	-0.734633
N	-0.466232	-1.265955	0.614184
H	-0.583051	-1.102706	1.607887
H	0.311202	-1.918499	0.537198
C	-0.502148	1.200941	0.776215
H	0.033847	1.240218	1.730331
H	-1.5806	1.152778	0.960282
H	-0.279341	2.120307	0.233852
H	2.905529	0.0	0.0
