17

C	-0.512955	-0.025276	-1.434667
C	0.0	0.0	0.0
F	0.140931	1.008305	-2.141073
H	1.100573	0.0	0.0
C	-0.144113	-1.280188	-2.127526
N	0.109641	-2.254884	-2.728534
N	-1.926673	0.125047	-1.545856
H	-2.179452	0.25389	-2.518302
H	-2.219164	0.935256	-1.016947
N	-0.479537	-1.213803	0.688937
H	0.255768	-1.908689	0.576225
H	-0.490234	-1.010347	1.682292
C	-0.458957	1.252626	0.724088
H	-0.324842	2.136407	0.096771
H	0.174621	1.385642	1.605353
H	-1.50403	1.184361	1.050855
H	2.925329	0.0	0.0
