17

C	-0.564407	-0.026044	-1.418116
C	0.0	0.0	0.0
F	-0.174793	1.118929	-2.092085
H	1.100391	0.0	0.0
C	-0.035791	-1.196952	-2.160776
N	0.329961	-2.14413	-2.748467
N	-2.014445	-0.08517	-1.506197
H	-2.356795	0.795411	-1.133637
H	-2.284744	-0.814394	-0.849933
N	-0.482134	-1.24364	0.642251
H	-0.619807	-1.055734	1.629842
H	0.291499	-1.904979	0.597453
C	-0.47278	1.224161	0.75928
H	0.117638	1.306237	1.676168
H	-0.296383	2.130676	0.177445
H	-1.534738	1.168277	1.029199
H	2.903108	0.0	0.0
