17

C	0.0	0.0	0.0
C	-0.725666	-0.105696	-1.322882
Br	1.966551	0.0	0.0
H	-1.867261	-0.252525	-0.853331
C	-0.447281	1.283585	0.694516
H	-0.055217	1.321193	1.711218
H	-1.546055	1.245548	0.712808
H	-0.101165	2.156652	0.140616
C	-0.333016	-1.114602	0.904909
N	-0.529404	-1.923389	1.733697
N	-0.272476	-1.288477	-2.077479
O	-0.298107	-2.369494	-1.474911
O	0.103145	-1.15963	-3.24733
N	-0.789728	1.043377	-2.145798
H	0.074	1.567302	-2.200865
H	-1.558553	1.626323	-1.838343
H	-2.941964	0.0	0.0
