17

C	0.0	0.0	0.0
C	-0.670858	-0.107759	-1.372905
Br	1.960924	0.0	0.0
H	-1.752005	-0.304869	-1.050076
C	-0.496687	1.26708	0.682277
H	-0.135589	1.307351	1.711291
H	-0.151514	2.150353	0.142975
H	-1.597875	1.189161	0.660176
C	-0.340206	-1.142491	0.863808
N	-0.517192	-1.998743	1.650581
N	-0.125875	-1.286944	-2.111362
O	-0.376877	-2.391586	-1.627214
O	0.550199	-1.098408	-3.122853
N	-0.651321	1.043762	-2.200937
H	0.236244	1.528435	-2.199004
H	-1.408853	1.653409	-1.919317
H	-3.077919	0.0	0.0
