18

C	-0.043394	-0.058552	-1.524992
C	0.0	0.0	0.0
F	-1.354874	-0.175899	-2.020804
H	1.098269	0.0	0.0
N	0.516969	1.14575	-2.106595
H	0.046406	1.917656	-1.644265
H	1.465268	1.152202	-1.727992
N	0.718897	-1.213427	-1.930812
H	0.929368	-1.085849	-2.913744
H	1.604521	-1.121424	-1.417233
C	-0.610403	-1.208697	0.68025
H	-0.220347	-2.131684	0.250564
H	-0.384197	-1.195494	1.752014
H	-1.701932	-1.212588	0.556454
N	-0.510822	1.28263	0.491607
H	-1.440892	1.157467	0.874635
H	0.092669	1.592985	1.242094
F	2.74206	0.0	0.0
