18

C	0.028232	-0.009217	-1.530858
C	0.0	0.0	0.0
F	-1.227688	0.033878	-2.154061
H	1.100196	0.0	0.0
N	0.73592	1.202129	-1.926156
H	0.91323	1.149746	-2.924819
H	1.64058	1.105093	-1.445549
N	0.674865	-1.244442	-1.942759
H	1.570527	-1.210353	-1.442462
H	0.885642	-1.170685	-2.934429
C	-0.646717	-1.221086	0.613696
H	-0.510263	-1.186494	1.697338
H	-1.725254	-1.23361	0.4067
H	-0.215885	-2.141034	0.220265
N	-0.556925	1.221365	0.577349
H	-1.44806	1.398319	0.117702
H	0.046705	1.984806	0.296095
F	2.76433	0.0	0.0
