18

C	-0.04619	-0.054043	-1.524893
C	0.0	0.0	0.0
F	-1.357468	-0.177431	-2.017597
H	1.098283	0.0	0.0
N	0.50506	1.156022	-2.10638
H	0.040969	1.922853	-1.625426
H	1.460695	1.158494	-1.742187
N	0.722933	-1.201625	-1.933875
H	0.93682	-1.068456	-2.917583
H	1.605172	-1.109485	-1.413575
C	-0.603043	-1.216412	0.676312
H	-0.205263	-2.135159	0.244711
H	-0.376649	-1.204228	1.748464
H	-1.694914	-1.229019	0.552704
N	-0.515459	1.276839	0.498128
H	-1.466904	1.155388	0.827851
H	0.050627	1.557504	1.289539
F	2.740487	0.0	0.0
