15

C	-0.485382	-0.008428	-1.447748
C	0.0	0.0	0.0
F	-0.03554	-1.141414	-2.109098
H	1.095947	0.0	0.0
H	-1.584213	-0.057696	-1.458022
C	-0.089111	1.179521	-2.221427
N	0.190621	2.120466	-2.864098
N	-0.420877	-1.212919	0.695331
H	-1.368866	-1.467977	0.437402
H	0.191135	-1.969972	0.417725
C	-0.518733	1.233621	0.720524
H	-0.154302	2.154639	0.26011
H	-0.162204	1.196878	1.749906
H	-1.616229	1.254626	0.737697
Br	3.596083	0.0	0.0
