15

C	-0.484097	0.010757	-1.448164
C	0.0	0.0	0.0
F	-0.041493	-1.119319	-2.120006
H	1.095943	0.0	0.0
H	-1.58334	-0.030062	-1.461205
C	-0.081571	1.204751	-2.209041
N	0.160672	2.174127	-2.824233
N	-0.423324	-1.22166	0.678145
H	-1.385402	-1.447903	0.441594
H	0.163957	-1.984231	0.361775
C	-0.517079	1.223248	0.737045
H	-0.159456	1.173669	1.765584
H	-1.614617	1.245735	0.755242
H	-0.152842	2.150063	0.288404
Br	3.59399	0.0	0.0
