13

C	0.0	0.0	0.0
C	-0.442386	0.055177	-1.445922
Cl	1.783721	0.0	0.0
H	-1.53263	0.167868	-1.44894
H	-0.162788	-0.89942	-1.897453
H	0.051865	0.869963	-1.971767
N	-0.354734	1.367596	0.696682
O	-0.369312	2.384302	0.01386
O	-0.558962	1.319893	1.905222
N	-0.581671	-1.071699	0.67239
H	-1.620766	-0.904205	0.534404
H	-0.375031	-1.004686	1.663656
H	-3.043132	0.0	0.0
