13

C	0.0	0.0	0.0
C	-0.464036	0.21658	-1.413835
Cl	1.835726	0.0	0.0
H	-0.222674	-0.682272	-1.982879
H	0.012015	1.086554	-1.858779
H	-1.555284	0.335895	-1.351765
N	-0.23873	1.33449	0.820532
O	-0.348029	1.205265	2.035559
O	-0.254483	2.401105	0.21903
N	-0.619595	-1.078742	0.594374
H	-0.438456	-1.071337	1.593267
H	-1.665963	-0.857945	0.436433
H	-2.994385	0.0	0.0
