14

C	-0.505311	0.009311	-1.442146
C	0.0	0.0	0.0
F	-0.10322	-1.147985	-2.082932
H	1.09576	0.0	0.0
H	-1.602524	0.017148	-1.456921
C	-0.036242	1.17273	-2.213435
N	0.257878	2.10665	-2.860395
C	-0.466721	-1.262455	0.727675
H	-0.048061	-2.134669	0.22614
H	-1.55848	-1.341375	0.750433
H	-0.09011	-1.247916	1.751266
C	-0.501213	1.200108	0.663354
N	-0.957369	2.13841	1.203932
Br	3.447458	0.0	0.0
