14

C	-0.41101	-0.016959	-1.466757
C	0.0	0.0	0.0
F	-0.009187	1.139577	-2.100445
H	1.095879	0.0	0.0
H	0.086704	-0.858288	-1.957621
C	-1.87206	-0.144631	-1.641456
N	-3.032001	-0.259057	-1.772802
C	-0.460454	-1.270263	0.718179
H	-0.054571	-2.145686	0.204216
H	-1.550104	-1.348857	0.764865
H	-0.058651	-1.271484	1.732182
C	-0.513436	1.19892	0.656722
N	-0.940708	2.143764	1.208904
Br	3.42165	0.0	0.0
