14

C	-0.400296	-0.035379	-1.471017
C	0.0	0.0	0.0
F	-0.102079	1.161486	-2.088972
H	1.095878	0.0	0.0
H	0.181404	-0.821028	-1.9633
C	-1.840113	-0.303393	-1.660226
N	-2.982377	-0.536936	-1.799496
C	-0.440979	-1.274134	0.725385
H	-0.026685	-2.145569	0.211668
H	-0.031732	-1.266454	1.736292
H	-1.528451	-1.367245	0.778943
C	-0.534385	1.191827	0.647682
N	-0.985844	2.122364	1.204226
Br	3.436355	0.0	0.0
