18

C	-0.427677	0.097229	-1.470503
C	0.0	0.0	0.0
F	-1.812391	0.339225	-1.529246
H	1.091823	0.0	0.0
C	0.294092	1.157452	-2.280419
H	-0.015333	2.142204	-1.941773
H	1.369258	1.049507	-2.120366
H	0.050617	1.038336	-3.338317
C	-0.214356	-1.222102	-2.101077
N	-0.08183	-2.268512	-2.617527
C	-0.534168	-1.229016	0.70467
H	-1.615289	-1.336041	0.582274
H	-0.306636	-1.169205	1.768895
H	-0.024938	-2.107596	0.29997
N	-0.461142	1.247389	0.692096
O	-1.330167	1.144295	1.558023
O	0.050746	2.311057	0.348067
Cl	3.28895	0.0	0.0
