18

C	-0.505218	0.002311	-1.45274
C	0.0	0.0	0.0
F	-0.027386	-1.169468	-2.03415
H	1.091106	0.0	0.0
C	-2.019081	-0.01343	-1.594432
H	-2.418102	-0.906677	-1.113544
H	-2.276145	-0.0373	-2.654169
H	-2.466923	0.869318	-1.138063
C	0.02889	1.133282	-2.23485
N	0.308558	2.055545	-2.904475
C	-0.463885	-1.209536	0.785323
H	-1.543938	-1.257086	0.915561
H	-0.104409	-2.102686	0.273918
H	0.004611	-1.179915	1.770232
N	-0.470302	1.268336	0.637676
O	0.149815	2.29406	0.372954
O	-1.472374	1.222733	1.358036
Cl	3.298671	0.0	0.0
