18

C	-0.517556	0.017203	-1.446015
C	0.0	0.0	0.0
F	-0.100209	-1.195511	-2.006221
H	1.093249	0.0	0.0
C	-2.032093	0.05852	-1.581472
H	-2.467405	-0.779143	-1.034239
H	-2.429757	0.998527	-1.201427
H	-2.294638	-0.040477	-2.636453
C	0.082314	1.077682	-2.276607
N	0.47434	1.874397	-3.044773
C	-0.453182	-1.220882	0.781443
H	-1.516639	-1.190182	1.032814
H	-0.238714	-2.111228	0.191481
H	0.122109	-1.275152	1.703654
N	-0.411741	1.239905	0.719495
O	-0.703339	2.235325	0.051281
O	-0.405541	1.210308	1.947164
Cl	3.243032	0.0	0.0
