18

C	-0.522788	-0.001814	-1.447808
C	0.0	0.0	0.0
F	-0.163346	-1.233002	-1.995747
H	1.091098	0.0	0.0
C	-2.036837	0.108634	-1.549112
H	-2.388402	1.058972	-1.144226
H	-2.331149	0.04119	-2.597887
H	-2.498571	-0.71262	-1.000638
C	0.086228	1.035479	-2.302014
N	0.435332	1.834693	-3.088272
C	-0.450706	-1.210002	0.791452
H	0.011917	-1.167605	1.777633
H	-0.080527	-2.101945	0.286001
H	-1.531532	-1.271477	0.920469
N	-0.462822	1.26703	0.641464
O	-0.062303	2.318999	0.146627
O	-1.232528	1.197689	1.602651
Cl	3.272645	0.0	0.0
