17

C	-0.464534	-0.079905	-1.434476
C	0.0	0.0	0.0
F	-1.810735	-0.3565	-1.526458
H	1.094974	0.0	0.0
H	0.087073	-0.825299	-2.008921
N	-0.254201	1.227081	-2.162034
O	-1.165884	2.048956	-2.126718
O	0.832024	1.372198	-2.711323
C	-0.434283	-1.285617	0.707357
H	0.026324	-1.31663	1.697181
H	-1.52064	-1.34281	0.818692
H	-0.091887	-2.169706	0.162571
C	-0.516371	1.238028	0.723085
H	-1.606149	1.316063	0.666078
H	-0.222568	1.181376	1.773679
H	-0.080999	2.151478	0.314331
Cl	3.464177	0.0	0.0
