17

C	-0.534648	0.043609	-1.411539
C	0.0	0.0	0.0
F	-0.069419	1.125249	-2.100654
H	1.096177	0.0	0.0
H	-1.629256	0.06187	-1.441285
N	-0.168026	-1.188022	-2.20915
O	-0.932984	-2.144363	-2.070234
O	0.828607	-1.155383	-2.914602
C	-0.480673	-1.241913	0.744897
H	-0.147304	-1.175483	1.783082
H	-0.059429	-2.155336	0.324349
H	-1.573289	-1.330617	0.734973
C	-0.460125	1.275214	0.707104
H	-0.045941	1.293656	1.717443
H	-1.554304	1.325092	0.779978
H	-0.098921	2.162393	0.185849
Cl	3.478203	0.0	0.0
