10
Coordinates from ORCA-job run
  C   -0.76798053699466     -0.30695738236013      0.18089422947595
  C   0.74965697824662     -0.49003338983367      0.05116378098826
  Cl  -1.57558530315277     -1.85686541251077     -0.17759455265744
  H   0.99847496381484     -0.76499310280280     -0.97664859223095
  H   -1.02717987040037     -0.04485103497383      1.20846356793570
  H   1.06376370167435     -1.30774725304494      0.70446430702712
  C   -1.25997021134553      0.73439740519379     -0.71616084831993
  N   -1.63703451450641      1.57883101754437     -1.43987060184355
  C   1.45461173203404      0.73402626130413      0.42531704221524
  N   2.00124306062988      1.72319289148385      0.74097166740961
