10
Coordinates from ORCA-job run
  C   -0.78852992359001     -0.24715525428988      0.18981646763101
  C   0.72450923046138     -0.50086240410514      0.16936662991442
  Cl  -1.64355589991141     -1.80593843959589      0.04321710693550
  H   1.00663302990507     -0.95154067011705     -0.78534776715912
  H   -1.08278770879697      0.18672235539354      1.14738244688566
  H   0.97528910815825     -1.20839962802284      0.96357892407215
  C   -1.19435985722796      0.65144331178002     -0.88659459052830
  N   -1.50064096729132      1.38055408110948     -1.75465229077027
  C   1.46340007386177      0.74370284406628      0.37076717910450
  N   2.03904291443121      1.75147380378150      0.54346589391446
