10
Coordinates from ORCA-job run
  C   -0.74270988860569     -0.46614426972269     -0.08723368176327
  C   0.63039336040615     -0.32752311530589      0.57881471773082
  Cl  -0.59383489523365     -1.30425798703240     -1.65246160054397
  H   1.06340282067368     -1.32360566913658      0.69995015010194
  H   -1.37851099645858     -1.09104441843886      0.54392320099603
  H   0.49918608301100      0.11089342336352      1.57313563452001
  C   -1.38632939220903      0.83246999863705     -0.26403969970026
  N   -1.90478657171521      1.88062714661572     -0.37141337490434
  C   1.54167720569839      0.50678756390215     -0.20009853554871
  N   2.27351227443295      1.17979732711797     -0.82257681088825
