10
Coordinates from ORCA-job run
  C   -0.76693968232394     -0.31543474082440      0.17662195392446
  C   0.75422438560500     -0.47925415413416      0.06172108489930
  Cl  -1.55084655843080     -1.87727242390179     -0.18245658548302
  H   1.01560228286656     -0.75764455804753     -0.96210544265682
  H   -1.03921604073079     -0.05256824709927      1.20059962452301
  H   1.07363307840106     -1.28825884680097      0.72336305134526
  C   -1.26318256736611      0.71493491617324     -0.73055325286995
  N   -1.64190101408213      1.54821889294940     -1.46603271824051
  C   1.44070910389660      0.75595386618799      0.43367133615918
  N   1.97791701216456      1.75132529549749      0.74617094839910
