19

C	-0.443007	0.00422	-1.450037
C	0.0	0.0	0.0
Br	0.386541	-1.388771	-2.4825
H	1.094181	0.0	0.0
N	-1.967922	-0.108708	-1.515562
O	-2.563395	0.933732	-1.25366
O	-2.478777	-1.202479	-1.713779
N	-0.131296	1.293116	-2.219818
O	-0.743338	1.444897	-3.271208
O	0.719174	2.035825	-1.751525
C	-0.439362	-1.294661	0.68943
H	-1.528092	-1.367903	0.783521
H	-0.069503	-2.180057	0.17303
H	-0.008182	-1.295881	1.692738
C	-0.491179	1.199626	0.813152
H	-1.563431	1.147371	1.019876
H	-0.266136	2.150864	0.336842
H	0.047617	1.176668	1.763179
Cl	3.384272	0.0	0.0
