19

C	-0.473001	0.017286	-1.435204
C	0.0	0.0	0.0
Br	-2.364635	0.414825	-1.6341
H	1.09484	0.0	0.0
N	0.242454	1.029932	-2.335936
O	0.845813	1.939724	-1.789345
O	0.107013	0.852128	-3.540537
N	-0.167581	-1.33806	-2.08019
O	1.01477	-1.499139	-2.346801
O	-1.070728	-2.154399	-2.194089
C	-0.435044	-1.294659	0.690064
H	-1.518331	-1.445143	0.648502
H	-0.130333	-1.232817	1.736917
H	0.064371	-2.166435	0.263962
C	-0.465512	1.209676	0.809836
H	-0.303543	2.146809	0.280932
H	-1.52079	1.126325	1.084809
H	0.133987	1.239837	1.722619
Cl	3.375305	0.0	0.0
