19

C	-0.39604	0.010972	-1.465598
C	0.0	0.0	0.0
Br	0.541612	1.360195	-2.457243
H	1.09618	0.0	0.0
N	-0.094489	-1.36806	-2.075838
O	1.048951	-1.591115	-2.429109
O	-1.035507	-2.159678	-2.064751
N	-1.898121	0.181927	-1.75597
O	-2.66343	0.155046	-0.798329
O	-2.224072	0.29107	-2.930294
C	-0.431553	-1.267503	0.739507
H	-0.087855	-1.173536	1.772295
H	-1.512811	-1.412458	0.737579
H	0.054394	-2.154118	0.328311
C	-0.425112	1.266931	0.744209
H	0.140799	1.301298	1.67752
H	-1.491413	1.27392	0.972337
H	-0.169508	2.167639	0.183881
Cl	3.394482	0.0	0.0
