19

C	-0.481428	0.001877	-1.430171
C	0.0	0.0	0.0
Br	-2.411325	-0.012479	-1.583798
H	1.091813	0.0	0.0
N	0.058601	1.207608	-2.24123
O	1.096755	1.697326	-1.817858
O	-0.54808	1.523761	-3.257149
N	0.072006	-1.187722	-2.255081
O	-0.493476	-1.448015	-3.309622
O	1.075703	-1.721745	-1.804144
C	-0.457464	-1.253477	0.746704
H	-0.132942	-2.166106	0.246976
H	-1.542636	-1.278017	0.878936
H	0.013721	-1.244047	1.732046
C	-0.455847	1.255953	0.743608
H	-1.541318	1.284178	0.873029
H	-0.127049	2.167408	0.243942
H	0.012755	1.246708	1.730142
Cl	3.49169	0.0	0.0
