15
Coordinates from ORCA-job run
  C   -0.44518243590319     -0.02010144950150     -0.28331312575702
  C   0.79751683368866     -0.69834742737048      0.26830826392813
  F   -0.46066532185182     -0.19855366536653     -1.64058386739312
  H   0.70941029128725     -1.77326411722513      0.05088855768067
  H   0.80453377933537     -0.57326420745030      1.35132220160348
  C   -0.59253905119003      1.44329116916765      0.03528734484253
  H   -1.48576420078050      1.83339806242500     -0.45636712755342
  H   0.28954051491715      1.96222428845000     -0.33603702345240
  H   -0.67668126094144      1.58867801020897      1.11152502332717
  N   -1.64846294638126     -0.76628240878951      0.27075349405207
  O   -1.74347689021325     -0.75616942343951      1.49599441769674
  O   -2.41234977903377     -1.31121903030024     -0.51387599900600
  N   1.96857764766868     -0.05583599192258     -0.30882863513140
  H   2.79580844954865     -0.30366403797777      0.21664553365567
  H   2.09773436984951     -0.36988977090806     -1.26171905849309
