15
Coordinates from ORCA-job run
  C   -0.48120740935544     -0.10245303397718     -0.27197163941282
  C   0.78338437163338     -0.64356826631705      0.38856617185254
  F   -0.58085431526792     -0.65727027413084     -1.51367271928299
  H   0.69284180687972     -1.73785008693152      0.36543356670177
  H   0.80382254348068     -0.32769063806472      1.43173990754946
  C   -0.57447925144992      1.39416752806431     -0.37998455892241
  H   -0.54952765478853      1.85443635054051      0.60676200627829
  H   -1.50518622622468      1.66541709842287     -0.88216087466486
  H   0.27565063588785      1.73880003703463     -0.96596698888375
  N   -1.64443792608797     -0.62351721996712      0.54706888612157
  O   -2.39229947351717     -1.44687272313641      0.03011865907949
  O   -1.75689163084905     -0.15476860848149      1.67738636813622
  N   1.95191866744650     -0.15636452261600     -0.33420745152077
  H   2.26953020048967     -0.84219041668400     -1.00369551581147
  H   2.70873566172286      0.03972477624401      0.30458418277973
