17
Coordinates from ORCA-job run
  C   0.85617195870144      0.18495343048162      0.20053320129628
  C   -0.64119497273923     -0.13702419709001      0.32486456847794
  F   1.18864419445707      1.09024478140937      1.20927776736574
  H   -0.73885855658451     -0.69260965412633      1.26508958916349
  C   1.09254007205509      0.85604008630702     -1.09302722985222
  N   1.23709313022741      1.36702080550684     -2.14028362966597
  C   1.74459061994433     -1.03252975655731      0.34657909621231
  H   2.79272167977954     -0.73933121525075      0.26973602979871
  H   1.50230687985822     -1.76353269679430     -0.42229248158134
  H   1.57209018613055     -1.47220852247337      1.33149816236572
  N   -0.98336725572906     -1.04730161141528     -0.76460769969943
  H   -1.16281253573751     -0.51635859955672     -1.61075974096994
  H   -1.83168286950878     -1.55187080995512     -0.54044962913486
  C   -1.49087936057041      1.12781883611222      0.39687668651312
  H   -1.40482187295005      1.70072039261763     -0.53141782931947
  H   -2.54081316641454      0.85582209471074      0.53078589655359
  H   -1.19072813091955      1.76914663607375      1.22659724247635
