17
Coordinates from ORCA-job run
  C   0.77655387605559     -0.31863215944434      0.23488029043334
  C   -0.63852254447796      0.26272507721746      0.31759553013962
  F   0.64967958454680     -1.68105598090792     -0.06867323739651
  H   -0.52919044353009      1.29716978909970      0.66462962500244
  C   1.42384315244337     -0.22096043904268      1.55640199128953
  N   2.00567427152983     -0.09269131767340      2.56752869067575
  C   1.66354387670180      0.30718384881153     -0.82417991205937
  H   1.25184399653802      0.10615641065832     -1.81312908441259
  H   1.73769531895964      1.38619821745404     -0.67355330220250
  H   2.66320223116940     -0.12534449061329     -0.76900916182502
  N   -1.33396408983862     -0.47313186324978      1.36556597364438
  H   -2.22482979954031     -0.03690749409481      1.56730912608191
  H   -1.51246365236946     -1.42007536806297      1.05253311339326
  C   -1.33938261713292      0.25613568311200     -1.04159046068646
  H   -0.87621890833102      0.93679042331277     -1.75952706853118
  H   -1.33990236265452     -0.75187289290544     -1.46341928975626
  H   -2.37756189006954      0.57031255632881     -0.91136282379034
