17
Coordinates from ORCA-job run
  C   0.72983325608520     -0.33242821594254      0.11053189170772
  C   -0.69891820257631      0.21392857215347      0.32558877936364
  F   0.61396512936463     -1.59273168782510     -0.48685707650900
  H   -0.59331975457935      1.16240198581540      0.86563715602380
  C   1.35149696207688     -0.53770231416632      1.43300411524766
  N   1.82159673644916     -0.65572085404689      2.50251993714622
  C   1.62500015570618      0.52024118182331     -0.76668621383790
  H   2.62920283631671      0.09532743199119     -0.80156516455366
  H   1.68518541504012      1.53882769643022     -0.37728703365023
  H   1.22275385105590      0.54434634137324     -1.77922562426017
  N   -1.52222053496644     -0.66410344370423      1.14248060309996
  H   -1.14906831975361     -0.74293182800691      2.08137053838705
  H   -1.53571120048634     -1.59155322889638      0.73404585823134
  C   -1.40233825801073      0.46726540804686     -1.00224668574809
  H   -2.43307044354820      0.75316512761801     -0.79330384630789
  H   -1.41351514156638     -0.44156051541945     -1.60879622289508
  H   -0.92987248660744      1.26422834275612     -1.57821101144538
