16

C	0.0	0.0	0.0
C	-0.579394	-0.030937	-1.403685
Cl	1.779455	0.0	0.0
H	-1.679212	0.02264	-1.253575
H	-0.292285	-0.956149	-1.903447
N	-0.612138	1.163678	0.670501
O	-0.322286	2.287618	0.192663
O	-1.771248	0.830256	1.178164
C	-0.433968	-1.28561	0.690358
H	-1.516288	-1.392732	0.583643
H	0.091204	-2.13326	0.242658
H	-0.18648	-1.223069	1.750713
N	-0.190311	1.066022	-2.326657
O	-1.051802	1.88528	-2.644029
O	0.950315	1.02787	-2.796123
H	-2.927578	0.0	0.0
