16

C	0.0	0.0	0.0
C	-0.673675	0.148448	-1.3444
Cl	1.791438	0.0	0.0
H	-1.763809	0.266109	-1.089734
H	-0.509252	-0.770087	-1.909737
N	-0.339759	1.217279	0.867915
O	-0.407419	2.294504	0.28815
O	-0.440429	1.044193	2.075254
C	-0.544566	-1.242099	0.653045
H	-0.264043	-2.112033	0.055458
H	-1.644236	-1.11452	0.661674
H	-0.151908	-1.34675	1.662766
N	-0.210613	1.246046	-2.235769
O	-1.008376	2.134521	-2.521057
O	0.930155	1.153159	-2.696616
H	-3.189305	0.0	0.0
