15

C	0.0	0.0	0.0
C	-0.583348	-0.010909	-1.454076
Br	1.913214	0.0	0.0
H	-1.665026	-0.16778	-1.41841
C	-0.523292	1.109533	0.769483
N	-0.908619	2.030471	1.414209
N	-0.43758	-1.38691	0.683651
O	-1.498225	-1.891169	0.312117
O	0.202438	-1.718933	1.672199
C	0.003089	-1.006085	-2.323391
N	0.427663	-1.882876	-2.983248
N	-0.451528	1.370749	-2.05812
O	0.671364	1.765817	-2.339595
O	-1.510476	1.985702	-2.180488
H	-1.556261	0.0	0.0
