15

C	0.0	0.0	0.0
C	-0.429241	0.020483	-1.483151
Br	1.918445	0.0	0.0
H	-1.532718	0.127275	-1.514111
C	-0.522256	1.062332	0.817989
N	-0.9345	1.882156	1.580583
N	-0.450508	-1.440665	0.705239
O	-1.590411	-1.856658	0.441108
O	0.313046	-1.974679	1.477593
C	-0.095413	-1.210818	-2.171311
N	0.125158	-2.226458	-2.727397
N	0.017175	1.238585	-2.244976
O	-0.010125	2.278019	-1.593697
O	0.236507	1.124423	-3.448665
H	-1.656095	0.0	0.0
