16
Coordinates from ORCA-job run
  C   0.78623925472040      0.04889791479030     -0.31446557843441
  C   -0.73238186396903     -0.07006897259188     -0.41282007188683
  Cl  1.38166525080466      0.15314652610937     -2.00230115643536
  H   -1.01087943097910     -0.92941121981512     -1.02017126111158
  C   1.22728109142153      1.22609845900727      0.43155013207799
  N   1.66920210503507      2.09086759136077      1.09328532816680
  C   1.37012537271787     -1.20820163405212      0.33141628583124
  H   1.08383131218863     -1.26806509353186      1.38264391028922
  H   2.45730820306980     -1.16230477503295      0.26741128029833
  H   1.01864317291335     -2.09908375799469     -0.19126694139290
  N   -1.43438974064120      1.12234450430866     -1.00152333769721
  O   -0.83019230145294      2.18286906393630     -1.07795645593996
  O   -2.59445000572038      0.89677190960583     -1.33136561709443
  N   -1.33153657428021     -0.27560339661312      0.95059672508068
  O   -1.48521365244401      0.72846386241441      1.63750110566971
  O   -1.57625219338443     -1.43772098190117      1.25646565257871
