16
Coordinates from ORCA-job run
  C   0.79954898025864      0.40346166704267     -0.07231414960978
  C   -0.73072879686669      0.53420764700011     -0.11687694358624
  Cl  1.39628113062132      1.35204553349545     -1.48067028170319
  H   -1.03217371515196      1.57851960482090     -0.18960793253188
  C   1.26093355557896      1.08585169125167      1.13777317905212
  N   1.64822944389089      1.64698675735106      2.09508051040453
  C   1.36665165431434     -1.00810880570245     -0.16514388853315
  H   2.45398784255190     -0.94282968649539     -0.11171819357979
  H   0.99945434303553     -1.61898655618213      0.65714104703060
  H   1.09009705735483     -1.46508465964008     -1.11399003312314
  N   -1.43820523049040     -0.03693388772090      1.08661105095613
  O   -2.64261554243353      0.18625380521874      1.10526731214869
  O   -0.78588609117971     -0.65617480609445      1.91811478096641
  N   -1.32028732920582     -0.17893430447385     -1.29985334525513
  O   -1.39124103610770     -1.40095494791582     -1.21022790881827
  O   -1.67204626617061      0.52168094804447     -2.24058520381791
