16
Coordinates from ORCA-job run
  C   0.74457391208686      0.01692456916043     -0.29930167515439
  C   -0.68400882134168      0.24580166780190      0.20909219928232
  Cl  0.75629148948713     -0.47892758195713     -2.01227757344763
  H   -0.67441888466527      0.42446684315083      1.28507406336594
  C   1.47489805602821      1.27680110134630     -0.14210052499574
  N   2.10193778204700      2.24865170084104      0.06627922098523
  C   1.44570064407488     -1.06644020897078      0.52436930720173
  H   0.95606764251993     -2.02868767257232      0.38517834753297
  H   2.48011273222223     -1.14190939412600      0.18908740617001
  H   1.43220572984723     -0.80499895171114      1.58483425511911
  N   -1.55036045040512     -0.96299123056702     -0.01551889590936
  O   -1.45718573094775     -1.83248476719786      0.84499036722805
  O   -2.24225708984715     -0.98214730726471     -1.02409855408705
  N   -1.40729432935792      1.41740623367930     -0.39827507194132
  O   -0.91208455541899      1.98538930819518     -1.36208976597633
  O   -2.46317812632961      1.68414569019196      0.16475689462645
