16
Coordinates from ORCA-job run
  C   0.79935052058366      0.12727731998743     -0.19653356683940
  C   -0.68511640772012     -0.14375071608148     -0.43674669777768
  Cl  1.48533910445777      0.44148962633031     -1.82971915146082
  H   -0.81644975702820     -0.98982410279003     -1.10965634396448
  C   1.05814303081969      1.30270743253274      0.63201143647612
  N   1.36949853398436      2.22270878623604      1.29358517025862
  C   1.48789362365584     -1.10715223712759      0.38196402215059
  H   1.13608939648451     -1.29602865347094      1.39551826200041
  H   2.56375851400900     -0.93294643574154      0.40793812477172
  H   1.29064017953346     -1.97239147225927     -0.25439410022295
  N   -1.39722162000669      1.02454538869402     -1.05999971834867
  O   -1.52566102537972      2.01236234868778     -0.34432908783987
  O   -1.78195444626813      0.87631601653230     -2.21319337243695
  N   -1.46026857596191     -0.45048520645945      0.81720632658308
  O   -0.95581508583413     -0.17492409051583      1.89951168095994
  O   -2.56722598532932     -0.93890400455448      0.61683701569035
