16
Coordinates from ORCA-job run
  C   0.75739928336642     -0.01440246238394     -0.26608531375598
  C   -0.69274497542522      0.26572257238815      0.14613719199932
  Cl  0.84749430221278     -0.71531227688191     -1.90339772031357
  H   -0.73129238630339      0.57678402327270      1.19090497483978
  C   1.47898994401538      1.25966585552529     -0.23076432188714
  N   2.09511912885716      2.25344923935271     -0.11310265258256
  C   1.42071410150422     -0.98525567294290      0.71439901022184
  H   1.35902715473850     -0.59674644347198      1.73339771564700
  H   0.93818546008141     -1.96013932268808      0.67160017899787
  H   2.46928985314450     -1.09505976071204      0.43773318062052
  N   -1.54654909509683     -0.96741789219084      0.03567019028152
  O   -2.18900019222581     -1.11870604547601     -0.99423037850319
  O   -1.49452487631489     -1.72040452788125      1.00292240114738
  N   -1.39010623499138      1.34792148374731     -0.63356368347773
  O   -2.47277837124178      1.67154534945541     -0.15830575291636
  O   -0.85022309632108      1.79935588088737     -1.63431502031871
