16
Coordinates from ORCA-job run
  C   0.80058558014559      0.08098573332231     -0.21495235960809
  C   -0.70705360931048     -0.05535322329536     -0.42150161285617
  Cl  1.45881384073615      0.47011814480608     -1.84395456402309
  H   -0.92502880182772     -0.83430047200875     -1.15066033655170
  C   1.17843148320093      1.16283549803291      0.69141772279542
  N   1.58086131231473      1.98854106286758      1.42441921094439
  C   1.40640470536137     -1.24470767524984      0.24125668826442
  H   1.07234822694199     -1.48525794093945      1.24985884118389
  H   2.49301663632580     -1.15659371746299      0.24022048855461
  H   1.12098517011919     -2.03915033404133     -0.45149283898909
  N   -1.34170453944491      1.20912930194476     -0.93056831069029
  O   -1.78128899584610      1.17720749184276     -2.07310602195368
  O   -1.36033858887656      2.14862182921124     -0.14224581274860
  N   -1.46801602164879     -0.39669594397634      0.83248633534601
  O   -2.61867938296474     -0.77200822863397      0.63511607191358
  O   -0.90933701522642     -0.25337152641960      1.91370649841838
