16
Coordinates from ORCA-job run
  C   0.77881475446499      0.05977901911107     -0.32941583848882
  C   -0.73969946470497     -0.07914778653915     -0.39878240718357
  Cl  1.34032354378752      0.17279474146627     -2.02828112566427
  H   -1.01809902906935     -0.94160418976410     -1.00172893383436
  C   1.21915005211242      1.24217266704016      0.40875369377233
  N   1.66409670010869      2.11378457305753      1.05937263690161
  C   1.39098164355870     -1.19007843815845      0.30410906568653
  H   1.12630350191153     -1.25392832881048      1.36078737907157
  H   2.47605930342633     -1.13049284748473      0.21907210081841
  H   1.04054325658613     -2.08528546800717     -0.21183771988369
  N   -1.46887869249145      1.10453512825606     -0.97192460291499
  O   -2.63197562116311      0.86372241891113     -1.27957301691446
  O   -0.87997604896802      2.17269787403022     -1.05993183069401
  N   -1.30954715408501     -0.29433319880544      0.97565562159414
  O   -1.53293090312321     -1.45987036162979      1.28473617382293
  O   -1.45716584235128      0.70625419732686      1.66898880391061
