16
Coordinates from ORCA-job run
  C   0.80702777306771      0.12915601848984     -0.22851191011844
  C   -0.68310524320309     -0.07463201643298     -0.48885606704020
  Cl  1.54862681797134      0.43658846838312     -1.83154165886307
  H   -0.84083795216567     -0.88520712185553     -1.19807245195410
  C   1.09079595605936      1.25218494630447      0.66318625651546
  N   1.40724174376401      2.07211297699818      1.44331379547135
  C   1.41704349197989     -1.14645692130296      0.35390129713741
  H   2.49925653438493     -1.02604059385266      0.40369741295703
  H   1.18138714290509     -2.00159889108108     -0.28139401117722
  H   1.03866950585598     -1.32787807540387      1.36114721821800
  N   -1.41129352736276      1.12415438822704     -1.03134614226294
  O   -0.88046991051081      2.22271545040571     -0.94795554363308
  O   -2.51671678125107      0.86041069924973     -1.49374043539955
  N   -1.39069773328238     -0.45191178422415      0.78277283138951
  O   -1.68250122918225      0.46757893459731      1.53977416117352
  O   -1.58442658903023     -1.65117647850215      0.95062524758637
