16
Coordinates from ORCA-job run
  C   0.80185109363388      0.08182792927319     -0.21239577292691
  C   -0.70572317913464     -0.05152343442129     -0.42233132228931
  Cl  1.46423766255944      0.48726376203572     -1.83564037978114
  H   -0.92292625225643     -0.82161331439413     -1.16105647117725
  C   1.17736429243433      1.15531807542069      0.70474685922028
  N   1.56613373639277      1.99520608115257      1.42892125527192
  C   1.40557753076369     -1.24921166173153      0.23092840578579
  H   2.49225052259814     -1.16171130929877      0.23382669376883
  H   1.06865709379147     -1.50100515821759      1.23584845817841
  H   1.12180800500124     -2.03573197165096     -0.47143937722420
  N   -1.34045075632957      1.21894049621369     -0.91657543004407
  O   -1.76621661352612      1.20463829711092     -2.06470473263174
  O   -1.37212211276963      2.14492435765175     -0.11287898548449
  N   -1.46685379291690     -0.40837550438599      0.82700872406027
  O   -2.61589804170435     -0.78601799596015      0.62446470103756
  O   -0.90968918853733     -0.27492864879812      1.91027737423605
