16
Coordinates from ORCA-job run
  C   0.78590757340302      0.07446689745701     -0.14641767829854
  C   -0.73201640481826      0.18435083382840      0.04146033251645
  Cl  1.19958797056275     -0.56609193831150     -1.75856662529706
  H   -0.96319101647791      0.45825371705666      1.07164782586455
  C   1.34716771850092      1.41790321828552      0.01339401953653
  N   1.82082449165627      2.47020128549098      0.23565190539502
  C   1.39767736587348     -0.84597603541773      0.91288655599320
  H   1.13943052874279     -0.49576339955568      1.91477158307621
  H   1.03917246386004     -1.86590071515276      0.78528943338259
  H   2.48164494770607     -0.83306451965603      0.79908168914221
  N   -1.41681104621912     -1.12987433137413     -0.21516551089029
  O   -1.87854946797092     -1.31727052622828     -1.33230217450602
  O   -1.42485986877566     -1.90290262039800      0.73749695626776
  N   -1.41896381294807      1.20788712935967     -0.82212539176860
  O   -2.58899212281303      1.40194286131277     -0.51173648051676
  O   -0.78902932028239      1.74083814330307     -1.72536643989726
