16
Coordinates from ORCA-job run
  C   0.79524109799125      0.12358921239406     -0.21349186275960
  C   -0.69293064085029     -0.15424803370279     -0.41976134539535
  Cl  1.44857373157669      0.40850988179746     -1.86569376106239
  H   -0.83565818428408     -1.01509314611232     -1.07133100392948
  C   1.06826756835201      1.31456384226552      0.58770996644690
  N   1.39160281065068      2.24512778662480      1.22843933301071
  C   1.49782733435799     -1.09876714624742      0.37376009020579
  H   1.16643609011862     -1.26964820092479      1.39731400126299
  H   2.57361332409344     -0.92215902302403      0.37512243153461
  H   1.28997245260280     -1.97585753038167     -0.24267828860207
  N   -1.41804081950631      0.99954283708723     -1.05521164561731
  O   -1.53125265904303      2.00353418659199     -0.35975631136932
  O   -1.82910649516219      0.82418249042806     -2.19535869665940
  N   -1.44500009004031     -0.43345194690633      0.85483083389562
  O   -2.56176997594410     -0.91051892133129      0.68439716350876
  O   -0.91877554491318     -0.13930628855851      1.92170909552959
