16
Coordinates from ORCA-job run
  C   0.78414202054876      0.43699552802118     -0.01429485929737
  C   -0.74707984689643      0.51234721690651     -0.11581167707209
  Cl  1.39692020133077      1.49132604593754     -1.33783435412889
  H   -1.08700717062902      1.54715084372759     -0.13691224933058
  C   1.16890522409106      1.06097675934037      1.25279517165823
  N   1.50414567194132      1.56894639485432      2.25820802861822
  C   1.41240527183280     -0.94341305444854     -0.16566362654879
  H   2.49292111125652     -0.83917236872929     -0.06144464611645
  H   1.03729130493337     -1.61653470166863      0.60256158008680
  H   1.19388241419897     -1.35242776984531     -1.15069831789997
  N   -1.47906091262353     -0.15924719762870      1.01922351069850
  O   -2.69108799365958      0.01776226543173      1.00074230175155
  O   -0.83625001217041     -0.80428818494542      1.83847856683683
  N   -1.26049765544279     -0.14635155410034     -1.36395074882009
  O   -1.27862426005575     -1.37357114986344     -1.35516906289173
  O   -1.61200536865603      0.59850092701045     -2.27022961754417
