16

C	-0.367553	0.051559	-1.469768
C	0.0	0.0	0.0
F	-0.310467	-1.205253	-2.007006
H	1.092819	0.0	0.0
H	0.275081	0.713349	-2.04203
N	-1.781666	0.520076	-1.732643
O	-1.967724	1.126474	-2.784613
O	-2.650088	0.205874	-0.920967
C	-0.509286	-1.181112	0.792838
H	-0.197776	-2.094263	0.286329
H	-1.593111	-1.169425	0.898199
H	-0.044228	-1.165453	1.776971
N	-0.388752	1.299973	0.610699
O	-0.416522	2.278678	-0.139744
O	-0.616138	1.33695	1.81484
Cl	3.231349	0.0	0.0
