16

C	-0.407287	0.108371	-1.455888
C	0.0	0.0	0.0
F	0.133019	-0.909349	-2.164135
H	1.099292	0.0	0.0
H	-0.133458	1.065868	-1.894085
N	-1.913766	-0.009304	-1.571454
O	-2.393989	-1.060639	-1.975901
O	-2.540004	0.97725	-1.190597
C	-0.543624	-1.230321	0.684516
H	-1.628838	-1.19671	0.799853
H	-0.089805	-1.328722	1.669354
H	-0.267222	-2.102722	0.089884
N	-0.39407	1.264086	0.69814
O	-0.070895	2.319675	0.159806
O	-0.978582	1.175522	1.777076
Cl	3.246353	0.0	0.0
