14

C	-0.436226	-0.024421	-1.458135
C	0.0	0.0	0.0
F	-0.001295	1.145779	-2.079393
H	1.093275	0.0	0.0
H	-0.311242	-0.93565	0.478763
C	0.221525	-1.161497	-2.140839
N	0.635087	-2.094583	-2.720566
C	-1.93712	-0.108286	-1.687774
H	-2.334617	-1.03509	-1.269311
H	-2.414408	0.741568	-1.196183
H	-2.157483	-0.075668	-2.757506
C	-0.598833	1.119014	0.694461
N	-1.09981	2.022876	1.255881
F	2.529407	0.0	0.0
