14

C	-0.442913	-0.053532	-1.455661
C	0.0	0.0	0.0
F	0.031189	1.076002	-2.118448
H	1.093273	0.0	0.0
H	-0.317769	-0.919716	0.503891
C	0.15891	-1.244017	-2.096398
N	0.590029	-2.230209	-2.561502
C	-1.949145	-0.081744	-1.673543
H	-2.384746	-0.972409	-1.214571
H	-2.177315	-0.080808	-2.742493
H	-2.386651	0.806011	-1.212161
C	-0.58397	1.144273	0.66889
N	-1.06593	2.068866	1.212718
F	2.528444	0.0	0.0
