14

C	-0.289997	-0.0818	-1.489884
C	0.0	0.0	0.0
F	-1.613231	-0.492737	-1.748403
H	1.093603	0.0	0.0
H	-0.318154	-0.948371	0.446122
C	-0.147986	1.241808	-2.12746
N	-0.044083	2.294708	-2.637126
C	0.684536	-1.069701	-2.106802
H	0.615164	-1.068029	-3.196215
H	0.439026	-2.067175	-1.731915
H	1.683144	-0.796543	-1.742283
C	-0.637416	1.103653	0.685022
N	-1.151186	1.992211	1.258281
F	2.59831	0.0	0.0
