14

C	-0.27184	0.064156	-1.503865
C	0.0	0.0	0.0
F	-0.045055	-1.203688	-2.04372
H	1.093763	0.0	0.0
H	-0.333846	0.931555	0.468657
C	-1.673919	0.398758	-1.837515
N	-2.784759	0.677113	-2.103476
C	0.72042	1.02433	-2.135074
H	1.695002	0.769267	-1.697316
H	0.708026	0.914003	-3.220403
H	0.471153	2.054934	-1.871563
C	-0.627587	-1.133835	0.645919
N	-1.138316	-2.043808	1.186977
F	2.604243	0.0	0.0
