14

C	-0.249708	-0.120083	-1.498738
C	0.0	0.0	0.0
F	-1.588885	-0.423927	-1.805898
H	1.093653	0.0	0.0
H	-0.407697	0.924463	0.413325
C	0.015103	1.192529	-2.123458
N	0.187584	2.242762	-2.619641
C	0.672435	-1.175749	-2.07851
H	1.67686	-0.937886	-1.707251
H	0.368621	-2.149262	-1.686208
H	0.623535	-1.191524	-3.16931
C	-0.526672	-1.148715	0.710314
N	-0.940533	-2.079938	1.296179
F	2.591665	0.0	0.0
