14

C	-0.258054	0.046792	-1.509606
C	0.0	0.0	0.0
F	0.017743	-1.235689	-1.996737
H	1.093775	0.0	0.0
H	-0.419023	-0.917536	0.418951
C	-1.665744	0.318457	-1.873215
N	-2.779966	0.542257	-2.17126
C	0.711942	1.016508	-2.158915
H	1.694464	0.768913	-1.734636
H	0.454099	2.043634	-1.889108
H	0.68405	0.907348	-3.245363
C	-0.524345	1.170512	0.672266
N	-0.94598	2.126135	1.212202
F	2.603261	0.0	0.0
