14

C	-0.430593	-0.036563	-1.460079
C	0.0	0.0	0.0
F	-0.006099	1.15946	-2.042395
H	1.093064	0.0	0.0
H	-0.361905	0.942515	0.424616
C	0.243679	-1.139566	-2.179307
N	0.675941	-2.035008	-2.803175
C	-1.930165	-0.129424	-1.692697
H	-2.411927	0.709689	-1.18486
H	-2.323569	-1.063317	-1.288737
H	-2.14924	-0.075491	-2.761726
C	-0.552823	-1.116782	0.735591
N	-1.006125	-2.025458	1.330026
F	2.529187	0.0	0.0
