18

C	0.0	0.0	0.0
C	-0.572384	0.105391	-1.407665
Cl	1.803473	0.0	0.0
H	-1.65822	0.048397	-1.169541
H	-0.283634	-0.981527	0.385717
C	-0.539757	1.051999	0.943342
H	-1.634725	0.937656	0.840918
H	-0.20324	2.053934	0.663245
H	-0.21398	0.855104	1.969471
C	-0.166639	-1.079354	-2.275604
H	0.907125	-1.082699	-2.494939
H	-0.706827	-1.054027	-3.227937
H	-0.417061	-2.022766	-1.779996
C	-0.255663	1.42675	-2.097631
H	-0.678109	2.270411	-1.547912
H	-0.698915	1.437864	-3.099123
H	0.823879	1.585863	-2.205842
F	-3.000583	0.0	0.0
