18

C	0.0	0.0	0.0
C	-0.468328	0.03397	-1.487052
Cl	1.803745	0.0	0.0
H	0.430235	0.034182	-2.114535
H	-0.256201	-0.978537	0.409668
C	-0.587039	1.045489	0.914991
H	-1.676413	0.878433	0.836938
H	-0.243582	0.88879	1.942031
H	-0.317785	2.058244	0.606544
C	-1.318238	1.254707	-1.842996
H	-0.807562	2.201471	-1.638838
H	-2.249983	1.168947	-1.269387
H	-1.543899	1.228775	-2.915745
C	-1.274068	-1.2352	-1.776169
H	-2.170649	-1.17504	-1.144126
H	-0.682717	-2.133271	-1.560453
H	-1.565236	-1.270118	-2.833107
F	-3.168385	0.0	0.0
