15

C	-0.514319	0.002996	-1.408929
C	0.0	0.0	0.0
Br	0.40494	1.305969	-2.513195
H	1.09856	0.0	0.0
H	-0.380665	-0.971032	-1.868444
N	-2.000084	0.278127	-1.413896
O	-2.68208	-0.708525	-1.144743
O	-2.42518	1.403758	-1.622529
N	-0.31861	-1.253572	0.654106
O	-0.523515	-1.2248	1.880178
O	-0.17081	-2.295581	-0.004821
N	-0.505536	1.136711	0.751899
H	-0.231881	0.974085	1.716211
H	0.047564	1.928759	0.438505
H	2.468718	0.0	0.0
