15

C	-0.375234	-0.003378	-1.465996
C	0.0	0.0	0.0
Br	0.06104	1.693188	-2.29569
H	1.091676	0.0	0.0
H	0.158745	-0.769835	-2.019195
N	-1.839116	-0.236079	-1.731538
O	-2.134068	-0.87904	-2.7323
O	-2.638806	0.255982	-0.937606
N	-0.391956	-1.313965	0.557085
O	-0.354717	-1.470219	1.77382
O	-0.61947	-2.225795	-0.259778
N	-0.390253	1.074453	0.832415
H	-1.209401	1.563879	0.511275
H	0.399628	1.692371	0.966609
H	2.53995	0.0	0.0
