15

C	-0.517724	-0.146357	-1.417974
C	0.0	0.0	0.0
Br	0.72156	-1.027286	-2.655445
H	1.088949	0.0	0.0
H	-1.437318	-0.71757	-1.485414
N	-0.821687	1.218992	-1.963778
O	-2.017154	1.510028	-2.009835
O	0.104502	1.94857	-2.281188
N	-0.418815	-1.1397	0.767431
O	-0.534747	-2.228929	0.170768
O	-0.528053	-1.013857	2.00425
N	-0.299811	1.262669	0.609521
H	0.566304	1.583414	1.041187
H	-0.978546	1.124395	1.346995
H	2.347826	0.0	0.0
