15

C	-0.639371	-0.115381	-1.378577
C	0.0	0.0	0.0
Br	0.223247	-1.364459	-2.584245
H	1.089038	0.0	0.0
H	-1.689568	-0.40209	-1.327284
N	-0.649615	1.247683	-2.014577
O	0.409793	1.735626	-2.373922
O	-1.758727	1.774388	-2.101474
N	-0.44364	-1.228277	0.741171
O	0.136078	-2.282734	0.491921
O	-1.37473	-1.113653	1.5534
N	-0.413037	1.205458	0.640015
H	0.342614	1.496942	1.252803
H	-1.267416	1.07518	1.165793
H	2.625869	0.0	0.0
