15

C	-0.600404	0.007293	-1.400791
C	0.0	0.0	0.0
Br	0.131217	-1.383155	-2.520676
H	1.088306	0.0	0.0
H	-1.678372	-0.128894	-1.377346
N	-0.389677	1.361164	-2.017499
O	0.673041	1.633606	-2.553424
O	-1.344738	2.131441	-1.876668
N	-0.546464	-1.2541	0.649163
O	0.23118	-1.998201	1.232398
O	-1.770201	-1.421385	0.588388
N	-0.384873	1.108916	0.81056
H	-1.212166	1.598659	0.502764
H	0.412048	1.730283	0.895851
H	2.717487	0.0	0.0
