15

C	-0.557015	-0.000981	-1.416364
C	0.0	0.0	0.0
Br	0.363693	-1.222786	-2.611733
H	1.088347	0.0	0.0
H	-1.610564	-0.262495	-1.460741
N	-0.466438	1.398122	-1.967057
O	-1.480604	2.079865	-1.785425
O	0.564724	1.789306	-2.491528
N	-0.477499	-1.219775	0.687501
O	-1.191561	-2.029702	0.069167
O	-0.068449	-1.392878	1.835292
N	-0.283994	1.153143	0.792929
H	-1.048776	1.722091	0.461824
H	0.573199	1.690556	0.888642
H	2.509765	0.0	0.0
