15

C	-0.421414	0.002585	-1.438492
C	0.0	0.0	0.0
Br	-2.451369	0.544291	-1.617483
H	1.09035	0.0	0.0
H	0.042832	0.866775	-1.904555
N	-0.132098	-1.174384	-2.120927
H	-0.630267	-1.963148	-1.734799
H	-0.280409	-1.086267	-3.114468
N	-0.445516	-1.15829	0.79473
O	0.039777	-1.265036	1.916855
O	-1.226343	-1.976061	0.289393
N	-0.423954	1.248264	0.666488
O	-0.043552	2.277127	0.111864
O	-1.09782	1.201538	1.692292
F	2.437404	0.0	0.0
