15

C	-0.40613	0.040888	-1.442567
C	0.0	0.0	0.0
Br	-2.422147	0.640793	-1.63036
H	1.089779	0.0	0.0
H	0.085228	0.901506	-1.88562
N	-0.142657	-1.126763	-2.148499
H	-0.273502	-1.00376	-3.142337
H	-0.676073	-1.908438	-1.793156
N	-0.487066	-1.151368	0.771717
O	-0.044898	-1.274295	1.908715
O	-1.269837	-1.94841	0.237507
N	-0.392879	1.257497	0.680035
O	-0.000884	2.280596	0.123858
O	-1.051907	1.22094	1.713944
F	2.439404	0.0	0.0
