15

C	-0.29729	0.099191	-1.482691
C	0.0	0.0	0.0
Br	0.18307	-1.685507	-2.362917
H	1.087579	0.0	0.0
H	-1.350912	0.199703	-1.737512
N	0.517568	1.153982	-1.924807
H	1.463873	1.004604	-1.557278
H	0.516265	1.254464	-2.928582
N	-0.658061	-1.099072	0.732063
O	-0.282842	-1.25216	1.894385
O	-1.551954	-1.74443	0.186396
N	-0.515872	1.248718	0.648532
O	0.295664	2.098448	0.990959
O	-1.740047	1.335903	0.780061
F	2.532292	0.0	0.0
