15

C	-0.421949	0.000268	-1.43907
C	0.0	0.0	0.0
Br	-2.450678	0.541765	-1.616643
H	1.09039	0.0	0.0
H	0.042732	0.863831	-1.906085
N	-0.132511	-1.177982	-2.118725
H	-0.634667	-1.964833	-1.732806
H	-0.278492	-1.090597	-3.11292
N	-0.442137	-1.160478	0.793959
O	-1.223522	-1.978269	0.289738
O	0.044366	-1.26697	1.91552
N	-0.430931	1.24599	0.664894
O	-0.047813	2.276413	0.116359
O	-1.108783	1.195488	1.688739
F	2.436859	0.0	0.0
