15

C	-0.560805	-0.023319	-1.403511
C	0.0	0.0	0.0
Br	0.094956	1.678712	-2.297485
H	1.089461	0.0	0.0
H	-0.017737	-0.789305	-1.951137
N	-1.953614	-0.215837	-1.499331
H	-2.255752	-0.270238	-2.462311
H	-2.448587	0.513917	-1.004533
N	-0.426382	-1.229938	0.706797
O	-0.830242	-1.142392	1.866171
O	-0.278764	-2.280141	0.08694
N	-0.492767	1.155261	0.806163
O	-1.671655	1.511387	0.668352
O	0.304074	1.686348	1.572434
F	2.471153	0.0	0.0
