15

C	-0.541693	-0.024213	-1.410594
C	0.0	0.0	0.0
Br	0.094883	1.663718	-2.325142
H	1.08789	0.0	0.0
H	0.017315	-0.791231	-1.940571
N	-1.933129	-0.246542	-1.50954
H	-2.229501	-0.329059	-2.472029
H	-2.438478	0.495595	-1.044618
N	-0.438474	-1.259859	0.660304
O	-1.062058	-1.204883	1.719345
O	-0.11527	-2.292936	0.08187
N	-0.513356	1.117436	0.831216
O	-1.579307	1.662274	0.518272
O	0.162259	1.428381	1.806033
F	2.472431	0.0	0.0
