16

C	-0.428403	0.004484	-1.437672
C	0.0	0.0	0.0
Cl	-2.323336	-0.304992	-1.533558
H	1.093638	0.0	0.0
H	-0.040744	-0.86988	-1.950872
N	-0.079111	1.186864	-2.10641
H	-0.31915	1.144271	-3.086193
H	-0.501609	2.002337	-1.686201
N	-0.348724	-1.278771	0.617713
O	-0.643504	-1.300843	1.820862
O	-0.206616	-2.296611	-0.071152
C	-0.448538	1.181662	0.82168
H	-1.535955	1.289059	0.852116
H	0.011647	2.084429	0.411077
H	-0.073277	1.067835	1.837194
H	2.584694	0.0	0.0
