16

C	-0.279256	0.068898	-1.478725
C	0.0	0.0	0.0
Cl	-2.064714	0.331887	-1.839858
H	1.09569	0.0	0.0
H	-0.08415	-0.906219	-1.92464
N	0.48845	1.158804	-2.016189
H	0.569336	1.050853	-3.020745
H	1.426393	1.071523	-1.604065
N	-0.416292	-1.286968	0.564238
O	-0.26708	-2.300803	-0.126863
O	-0.793504	-1.314217	1.743444
C	-0.488607	1.172501	0.811614
H	-1.56724	1.137767	0.973563
H	-0.235629	2.083165	0.266694
H	0.017511	1.18497	1.777644
H	2.639452	0.0	0.0
