18

C	-0.170173	-0.033646	-1.54863
C	0.0	0.0	0.0
Cl	-0.086795	1.764097	-2.099969
H	1.091188	0.0	0.0
N	0.93363	-0.672672	-2.196999
H	1.771795	-0.389169	-1.658263
H	0.819696	-1.660576	-1.988627
N	-1.389188	-0.620483	-1.970821
H	-2.1823	-0.121483	-1.59177
H	-1.42661	-0.606237	-2.983475
N	-0.46822	-1.327018	0.480279
O	0.151803	-2.327551	0.118875
O	-1.470318	-1.375324	1.206046
C	-0.636598	1.111555	0.795474
H	-0.551043	0.887154	1.860313
H	-0.093235	2.032771	0.595469
H	-1.696474	1.261302	0.567655
F	2.630352	0.0	0.0
