18

C	-0.139279	-0.088299	-1.529833
C	0.0	0.0	0.0
Cl	-1.785199	-1.131862	-1.959009
H	1.091676	0.0	0.0
N	-0.381724	1.200205	-2.096224
H	-1.307096	1.526553	-1.844233
H	-0.344101	1.12839	-3.106639
N	0.963847	-0.756991	-2.050518
H	1.141353	-0.538206	-3.020857
H	1.789947	-0.608353	-1.429475
N	-0.414636	-1.265954	0.652423
O	0.154262	-2.297501	0.311486
O	-1.286192	-1.213562	1.52738
C	-0.63398	1.196648	0.655913
H	-0.428278	1.175547	1.725961
H	-1.720596	1.218934	0.527113
H	-0.18594	2.096012	0.234
F	2.641018	0.0	0.0
