18

C	-0.498217	0.023388	-1.444943
C	0.0	0.0	0.0
Cl	0.38188	1.36525	-2.269525
H	1.089188	0.0	0.0
N	-0.077202	-1.185953	-2.134872
H	-0.706451	-1.932674	-1.871859
H	-0.113113	-1.042341	-3.135625
N	-1.910938	0.369522	-1.544225
H	-2.171336	0.354612	-2.525915
H	-2.408819	-0.378347	-1.073997
N	-0.440179	-1.253968	0.66557
O	-1.412161	-1.889255	0.214271
O	0.155777	-1.597304	1.678737
C	-0.508414	1.142223	0.861001
H	-0.007431	1.093917	1.829585
H	-1.595162	1.12215	0.992798
H	-0.236459	2.08538	0.384575
F	2.563746	0.0	0.0
