18

C	-0.169837	-0.096998	-1.55552
C	0.0	0.0	0.0
Cl	-0.213474	1.605656	-2.205908
H	1.089905	0.0	0.0
N	0.981142	-0.715866	-2.171923
H	1.803339	-0.385669	-1.631387
H	0.912325	-1.698135	-1.918389
N	-1.432992	-0.687928	-1.947875
H	-1.444972	-0.691024	-2.963019
H	-1.407694	-1.657524	-1.650159
N	-0.473253	-1.283653	0.566936
O	-0.08591	-2.333799	0.036406
O	-1.240244	-1.276829	1.533785
C	-0.627363	1.168051	0.716456
H	-1.680546	1.292579	0.452489
H	-0.549052	1.025189	1.79383
H	-0.077407	2.068372	0.452435
F	2.629895	0.0	0.0
