18

C	-0.198422	0.04236	-1.525444
C	0.0	0.0	0.0
Cl	0.067431	-1.71972	-2.118259
H	1.090422	0.0	0.0
N	-1.453965	0.540554	-1.957126
H	-2.188738	-0.020474	-1.542611
H	-1.50069	0.478374	-2.966863
N	0.872777	0.789001	-2.1242
H	0.665221	1.770438	-1.972719
H	1.730347	0.554107	-1.58875
N	-0.666055	-1.152352	0.64018
O	-1.87272	-1.302772	0.398755
O	-0.029297	-1.864543	1.409776
C	-0.499929	1.257511	0.689847
H	-1.579648	1.390339	0.59584
H	0.007491	2.120185	0.256376
H	-0.222131	1.212566	1.746771
F	2.650821	0.0	0.0
