18

C	-0.432569	0.103779	-1.469047
C	0.0	0.0	0.0
F	-1.806465	0.39925	-1.51731
H	1.091746	0.0	0.0
C	0.328136	1.130856	-2.284815
H	1.400376	0.966457	-2.150407
H	0.054435	1.032106	-3.336867
H	0.083112	2.130483	-1.930724
C	-0.2811	-1.22364	-2.102515
N	-0.21058	-2.25339	-2.662411
C	-0.543036	-1.218759	0.713491
H	-0.066373	-2.108186	0.297834
H	-0.288877	-1.165405	1.77172
H	-1.627099	-1.29787	0.61682
N	-0.448285	1.25399	0.69093
O	-1.333668	1.164629	1.542778
O	0.093807	2.305985	0.362922
Br	3.447463	0.0	0.0
