18

C	-0.419484	-0.086247	-1.465559
C	0.0	0.0	0.0
F	-0.12413	1.127261	-2.075192
H	1.091475	0.0	0.0
C	0.392596	-1.158223	-2.175893
H	1.451335	-0.985323	-1.966207
H	0.202181	-1.083327	-3.248514
H	0.112348	-2.157792	-1.839373
C	-1.863626	-0.341527	-1.646375
N	-2.983358	-0.652154	-1.81637
C	-0.493442	-1.155089	0.855617
H	-0.076483	-2.093605	0.490832
H	-1.584637	-1.216242	0.862108
H	-0.127982	-1.009224	1.873574
N	-0.502542	1.260032	0.624165
O	-1.573992	1.716233	0.223244
O	0.154636	1.717884	1.554775
Br	3.502246	0.0	0.0
