18

C	-0.505006	-0.02784	-1.449101
C	0.0	0.0	0.0
F	-0.009176	-1.21941	-1.988836
H	1.093249	0.0	0.0
C	-2.016987	-0.080895	-1.603639
H	-2.401535	-0.952657	-1.07194
H	-2.478803	0.826231	-1.217367
H	-2.260015	-0.185518	-2.662948
C	0.046152	1.060835	-2.276147
N	0.412623	1.888471	-3.024915
C	-0.446321	-1.203374	0.814103
H	-1.507701	-1.164628	1.073796
H	-0.237479	-2.108084	0.242915
H	0.13937	-1.235446	1.731062
N	-0.418231	1.249792	0.695104
O	-0.84441	2.190397	0.019998
O	-0.28589	1.279017	1.915105
Br	3.404578	0.0	0.0
