18

C	-0.511854	0.044781	-1.450222
C	0.0	0.0	0.0
F	-0.097582	-1.142813	-2.049809
H	1.091098	0.0	0.0
C	-2.027486	0.102024	-1.567606
H	-2.423738	1.011138	-1.112832
H	-2.303181	0.084652	-2.623346
H	-2.463565	-0.767105	-1.074725
C	0.067589	1.149929	-2.238298
N	0.398143	2.009445	-2.966605
C	-0.456756	-1.231405	0.753704
H	0.006388	-1.221541	1.741218
H	-0.088962	-2.108854	0.221441
H	-1.537684	-1.291324	0.879397
N	-0.464992	1.249694	0.673501
O	0.048097	2.303646	0.307319
O	-1.352425	1.163466	1.52767
Br	3.438483	0.0	0.0
