11
Coordinates from ORCA-job run
  C   -0.18584066043954      0.15457316993697     -0.02256918363482
  C   1.03863925101046     -0.13383841468094     -0.53122411827209
  H   1.36407214465468      0.32101536406116     -1.45605760279303
  N   -1.06002805724285      1.07254800508406     -0.79376670959427
  O   -0.57436195982720      1.65928292653272     -1.75320654874413
  O   -2.22601209575845      1.16360615611594     -0.40838423448842
  N   -0.73182921158965     -0.23608570212913      1.15286772107978
  H   -1.73510797051281     -0.16863458144445      1.21769360026247
  H   -0.29364618137941     -1.01454620021199      1.62078950354208
  C   1.87766378483415     -1.03061840367755      0.17457690832071
  N   2.52845095625062     -1.78830231958680      0.80028066432171
