11
Coordinates from ORCA-job run
  C   -0.32044029931045     -0.13996888314286      0.06260435615870
  C   0.89845472241869     -0.72943876872064     -0.01635214472001
  H   0.96704806992951     -1.76657564375691      0.30077903479832
  N   -0.51337393075256      1.27821786878754     -0.32341829922731
  O   0.32596183102126      1.79513466309616     -1.05036631252232
  O   -1.51688113297336      1.82964496264320      0.13057066481901
  N   -1.49182161128392     -0.72912582840554      0.43080133595897
  H   -2.19692330796495     -0.08964931481256      0.76486047213287
  H   -1.41572657507258     -1.59401930353675      0.94107355203517
  C   2.10399102453357     -0.12863710807168     -0.45616368583812
  N   3.16071120945478      0.27441735592004     -0.78538897359529
