11
Coordinates from ORCA-job run
  C   -0.18925921848136      0.15286334216489     -0.00993814797876
  C   1.09151901400204      0.00208500934232     -0.43181720414253
  H   1.49075323381094      0.64800081710783     -1.20093478937636
  N   -1.02031361217481      1.18976852982545     -0.66991664394508
  O   -2.22608294297519      1.15721122657890     -0.42305901082612
  O   -0.46176717234874      1.98696905989862     -1.41365108111582
  N   -0.83510905970611     -0.48469327537311      0.99457266124143
  H   -0.41024205387764     -1.33064192855256      1.34214460001975
  H   -1.84180949795783     -0.45955654873267      0.95791362267562
  C   1.89288841504196     -1.00324656093739      0.16288785832201
  N   2.50942289466674     -1.85775967132229      0.69079813512585
