11
Coordinates from ORCA-job run
  C   -0.20864344673500      0.11688722815595     -0.04149231981059
  C   1.05675866506448     -0.01922361752014     -0.51238874349237
  H   1.44696392591938      0.68446084808850     -1.23344356109433
  N   -1.00780859482408      1.27233785070908     -0.52007493801352
  O   -0.55371152838663      1.94586762843712     -1.43739436880110
  O   -2.07477231800760      1.47271421670748      0.06079736308502
  N   -0.90024503139540     -0.69984229294944      0.78690310437095
  H   -0.36704731118518     -1.37734218934115      1.30942633501406
  H   -1.69955762997653     -0.29152913518826      1.24455792464579
  C   1.84735572073790     -1.09683733038138     -0.04416276393492
  N   2.46070754878866     -2.00649320671774      0.38627196803101
