11
Coordinates from ORCA-job run
  C   -0.29760990993587     -0.08668998982186      0.17386673800579
  C   0.91441675687901     -0.69427663464779      0.14179055868634
  H   0.98328790071652     -1.68309296741659      0.58724869264326
  N   -0.50033081974209      1.25306734807282     -0.42799215802786
  O   -1.66444269555131      1.55461913295442     -0.69456253955571
  O   0.48684503666876      1.95189707081457     -0.62054436082819
  N   -1.43057596805970     -0.55194686002165      0.76892205502500
  H   -2.28727759158141     -0.16225040448717      0.40595016992709
  H   -1.45560906734692     -1.53759057502806      0.97384453617109
  C   2.10602181657302     -0.18099197020541     -0.42757694439460
  N   3.14527454137999      0.13825584978673     -0.88094674765220
