11
Coordinates from ORCA-job run
  C   -0.30893963308407     -0.09657402775541      0.13651054934509
  C   0.87953415430551     -0.74255910226365      0.01940124805740
  H   0.89072290926381     -1.79198605293779      0.30701341726403
  N   -0.44836918713916      1.34020734181855     -0.22061731596773
  O   0.57367334972103      1.99299005254441     -0.38900581591192
  O   -1.60039015706243      1.76705738221451     -0.31273464287521
  N   -1.46490561056055     -0.62180227174257      0.62824572796519
  H   -2.29669424336939     -0.10179692123627      0.39594107666552
  H   -1.54874403327185     -1.62454147527528      0.61779125257013
  C   2.12016880418961     -0.21500963641907     -0.41799090960054
  N   3.20394364700748      0.09401471105258     -0.76355458751198
