11
Coordinates from ORCA-job run
  C   -0.18358305396823      0.15910445539318     -0.00304913169736
  C   1.05478563739315     -0.05770158471158     -0.51384404025125
  H   1.41726284298579      0.54277323368491     -1.33604409410622
  N   -1.02347642436506      1.20546009424720     -0.63656144623058
  O   -0.49977997295048      1.94005659721009     -1.46513106510073
  O   -2.20214102290999      1.24375211186653     -0.28253152416856
  N   -0.77270414559524     -0.41557266172648      1.07180326747429
  H   -0.35619018833424     -1.26650696453649      1.41717462650134
  H   -1.77739510866651     -0.34868116787557      1.11262190453441
  C   1.86092212548235     -1.07131660342776      0.05984554533950
  N   2.48129931092845     -1.93036751012404      0.57571595770516
