11
Coordinates from ORCA-job run
  C   -0.30450114213697     -0.07847937684068      0.16579482175102
  C   0.91027556585134     -0.67894612034935      0.22103844969628
  H   0.96416227008354     -1.63963704766898      0.72617027209776
  N   -0.48657123077280      1.22210901332255     -0.52217631022382
  O   -1.63892337101621      1.49834004434321     -0.85818284607329
  O   0.50460944781297      1.91681994229524     -0.70923910790153
  N   -1.45996151316094     -0.51514800439319      0.73925224602055
  H   -1.48977909324912     -1.48756244915383      0.99953921310366
  H   -2.30176487512192     -0.15392381483480      0.31670096477225
  C   2.12334919513625     -0.19172852357143     -0.32553550047721
  N   3.17910474657386      0.10815633685125     -0.75336220276565
