11
Coordinates from ORCA-job run
  C   -0.19369632562428      0.13080179199636      0.06777472704944
  C   1.11390659592870     -0.08212745920114      0.36154278270951
  H   1.64285923245424      0.59978222211854      1.01215730183825
  N   -0.84404561310425      1.34014548019808      0.63007487271519
  O   -1.96135909149075      1.61053522207026      0.18895249349994
  O   -0.23064676026382      1.98449176057494      1.47216025163322
  N   -1.04379806552862     -0.64788378207015     -0.64171678164444
  H   -0.62985127879718     -1.36330244740420     -1.21941094961596
  H   -1.86820366015910     -0.19104627843341     -0.99820554352033
  C   1.76278683977488     -1.21381247992235     -0.19019225397953
  N   2.25204812681020     -2.16658402992694     -0.68213690068531
