11
Coordinates from ORCA-job run
  C   -0.19046748361226      0.13791309640902      0.06224957542303
  C   1.16294209477216      0.07691924590329      0.13774108566731
  H   1.73146542845728      0.95172320529187      0.42004725311244
  N   -0.84334049432743      1.44243640673263      0.33572816929252
  O   -2.04229825225999      1.51656864269660      0.06547369200178
  O   -0.15446125959746      2.34583410037939      0.79360075236074
  N   -1.07515861771898     -0.85748612059451     -0.18028850356454
  H   -0.70459250381234     -1.70775481715357     -0.57608289853505
  H   -1.99020420089230     -0.56954335097539     -0.48889481560365
  C   1.81014018667092     -1.14860641269855     -0.15414288865824
  N   2.29697510232040     -2.19000399599078     -0.41443142149633
