11
Coordinates from ORCA-job run
  C   -0.31488605824582     -0.12490996618240      0.09866003037620
  C   0.90270068565218     -0.71092856338777      0.17996250443499
  H   0.95048448781857     -1.73876014104844      0.52346673065910
  N   -0.44887884357069      1.25711820723695     -0.40019938937597
  O   -1.24229728962521      1.98475374089582      0.19414271933214
  O   0.20900978394891      1.56245002210717     -1.39309164426288
  N   -1.49398800826480     -0.61555892216429      0.56870040633174
  H   -1.51033116605733     -1.59777749814149      0.79520348276404
  H   -2.34137580130754     -0.25290490518777      0.16770500330026
  C   2.12197025670238     -0.10487528569954     -0.21245743509698
  N   3.16659195294934      0.34139331157174     -0.52009240846264
