11
Coordinates from ORCA-job run
  C   -0.32356192079036     -0.14090534488226      0.04243427095129
  C   0.89243455356740     -0.73532573242599     -0.04297195516952
  H   0.94293437224153     -1.79378850052143      0.19802475418869
  N   -0.49252628774054      1.30419639077749     -0.24240042623982
  O   -1.50442864739460      1.83116684912846      0.22183749061815
  O   0.37308521106549      1.86454621205037     -0.90327193039492
  N   -1.51054515392822     -0.74307664207772      0.33035381246855
  H   -2.22024477313780     -0.12271537615625      0.68976881393019
  H   -1.45798417890324     -1.64485447075068      0.77554846034686
  C   2.11589949635222     -0.11668548287758     -0.40086971960389
  N   3.18593732866812      0.29744209773558     -0.66745357109557
