11
Coordinates from ORCA-job run
  C   -0.18015968966990      0.15962320431020     -0.03479595918383
  C   1.15572719104500     -0.00578447317470     -0.20592318544214
  H   1.78252491593184      0.84222066560697     -0.44306737315281
  N   -0.72915658428069      1.53426063163539     -0.14124905214962
  O   0.01062509578930      2.41886537057969     -0.55428979164547
  O   -1.89933842845772      1.68045047736811      0.21279937403764
  N   -1.13375703211471     -0.77822548456130      0.17273867373227
  H   -0.81876313385866     -1.69247761640516      0.45863645425828
  H   -2.00162886585506     -0.44802952168151      0.56388642341959
  C   1.70571783616330     -1.30466738761793     -0.07737923831654
  N   2.10820869530731     -2.40523586605978      0.04864367444262
