11
Coordinates from ORCA-job run
  C   -0.31931141495319     -0.13556315106276      0.07553728096724
  C   0.89683677764894     -0.73068482867268     -0.00390680675803
  H   0.97053729716356     -1.75331436413589      0.35643953306417
  N   -0.51791448511957      1.26610057793053     -0.36404485681825
  O   -1.51061755219537      1.83811672700874      0.08800308686159
  O   0.30741890695148      1.75109875742361     -1.12804614562384
  N   -1.48350130749399     -0.70636672440570      0.49118826138497
  H   -2.18206943148963     -0.05399128429276      0.81385535033706
  H   -1.40037455908133     -1.55376466579287      1.02886894990147
  C   2.09405933109045     -0.15285589498047     -0.49421969432812
  N   3.14493643747865      0.23122485098025     -0.86267495898825
