11
Coordinates from ORCA-job run
  C   -0.30044863999687     -0.11374191126394      0.13039072344519
  C   0.94621399415393     -0.61122765085886      0.32211185841467
  H   1.02791694458342     -1.48994847501755      0.95669821823445
  N   -0.49921201146779      1.18651308082038     -0.55015262626212
  O   0.25749885686893      1.47893282238798     -1.46863995291116
  O   -1.42702017592620      1.87214180230665     -0.12151743280990
  N   -1.45979320203885     -0.66566296006181      0.57487239387040
  H   -2.27372615678444     -0.07804618819577      0.62258536755685
  H   -1.58826451921256     -1.65950641143338      0.51771297305754
  C   2.13887543621718     -0.12833319725689     -0.27301601955453
  N   3.17795947360323      0.20887908857320     -0.71304550304140
