11
Coordinates from ORCA-job run
  C   -0.19017967620947      0.13494064439597      0.06852579799415
  C   1.13963685222174     -0.03165807899423      0.27991422446922
  H   1.70425439489995      0.72118152255604      0.81147236670497
  N   -0.81785463834625      1.39089487049370      0.54885254984857
  O   -1.96988144237117      1.60173410812760      0.16888148204269
  O   -0.15369620507000      2.12791003963659      1.26731556184926
  N   -1.07794659671250     -0.72384449812913     -0.48519333049772
  H   -0.69718090309858     -1.49289894788495     -1.01470758577726
  H   -1.93531092414279     -0.31570230932483     -0.82249657838629
  C   1.76579901279919     -1.20894583222644     -0.19796099586208
  N   2.23336012602986     -2.20361151865034     -0.62360349238550
