11
Coordinates from ORCA-job run
  C   -0.19042554152119      0.15084425145723     -0.01034912366852
  C   1.14847011895553      0.09459224164685     -0.22345829033094
  H   1.64746691917311      0.89008802261385     -0.75862934246816
  N   -0.93441694629406      1.30759124449671     -0.56718656415536
  O   -2.16283169132898      1.23162474709214     -0.53068181592735
  O   -0.28727438509680      2.23901357930285     -1.03007404810597
  N   -0.97348969906728     -0.68868119854096      0.70656349175579
  H   -1.96037968152846     -0.65196006595259      0.50620616083311
  H   -0.58443895863729     -1.59103305414020      0.93297707296310
  C   1.87360904684889     -1.01612083413345      0.27313153248621
  N   2.42371081849654     -1.96595893384242      0.70250092661810
