11
Coordinates from ORCA-job run
  C   -0.31719242659738     -0.15857447646022     -0.02111194248498
  C   0.92781334438257     -0.68729887341370      0.07701114598932
  H   0.99759804865786     -1.75428556361106      0.27117347307235
  N   -0.51867953308355      1.29074064847844     -0.26092891360379
  O   0.41364541310948      1.93027168904402     -0.73179552753745
  O   -1.62440113233680      1.73969360193498      0.04399539822575
  N   -1.49891559487374     -0.83355683467425      0.02647705858464
  H   -1.47108254594916     -1.75558911893202      0.43059162891776
  H   -2.29452482331636     -0.27026929044334      0.28631874771557
  C   2.15671565272647      0.00955499554329     -0.03247050497493
  N   3.23102359728062      0.48931322253385     -0.08926056390423
