11
Coordinates from ORCA-job run
  C   -0.18933763085787      0.14957273778200      0.02843081835675
  C   1.14535208794947      0.05163622452525      0.25233082348477
  H   1.71911905613571      0.93026042167164      0.51063113575443
  N   -0.81040112848641      1.49488312709078      0.11248151259061
  O   -1.97238795106075      1.58214301191824     -0.28537599140398
  O   -0.13218706978454      2.41534404845191      0.55222163422354
  N   -1.08609140321594     -0.83471767212026     -0.21537730915544
  H   -1.95255847365940     -0.54621734121527     -0.64162738118462
  H   -0.71453320212271     -1.73028857621423     -0.49234412539933
  C   1.76526997893602     -1.21729837711007      0.14462224278785
  N   2.22875573616642     -2.29531760478001      0.03400663994542
