11
Coordinates from ORCA-job run
  C   -0.31675984727291     -0.16012920165940     -0.01493940751347
  C   0.92916682150486     -0.68204235834234      0.10611724749068
  H   1.00004522164066     -1.73983614164342      0.34467660179022
  N   -0.52087427068231      1.27689219511743     -0.31672106351594
  O   -1.62784380535604      1.73631910228065     -0.03246585864075
  O   0.41048230166855      1.89732823114120     -0.81438537733528
  N   -1.49727162518151     -0.83560190190668      0.05933207102812
  H   -1.46656661786151     -1.73759865036994      0.50616526743760
  H   -2.29401327658144     -0.26315913487696      0.29459063129022
  C   2.15645112503350      0.01292294438305     -0.02888395838004
  N   3.22918397308815      0.49390491587638     -0.10248615365136
