11
Coordinates from ORCA-job run
  C   -0.18441652151017      0.15619857081210      0.02185172901667
  C   1.16873681533648      0.07404336442457      0.08092332798064
  H   1.76789544636784      0.97347084855754      0.09900976706937
  N   -0.79565638449320      1.50619201992632     -0.05766655411033
  O   -0.06914760146317      2.47753369577628      0.11297566867690
  O   -2.00150573790471      1.54276589477612     -0.30405107280611
  N   -1.10056409905992     -0.83805763734128      0.08274697021263
  H   -0.76654870690027     -1.77703313886535     -0.07068611350382
  H   -2.01962534432278     -0.61460527535258     -0.26481863118768
  C   1.77522237960700     -1.20493415810202      0.13245014427012
  N   2.22560975434291     -2.29357418461171      0.16826476438162
