11
Coordinates from ORCA-job run
  C   -0.31648816060952     -0.13608287343551      0.09243429285922
  C   0.91701307545311     -0.69869609426462      0.09709539837704
  H   0.97010788077623     -1.76241450087306      0.31543964057310
  N   -0.49206832916420      1.30997588658806     -0.18906510244546
  O   0.47358683817315      2.04644576525417     -0.03282970224057
  O   -1.61627414577054      1.65463270917357     -0.55610579223852
  N   -1.49447217735210     -0.74085782134321      0.43226229619404
  H   -1.51774760901835     -1.73998010708805      0.29557609193742
  H   -2.30285102777016     -0.26701842658985      0.05289663870564
  C   2.15231962343438     -0.05157169179136     -0.15174665641129
  N   3.22687403184800      0.38556715436986     -0.35595710531062
