11
Coordinates from ORCA-job run
  C   -0.29335730342380     -0.11149283291800      0.17036868520039
  C   0.87750037410808     -0.75254805061869     -0.06710493252279
  H   0.91258680738597     -1.81747582636400      0.14797539180214
  N   -0.44318818611244      1.33683205271651     -0.11928118144451
  O   0.57473918567490      2.01101059011045     -0.21424187744147
  O   -1.59782764549004      1.74705511448939     -0.23628267074387
  N   -1.42248075130621     -0.63846458876882      0.71809607267954
  H   -2.26941217444371     -0.13375109183434      0.50536907508158
  H   -1.49957853596929     -1.64248186133449      0.70727376434465
  C   2.06397303236071     -0.18269857763050     -0.59046019340854
  N   3.09704519721581      0.18501507215250     -1.02071213354712
