11
Coordinates from ORCA-job run
  C   -0.17863276461110      0.16337971123076     -0.02318260716640
  C   1.15488431522530     -0.00229558529716     -0.21220384293791
  H   1.78735476834968      0.85268458544843     -0.40479560183201
  N   -0.71761531373510      1.54544620162848     -0.04562318355909
  O   0.02699890612168      2.44742020808382     -0.40986984967335
  O   -1.88523137107151      1.67920975712277      0.32161881095224
  N   -1.13825385127670     -0.77780308877884      0.13516581322016
  H   -0.82940958419357     -1.70983850350148      0.36420230191884
  H   -2.00146336121274     -0.46490411290682      0.55012528206201
  C   1.69383992029973     -1.31117892417442     -0.16603202880932
  N   2.08652833610432     -2.42112024885553     -0.11040509417518
