11
Coordinates from ORCA-job run
  C   -0.31413776918820     -0.16281607927892     -0.03453176786025
  C   0.93153349441523     -0.67356281273225      0.12889623344537
  H   1.00591547731125     -1.73740958404479      0.33794959711606
  N   -0.52272581645600      1.28089353195743     -0.29972002787273
  O   -1.64779134138842      1.71790826000032     -0.05390874940379
  O   0.42284091608802      1.92813870094560     -0.73213250028054
  N   -1.48784628043783     -0.85357265418923     -0.03601453676813
  H   -2.30234814537754     -0.29842264446870      0.17833847566960
  H   -1.46695637634766     -1.77005863949946      0.38100471940658
  C   2.15508589969415      0.03850075149110      0.06993486312025
  N   3.22442994168701      0.53240116981889      0.05918369342759
