11
Coordinates from ORCA-job run
  C   -0.29753392280595     -0.04301088799603     -0.19115429602934
  C   0.86136475253528     -0.74770254296198     -0.17447161347976
  H   0.86920608464319     -1.70057587843336     -0.69692718598189
  N   -0.41673862645475      1.25006266417662      0.51952829411659
  O   -1.56421496178112      1.62211426145293      0.77090000961157
  O   0.61359252259399      1.84552026574365      0.81050748231027
  N   -1.43859413250493     -0.36752648540839     -0.86109119347581
  H   -2.28049971670559      0.04956011807700     -0.49292500108086
  H   -1.52138389614923     -1.32964897349995     -1.15031781755004
  C   2.06655449267870     -0.38359131985529      0.47475490845131
  N   3.10724740395039     -0.19420122129522      0.99319641310795
