11
Coordinates from ORCA-job run
  C   -0.29547888746471     -0.09340662189728      0.17444518503918
  C   0.88786621912969     -0.74087690541873      0.03420464060848
  H   0.92914208267404     -1.77422769515499      0.36774806036589
  N   -0.46059788571433      1.30957167318986     -0.27618046421996
  O   -1.61866867363376      1.68123391538604     -0.47065798966573
  O   0.54835804379776      1.98742579835410     -0.42622875221676
  N   -1.42711352742078     -0.57378263735326      0.76050574610886
  H   -1.48646495072399     -1.57392144938558      0.86317408325082
  H   -2.27767883394205     -0.11791509775422      0.46688298727099
  C   2.08212377245430     -0.21569124923367     -0.51880668885421
  N   3.11851264084385      0.11159026926773     -0.97308680768756
