11
Coordinates from ORCA-job run
  C   -0.46909814575321     -0.24703024152286      0.35682551736720
  C   0.76353805262731      0.07556350393258     -0.47312266957650
  Cl  -0.05461154208928     -0.60527295221699      2.02976345920671
  H   1.31712704352824      0.88342931465599      0.00850649154199
  H   -1.04937793659912     -1.07633587973201     -0.04222578965719
  H   0.44775268434972      0.42319702887360     -1.46226149800058
  N   -1.38999615988877      0.94827951983588      0.32834538660593
  O   -0.87809353420141      2.04477017122985      0.52288600795387
  O   -2.57433751878653      0.71539433887153      0.11003334586368
  C   1.60870684748259     -1.10422981845152     -0.62526237847437
  N   2.27839020933046     -2.05876498547605     -0.75348787283075
