16

C	0.0	0.0	0.0
C	-0.451025	0.651252	-1.338475
Br	1.954974	0.0	0.0
H	0.345092	1.321074	-1.67505
H	-0.266529	0.70374	0.787554
C	-0.612502	-1.354343	0.27802
H	-0.258502	-2.100993	-0.438447
H	-1.699014	-1.239869	0.197916
H	-0.364723	-1.699484	1.283243
N	-1.698182	1.334455	-1.357937
H	-2.491902	0.77723	-1.020977
H	-1.638859	2.170076	-0.788134
N	-0.478257	-0.445198	-2.388911
O	-1.572529	-0.8243	-2.783617
O	0.6139	-0.908615	-2.724639
Cl	-4.269829	0.0	0.0
