16

C	0.0	0.0	0.0
C	-0.590106	0.107164	-1.388225
Br	1.944608	0.0	0.0
H	-1.678491	0.171851	-1.219414
H	-0.283206	0.892878	0.554427
C	-0.487767	-1.254695	0.702825
H	-1.580702	-1.230458	0.713627
H	-0.116886	-1.27759	1.729934
H	-0.146033	-2.143639	0.172687
N	-0.264032	-0.970916	-2.243325
H	-0.8758	-0.981282	-3.047301
H	0.695918	-0.906366	-2.556305
N	-0.203647	1.476541	-1.977414
O	-0.359411	2.462489	-1.264994
O	0.216523	1.504437	-3.134345
Cl	-3.746485	0.0	0.0
