16

C	0.0	0.0	0.0
C	-0.365937	0.110296	-1.498066
Br	1.951649	0.0	0.0
H	0.162228	0.972722	-1.90637
H	-0.288236	0.96095	0.430918
C	-0.615324	-1.124111	0.79996
H	-0.297862	-2.09799	0.436565
H	-1.705732	-1.042332	0.726503
H	-0.337018	-1.020237	1.850958
N	-1.733567	0.141316	-1.830183
H	-2.020882	1.024099	-2.220147
H	-2.414311	-0.136085	-1.121141
N	0.280153	-1.045183	-2.280625
O	0.016959	-2.19236	-1.9353
O	0.966237	-0.737708	-3.255645
Cl	-4.277251	0.0	0.0
