16

C	0.0	0.0	0.0
C	-0.449278	-0.064229	-1.47306
Br	1.951206	0.0	0.0
H	0.138351	0.661861	-2.036031
H	-0.265843	1.011383	0.321349
C	-0.610036	-1.001532	0.951568
H	-0.333542	-2.024735	0.702264
H	-0.29673	-0.780459	1.974721
H	-1.699952	-0.898369	0.893218
N	-1.827025	0.125694	-1.748146
H	-2.050762	1.106355	-1.831637
H	-2.502674	-0.271286	-1.092134
N	-0.038663	-1.391555	-2.075253
O	0.85319	-1.386483	-2.923836
O	-0.647508	-2.386601	-1.689849
Cl	-4.432215	0.0	0.0
