16

C	0.0	0.0	0.0
C	-0.584238	0.120051	-1.407639
Br	1.954473	0.0	0.0
H	-1.643966	0.362998	-1.244156
H	-0.26994	0.904398	0.544503
C	-0.51559	-1.229604	0.715479
H	-0.179448	-2.14209	0.218661
H	-1.609051	-1.181391	0.710313
H	-0.15816	-1.24581	1.746625
N	-0.481535	-0.998384	-2.278776
H	0.40345	-1.479751	-2.187954
H	-1.253838	-1.625578	-2.101803
N	0.029248	1.345621	-2.053037
O	0.735592	1.205915	-3.045863
O	-0.200959	2.415354	-1.490822
Cl	-3.720028	0.0	0.0
