17

C	-0.531723	-0.019607	-1.425491
C	0.0	0.0	0.0
F	-1.888612	0.071526	-1.458822
H	1.09158	0.0	0.0
N	0.006415	1.253497	-2.117707
O	1.146817	1.187931	-2.5463
O	-0.757481	2.210115	-2.153829
C	-0.091085	-1.14954	-2.247845
N	0.24881	-2.050002	-2.921582
N	-0.428055	-1.25414	0.702269
O	-1.046875	-2.110379	0.066852
O	-0.12695	-1.339642	1.887445
C	-0.494637	1.196419	0.795985
H	-0.077522	1.123359	1.798592
H	-1.585197	1.224752	0.846724
H	-0.131122	2.120225	0.347704
Cl	3.207858	0.0	0.0
