17

C	-0.520764	0.003748	-1.422201
C	0.0	0.0	0.0
F	0.002563	1.092238	-2.066018
H	1.091548	0.0	0.0
N	-0.051973	-1.19629	-2.251794
O	-0.637362	-1.334792	-3.322369
O	0.887777	-1.846612	-1.829489
C	-1.986533	0.08216	-1.520729
N	-3.149711	0.241281	-1.560312
N	-0.486456	-1.216205	0.702156
O	-1.171251	-2.020551	0.059762
O	-0.192935	-1.331971	1.885792
C	-0.459606	1.233118	0.764237
H	-0.13343	2.124359	0.227908
H	-1.54575	1.256419	0.893845
H	0.025683	1.226162	1.739131
Cl	3.238031	0.0	0.0
