17

C	-0.535613	-0.021233	-1.416131
C	0.0	0.0	0.0
F	-0.019553	1.054754	-2.084655
H	1.091538	0.0	0.0
N	-0.080182	-1.2343	-2.232514
O	0.838466	-1.904048	-1.792783
O	-0.653238	-1.362536	-3.311652
C	-2.002306	0.059135	-1.497424
N	-3.164049	0.230552	-1.51929
N	-0.488942	-1.19619	0.735708
O	-1.206438	-1.997377	0.127804
O	-0.162683	-1.29689	1.911582
C	-0.443079	1.252119	0.742119
H	-1.526997	1.291157	0.881502
H	-0.111701	2.127538	0.183961
H	0.053418	1.260713	1.711193
Cl	3.214242	0.0	0.0
