17

C	-0.524229	-0.002326	-1.42058
C	0.0	0.0	0.0
F	-0.003265	1.082968	-2.069403
H	1.091483	0.0	0.0
N	-0.058157	-1.205833	-2.247779
O	0.823765	-1.909696	-1.7867
O	-0.588291	-1.293497	-3.352023
C	-1.990112	0.076421	-1.518487
N	-3.151939	0.244171	-1.562085
N	-0.492878	-1.204553	0.719222
O	-1.22708	-1.986735	0.106432
O	-0.155499	-1.328173	1.890058
C	-0.446874	1.24284	0.755326
H	-0.107977	2.125374	0.212757
H	-1.532251	1.282329	0.884891
H	0.040061	1.236765	1.729507
Cl	3.217811	0.0	0.0
