17

C	-0.559243	-0.082178	-1.412771
C	0.0	0.0	0.0
F	-1.901424	-0.322956	-1.37979
H	1.091272	0.0	0.0
N	-0.384647	1.31094	-2.047682
O	-1.38153	2.017539	-2.097788
O	0.74901	1.587615	-2.407471
C	0.071324	-1.03346	-2.331314
N	0.484538	-1.755315	-3.160509
N	-0.404746	-1.270027	0.692446
O	-0.363718	-2.302112	0.027778
O	-0.713559	-1.21177	1.879207
C	-0.492206	1.216116	0.757773
H	-0.140409	1.144433	1.784392
H	-1.580536	1.301168	0.752161
H	-0.047706	2.111467	0.321418
Cl	3.18708	0.0	0.0
