17

C	-0.579733	-0.074285	-1.402135
C	0.0	0.0	0.0
F	-1.937104	-0.191458	-1.355335
H	1.091562	0.0	0.0
N	-0.28618	1.279378	-2.078993
O	0.846788	1.419052	-2.512893
O	-1.200493	2.092456	-2.090298
C	-0.041514	-1.102869	-2.295674
N	0.306814	-1.887968	-3.096889
N	-0.398826	-1.252283	0.72669
O	-0.65837	-2.249474	0.05389
O	-0.390521	-1.218294	1.953233
C	-0.464598	1.229782	0.758686
H	-1.549075	1.349308	0.738315
H	-0.122684	1.139596	1.786973
H	0.010658	2.113095	0.332038
Cl	3.185008	0.0	0.0
