12

C	0.0	0.0	0.0
C	-0.417951	0.012563	-1.533794
Cl	1.760062	0.0	0.0
H	-1.51445	0.152708	-1.537374
H	-0.258713	-0.868684	0.593298
H	0.00641	0.8734	-2.026891
N	-0.668994	1.122362	0.679552
O	-0.567752	2.210087	0.008584
O	-0.902279	1.098631	1.945353
C	-0.184713	-1.257992	-2.157049
N	-0.046869	-2.322123	-2.646341
H	-1.883674	0.0	0.0
