12

C	0.0	0.0	0.0
C	-0.544477	-0.206436	-1.394051
Cl	1.760008	0.0	0.0
H	-0.261318	0.63777	-2.024823
H	-0.39523	-0.71346	0.717756
H	-1.665965	-0.193066	-1.162696
N	-0.410854	1.361965	0.516088
O	-0.513308	2.270276	-0.300966
O	-0.477633	1.47912	1.733694
C	-0.092256	-1.449362	-1.982939
N	0.249194	-2.453756	-2.491078
H	-2.775124	0.0	0.0
