12

C	0.0	0.0	0.0
C	-0.512351	0.059592	-1.416362
Cl	1.760059	0.0	0.0
H	-0.101381	0.920861	-1.948398
H	-0.455462	-0.819547	0.543361
H	-1.627015	0.144691	-1.243644
N	-0.380997	1.2597	0.751702
O	-0.441899	2.302966	0.111962
O	-0.440417	1.163772	1.970678
C	-0.164386	-1.163281	-2.106133
N	0.079866	-2.16926	-2.659449
H	-2.724436	0.0	0.0
