12
Coordinates from ORCA-job run
  C   0.93691043467790      0.34489169618588     -0.36705116426044
  C   -0.35806529863359     -0.43423153281355     -0.09135632903198
  Br  0.64577910494773      2.26644743093943     -0.21157536542349
  H   -0.09461870057433     -1.49486488936941     -0.18144733206084
  H   1.21385168145563      0.16519869241545     -1.40758864874392
  C   2.00867970501435     -0.06503936859619      0.52809140541902
  N   2.86290362608219     -0.43546003693120      1.24480807165151
  N   -1.33246226034620     -0.13144418703207     -1.12279789557045
  H   -1.69980237086044      0.80405465036713     -0.99022863376135
  H   -2.10809225423276     -0.78071972373791     -1.06403683035892
  C   -0.82204006683980     -0.20745254902427      1.29186792663339
  N   -1.25404360069069     -0.03238018240329      2.37031479550747
