12
Coordinates from ORCA-job run
  C   1.05579007062137     -0.25206961133991     -0.34406068401313
  C   -0.47461394936616     -0.43344494458793     -0.28213166030777
  Br  1.62011943660500      0.15601585379557     -2.15782407776319
  H   -0.74540989370766     -1.14710727622476     -1.06585505863125
  H   1.55383864462148     -1.18502830999549     -0.07169628588690
  C   1.47383934966222      0.80951688865183      0.56201443934111
  N   1.75596074678510      1.67004944468231      1.31076307522547
  N   -1.14610623721039      0.81885565751232     -0.54876005095774
  H   -2.12558911188601      0.66248973927685     -0.74824354972180
  H   -1.07791434606021      1.44242576238618      0.24749507039971
  C   -0.80318537669420     -1.04408979366169      1.02507405284154
  N   -1.08472933337055     -1.49761341049528      2.07222472947396
