12
Coordinates from ORCA-job run
  C   0.91357987098971      0.54142312416265      0.02743647258594
  C   -0.44835288684517     -0.12021939223126      0.32494852637796
  Br  1.69455232733983      1.29186831541916      1.64201082937119
  H   -0.29808030865565     -0.85407364014307      1.13013328608845
  H   0.76297886535704      1.35962918168610     -0.67869556795184
  C   1.81399809777236     -0.45082711096403     -0.54281036808589
  N   2.49540310951018     -1.29301092868831     -0.99769290539316
  N   -0.94053445823832     -0.67712383521632     -0.92920961435290
  H   -1.94444086218894     -0.80268167289226     -0.90084812736737
  H   -0.50923892859954     -1.57766934207463     -1.10111807959754
  C   -1.38673620762084      0.89399104267749      0.81430741906739
  N   -2.15312861882067      1.68869425826446      1.21253812925777
