12
Coordinates from ORCA-job run
  C   1.08264883092586     -0.17333711023139     -0.30530799040590
  C   -0.41730927656403     -0.52210850009563     -0.21734548522715
  Br  1.62520848941242      0.03672749756478     -2.15903020432106
  H   -0.59084003246711     -1.36652487980156     -0.89087063312860
  H   1.68106716455924     -0.99344886140541      0.09720849692069
  C   1.35994151628078      1.04757475437992      0.43981398225014
  N   1.52914431656017      2.03247633818571      1.05785354128316
  N   -1.22497192356578      0.59235851181102     -0.65982273543278
  H   -1.24163400567976      1.32672590439794      0.03866643825722
  H   -2.17654011395962      0.29586196675825     -0.83335927579024
  C   -0.69352856117677     -0.97450083209923      1.16431108359154
  N   -0.93518640432539     -1.30180478946439      2.26688278200297
