12
Coordinates from ORCA-job run
  C   0.88224834010376      0.53796508891797      0.24760524254969
  C   -0.42430262687782     -0.28257132874844      0.24920976637179
  Br  1.68818174999791      0.57195271991377      2.01674760382990
  H   -0.19608342314013     -1.27935836000638      0.65381620124570
  H   0.65377266138386      1.56778434539125     -0.03175595461532
  C   1.81329069432015     -0.04322748116341     -0.70947961786470
  N   2.52656204244067     -0.54705180106271     -1.49551567633867
  N   -0.93918292868128     -0.27712810046726     -1.11476718787481
  H   -1.93334901054546     -0.46645399976063     -1.12786206291056
  H   -0.46989375081703     -0.98703271721302     -1.66462770959913
  C   -1.39759009146272      0.35183499136979      1.14318152509591
  N   -2.20365365672191      0.85328664282905      1.83344787011022
