12
Coordinates from ORCA-job run
  C   0.86234329272178      0.23898868373118     -0.39123681650727
  C   -0.46701167613685     -0.43715566074503      0.04443372483750
  Br  0.67447658490735      2.17582465533281     -0.45405634310326
  H   -0.25929618086930     -1.51484129295702      0.05813507459780
  H   1.08897775426765     -0.07319389568619     -1.41405807582119
  C   1.96390374488000     -0.13010683491755      0.48511727006973
  N   2.83867082946602     -0.47501369691191      1.19019551838838
  N   -1.60295623231226     -0.21426025124844     -0.81798615611190
  H   -1.81078006035545      0.77383374418298     -0.89448974461656
  H   -1.43514911839104     -0.59269902345511     -1.74177941813561
  C   -0.79725183217914     -0.03688871455378      1.41851272587128
  N   -1.05492710599876      0.28551228722808      2.51721224053111
