12
Coordinates from ORCA-job run
  C   0.91582467601057      0.49215946971805      0.18750823198247
  C   -0.40538743950443     -0.30020225617262      0.24003765748352
  Br  1.60767384038894      0.80162691519866      1.98073046363562
  H   -0.18946357310948     -1.26893508962119      0.70041936966020
  H   0.73908928204128      1.47858766712981     -0.24868149750215
  C   1.90262146589398     -0.22753018647648     -0.60511795735901
  N   2.71836060085126     -0.79539776777524     -1.23070945796104
  N   -0.85137789954431     -0.51997096789429     -1.12357747590116
  H   -1.46269301454881     -1.32408997229674     -1.17920461258703
  H   -1.35218987954362      0.28627936462194     -1.47674650789491
  C   -1.38959615977257      0.40536247279174      1.08195089181408
  N   -2.23186189916282      0.97211035077635      1.67339089462940
