12
Coordinates from ORCA-job run
  C   0.95470702297940      0.21629839397919     -0.41809572870540
  C   -0.39447598878008     -0.40855380653886     -0.03161337850115
  Br  0.82723623205618      2.15974439964139     -0.50494965430383
  H   -0.22240175964467     -1.49062437274884      0.01198441988315
  H   1.19423066967601     -0.11629392902202     -1.42992541852462
  C   2.00735934245752     -0.16740353549002      0.51086713270300
  N   2.84655021808847     -0.51531574408166      1.25601709049987
  N   -1.36232375001771     -0.15600955834593     -1.08193058332171
  H   -2.18842215149102     -0.72307613746891     -0.93329702386736
  H   -1.64601198121348      0.81702228148432     -1.06759967127082
  C   -0.80773291973557      0.02871102076212      1.31733565901883
  N   -1.20871493437506      0.35550098782919      2.37220715639010
