12
Coordinates from ORCA-job run
  C   0.96271781346301     -0.32374359351700     -0.31230832106750
  C   -0.57682922406286     -0.48677067696362     -0.14892856683518
  Br  1.38944811248365     -0.03791650652053     -2.19340614823875
  H   -0.87997486103215     -1.29651992108174     -0.82115226050780
  H   1.47937270163489     -1.24076684648227     -0.01977954344580
  C   1.44111091560454      0.80076384636441      0.47732340953276
  N   1.76522919794547      1.72659583429140      1.12450303436990
  N   -1.38518356034302      0.67098730479833     -0.43713651531524
  H   -1.28521507958887      0.94281638558669     -1.40680448257557
  H   -1.13604856606304      1.45200933992542      0.15849742424690
  C   -0.81462894694646     -0.93052744800928      1.23285546730609
  N   -0.96099850309515     -1.27592771839180      2.34533650253019
