12
Coordinates from ORCA-job run
  C   0.90249394171934      0.43100559722501     -0.36363075078105
  C   -0.32498433992228     -0.45617293076417     -0.10486901544280
  Br  0.46573408715498      2.31680780316170     -0.13213775839854
  H   0.01886589260738     -1.48889188348788     -0.23801877127932
  H   1.17877982229939      0.31151819814919     -1.41300791504469
  C   2.01385802282056      0.07210325002810      0.50466994499284
  N   2.89850109097312     -0.26005762785439      1.20297849213934
  N   -1.33310516394552     -0.19145031112964     -1.11366300134058
  H   -2.05467001289430     -0.90129844455852     -1.07454303502300
  H   -1.77011221878016      0.70685751236285     -0.94179148882354
  C   -0.78586160000659     -0.31833596419546      1.29119574002910
  N   -1.21149952202586     -0.22008519893676      2.38181755897226
