12
Coordinates from ORCA-job run
  C   0.91517932916730      0.50395888068288     -0.20156175693704
  C   -0.41880430098387     -0.00755257623970      0.38084527041083
  Br  1.82064537932532      1.67973712335034      1.05400471217904
  H   -0.20503092135078     -0.47597767153445      1.35253423629097
  H   0.70954343641665      1.07933571565578     -1.10574186148959
  C   1.76772225406178     -0.63326372239936     -0.51929722308179
  N   2.41205317345303     -1.58628248911200     -0.75816795652945
  N   -1.01067146343969     -0.89660645776167     -0.61185574991408
  H   -2.00956073516841     -0.98115177857866     -0.47193301859002
  H   -0.59754913507062     -1.81898317672464     -0.53965685977856
  C   -1.31548728091045      1.12762028983757      0.61793821306223
  N   -2.06803973550025      2.00916586282391      0.80289199437749
