12
Coordinates from ORCA-job run
  C   1.05105617261428     -0.17028781840035     -0.39762630688779
  C   -0.46326395293212     -0.44156205017738     -0.28732366828284
  Br  1.51594495497911      0.36841143761621     -2.20546566289946
  H   -0.72764249554926     -1.12517025289656     -1.09948498526010
  H   1.61081444969851     -1.08655001221127     -0.19824950813770
  C   1.44876047172321      0.86146266640451      0.55122361988147
  N   1.73035345303980      1.68810998604534      1.33729797528446
  N   -1.21241169147149      0.78345955119370     -0.45497898635390
  H   -2.18883860181526      0.58331616835322     -0.62853238588713
  H   -1.14806120437120      1.36369416104510      0.37374651183858
  C   -0.70247055319617     -1.14239516904920      0.99415225089824
  N   -0.91424100271938     -1.68248866792334      2.01624114580621
