12
Coordinates from ORCA-job run
  C   0.83979568048323      0.52562996011975     -0.05624026534391
  C   -0.44289347807308     -0.18884257408636      0.45341594398766
  Br  1.83708781596918      1.31689348559652      1.41572099880152
  H   -0.13361883792714     -0.90618589451649      1.22068000611248
  H   0.56775916815291      1.34586674785552     -0.72562004049133
  C   1.67640061494512     -0.43440605560814     -0.76268633311476
  N   2.30084694009366     -1.25122216364401     -1.33174578830387
  N   -1.17973659707682     -0.89991134902015     -0.56732261725438
  H   -0.63145649957919     -1.65748413976483     -0.95482259325634
  H   -1.48558149520346     -0.28455094414562     -1.31054416538023
  C   -1.31956186046497      0.80835419597296      1.08096419836674
  N   -2.02804145131944      1.62585873124083      1.53620065587642
