12
Coordinates from ORCA-job run
  C   1.04758290751908     -0.07144385221354     -0.30457761118027
  C   -0.43611986855223     -0.47141356864558     -0.20637297638627
  Br  1.42492783538764      0.57790125260766     -2.10853523854023
  H   -0.61031754262254     -1.22898137105801     -0.98625589496681
  H   1.68025615802427     -0.95183168401448     -0.17327802802232
  C   1.40271533133129      0.94551163490422      0.67442009027532
  N   1.72302936464753      1.73849481072304      1.47955420040382
  N   -1.27592559324020      0.70850979878753     -0.30088673454807
  H   -2.22781096191833      0.49145311304706     -0.03406745652140
  H   -1.27832079043140      1.05238673779723     -1.25347709810921
  C   -0.64250422071326     -1.12249655880239      1.09399886920326
  N   -0.80651261943186     -1.66809031313273      2.12047787839218
