12
Coordinates from ORCA-job run
  C   0.99336079497933     -0.24532939817977     -0.28576095410733
  C   -0.51763049036020     -0.56168724196849     -0.08586854938024
  Br  1.38566477895878     -0.13026373306441     -2.19249421734226
  H   -0.72595177346148     -1.47248539385114     -0.65733990922982
  H   1.61091718628694     -1.05853427850360      0.10248940897492
  C   1.34041424945251      1.00876884174467      0.36517246758705
  N   1.55595886569248      2.03057315754114      0.90423478332220
  N   -1.45239483701798      0.45641022610961     -0.49389761317455
  H   -1.38155708037078      0.62692488140335     -1.48892003782001
  H   -1.29602765033758      1.32271644366195      0.00790010277254
  C   -0.70404866827330     -0.86903851735196      1.34026613536225
  N   -0.80870537554876     -1.10705498754135      2.48521838303524
