12
Coordinates from ORCA-job run
  C   0.93101596553259      0.50017037061930     -0.03812408358724
  C   -0.40425725792825     -0.16822745903060      0.34348344450707
  Br  1.67585139755487      1.47467740277754      1.47322674270978
  H   -0.19755265679017     -0.88387866826971      1.14484720472086
  H   0.76374236513050      1.23704887023403     -0.82773792693769
  C   1.88167170381576     -0.50420880170808     -0.49439171890430
  N   2.66166102291883     -1.30948303967648     -0.84418659738647
  N   -0.89098334424458     -0.89240724996406     -0.81636158328231
  H   -1.51770022463861     -1.63717971413745     -0.54062373622809
  H   -1.38763347798568     -0.27592007221558     -1.44796246736765
  C   -1.35093085665453      0.84018267002479      0.85632246670399
  N   -2.16488463671074      1.61922569134632      1.18950825505206
