12
Coordinates from ORCA-job run
  C   0.94015122274518      0.22411353135321     -0.44512580180103
  C   -0.38656909324496     -0.41891347325727     -0.01264471278612
  Br  0.76826293875570      2.16130357190953     -0.58212023176477
  H   -0.18975157451222     -1.49566804124629      0.05277025620970
  H   1.16547198133146     -0.13104091573674     -1.45262971388515
  C   2.02008927142735     -0.11175270508827      0.47098656642713
  N   2.87811260283278     -0.42300715603533      1.21099609843669
  N   -1.38312772551934     -0.21302283178624     -1.04591343244471
  H   -1.69061846491284      0.75272737407638     -1.04626929449705
  H   -2.19106156898036     -0.79742504593374     -0.86793817789915
  C   -0.77798778663252      0.04374105830934      1.33392847598889
  N   -1.15497180329020      0.40894463343542      2.38495996801558
