12
Coordinates from ORCA-job run
  C   0.84990308152492      0.51119817428085     -0.03700493906004
  C   -0.46899714100092     -0.15939763502159      0.43818051422849
  Br  1.78389264701512      1.35567751827209      1.44705062923230
  H   -0.21274478393992     -0.84014061079813      1.25676578675327
  H   0.62646179816778      1.30398075451385     -0.75559699224028
  C   1.70474134692946     -0.49175827632381     -0.65609291504468
  N   2.34357432497470     -1.34381251705361     -1.15292004038964
  N   -1.16246826891510     -0.91210756075955     -0.58283165695938
  H   -1.41575958846926     -0.33268085184973     -1.37328749105696
  H   -0.60803587882463     -1.69761614425191     -0.89939828498437
  C   -1.36149926978693      0.87991127986749      0.96792145225154
  N   -2.08006826767523      1.72674586912405      1.34721393726976
