12
Coordinates from ORCA-job run
  C   1.02711665073263      0.05183413443908     -0.37073965198149
  C   -0.42445552391595     -0.45233139540572     -0.26940167338188
  Br  1.25101619417432      1.05122179265421     -2.03487685605068
  H   -0.61034272984471     -1.06122217046971     -1.16775321389499
  H   1.71159680211162     -0.79581994544196     -0.44523949678617
  C   1.39187155470732      0.88714068507164      0.76415830263148
  N   1.71723061588154      1.53460291019696      1.68854976918125
  N   -1.32844019383856      0.66936232315127     -0.09251845274476
  H   -1.41153158019562      1.18336432062215     -0.96121815910104
  H   -2.24816787447584      0.34701452832709      0.18073994094088
  C   -0.50977969886386     -1.34387925556433      0.89471087075780
  N   -0.56611421647290     -2.07128792758067      1.81458862042958
