12
Coordinates from ORCA-job run
  C   0.91461947981854      0.52191458561387      0.14028535523900
  C   -0.40140471408306     -0.26714163437431      0.29912936742503
  Br  1.90299149010696      0.57553684375404      1.81433442105872
  H   -0.15299015379787     -1.26005845287447      0.70131806450855
  H   0.68030147779878      1.55078601281538     -0.13766239541702
  C   1.72770803470936     -0.10133275815123     -0.89446578289136
  N   2.34444700436727     -0.63591418227486     -1.73963223518222
  N   -1.05722775814438     -0.27921280868973     -1.00311043014903
  H   -2.05044233336565     -0.44872802685610     -0.90696516815571
  H   -0.66167305835374     -1.01013697453237     -1.58268460319686
  C   -1.26165930246423      0.40937613802166      1.27434474155765
  N   -1.98267016659196      0.94191125754812      2.03210866520326
