12
Coordinates from ORCA-job run
  C   0.98693309474178     -0.10749637969810     -0.37128290761092
  C   -0.46658188987560     -0.60005602536733     -0.11370289471270
  Br  1.22598022487107      0.24297473733186     -2.27498955676614
  H   -0.62716753105991     -1.46375379075537     -0.76766781327274
  H   1.70870028473940     -0.88609152154825     -0.11379200882360
  C   1.25735927524002      1.10277235348611      0.38950613266314
  N   1.42668469122574      2.07796668021316      1.02303185072728
  N   -1.52392403488555      0.35124686937153     -0.34907622744173
  H   -1.54382922074030      0.62705096932058     -1.32262066265125
  H   -1.41396298447428      1.17496779418839      0.23087113251704
  C   -0.51788553350298     -1.07087521302298      1.27857287791090
  N   -0.51230637627940     -1.44570647351958      2.39115007746073
