12
Coordinates from ORCA-job run
  C   0.90887999660706      0.41915581423261     -0.36008129127143
  C   -0.33038532024370     -0.45281364090905     -0.10563700241410
  Br  0.49313641092625      2.31084532743868     -0.13590918638034
  H   0.00219299233254     -1.48976149967852     -0.23411988301099
  H   1.18973811770512      0.29404429769301     -1.40760412751755
  C   2.01132288367618      0.04995444898283      0.51505413739190
  N   2.88842470142186     -0.29066195231961      1.21884370955034
  N   -1.33005817737708     -0.17856789232703     -1.12038668058011
  H   -2.06096137497419     -0.87882934952839     -1.08293583097079
  H   -1.75577029818566      0.72602851648255     -0.95342065117523
  C   -0.79675982448119     -0.30551161447958      1.28761151511730
  N   -1.22076010740718     -0.20388245558746      2.37858529126098
