12
Coordinates from ORCA-job run
  C   1.05203400700090     -0.16219157881991     -0.40284294972212
  C   -0.46996768059776     -0.40298116395681     -0.33110568646739
  Br  1.55024513189426      0.52814372321943     -2.14905587876828
  H   -0.74233173946244     -1.00170231470432     -1.20530077362088
  H   1.58628383960871     -1.10721375853819     -0.28371284459451
  C   1.46359813432360      0.76791226249777      0.64038112360979
  N   1.74196423465926      1.51898537968358      1.50006004371694
  N   -1.18600303340021      0.85131827393088     -0.39153373424245
  H   -2.16407246017289      0.69467713926811     -0.59716956112021
  H   -1.12009150917062      1.34938360678569      0.48884285599673
  C   -0.74032390933795     -1.21137119633750      0.87851296791136
  N   -0.97133501534490     -1.82496037302874      1.85392443730096
