12
Coordinates from ORCA-job run
  C   0.88320484443102      0.58243517543958     -0.10932367279929
  C   -0.42460222464200     -0.08463292212289      0.36549922177102
  Br  1.68622714257305      1.63636142559691      1.31358001818303
  H   -0.19807562069595     -0.66250043479425      1.27336062946071
  H   0.65578194259283      1.25922511023274     -0.93455680199827
  C   1.81488702005706     -0.44628611343771     -0.54983859324811
  N   2.52734445759724     -1.31411255415254     -0.89589154948713
  N   -0.93849993501806     -0.86966265062928     -0.75011671647800
  H   -1.93155278271637     -1.03693985471338     -0.64877158771832
  H   -0.46479717426549     -1.76439278956864     -0.79098370107117
  C   -1.39836329219189      0.95046571993375      0.72523738345999
  N   -2.21255437772146      1.74903988821572      1.00280536992557
