12
Coordinates from ORCA-job run
  C   0.85993912400552      0.18223889550809     -0.42484498959403
  C   -0.47662914178387     -0.42103399674687      0.08848880634169
  Br  0.72221917804307      2.11295358892345     -0.63449421265391
  H   -0.29714320610629     -1.49995074949586      0.18043818969338
  H   1.05645474378803     -0.21370183476883     -1.42462884270914
  C   1.97062015908706     -0.14921033017545      0.45526046641329
  N   2.85633803865564     -0.46317150913934      1.16109837226867
  N   -1.62597694479753     -0.23277197362918     -0.76456444028845
  H   -1.48820261209617     -0.68360468487151     -1.66048763574335
  H   -1.80932550021946      0.75223875712616     -0.91163611725555
  C   -0.76569252658575      0.09331491456796      1.43361981520200
  N   -1.00060131199023      0.52169892270134      2.50075058832538
