12
Coordinates from ORCA-job run
  C   0.94678779831905      0.21509915289420     -0.43361669424954
  C   -0.39009626252941     -0.41610081088548     -0.01537873395155
  Br  0.79533203058278      2.15383565770144     -0.56930435524451
  H   -0.20338721143274     -1.49459943593501      0.05098700820044
  H   1.17777965237870     -0.14135333548055     -1.43929620885523
  C   2.01524133960167     -0.13231347500435      0.49152707727160
  N   2.87037587040145     -0.45161117997028      1.23134458017505
  N   -1.37343475047504     -0.20087616246396     -1.05984739478629
  H   -1.67008644328042      0.76837198350541     -1.06425998902066
  H   -2.18970262357782     -0.77573036648950     -0.88872110162595
  C   -0.79334764017098      0.05057212513534      1.32625955580461
  N   -1.18546175981720      0.42570584699274      2.36830625628204
