12
Coordinates from ORCA-job run
  C   0.93825747283087      0.26943605658451     -0.42253734349503
  C   -0.37394256760715     -0.42930376900198     -0.03513697959989
  Br  0.71289171349823      2.20513576297552     -0.47644689875018
  H   -0.14651635936432     -1.50178223571374     -0.01234046131848
  H   1.18443907006554     -0.03439464858110     -1.44180913525678
  C   2.01738775310097     -0.07575856443309      0.49088911345324
  N   2.87526632279780     -0.39262371159024      1.22860096732310
  N   -1.36324139898536     -0.20881629123655     -1.07272218235583
  H   -2.15904535929620     -0.81800954824966     -0.92573088600416
  H   -1.69374692900839      0.74889392106734     -1.04080333988147
  C   -0.79590158716539     -0.03524887486878      1.32406843169677
  N   -1.19684813086662      0.27147190304779      2.38496871418871
