12
Coordinates from ORCA-job run
  C   0.85388199511373      0.23180823556375     -0.41448067869700
  C   -0.46248305681839     -0.43876582127320      0.06672793765155
  Br  0.64890532235374      2.16358092079736     -0.54223173465291
  H   -0.24579147932712     -1.51365790321467      0.11548799169030
  H   1.06637098533231     -0.11477819111232     -1.42923712082372
  C   1.97229278043155     -0.09738010428760      0.45649387423420
  N   2.85682991362578     -0.40655893600047      1.16593611153422
  N   -1.61398765630282     -0.25565042692699     -0.78457591946249
  H   -1.83122313221791      0.72750137731156     -0.89246652856707
  H   -1.45710931646729     -0.66479169807635     -1.69716623186878
  C   -0.77400487035105      0.00736431476071      1.43100952542211
  N   -1.01468148537254      0.36232823245823      2.52350277353960
