12
Coordinates from ORCA-job run
  C   0.86074103036506      0.21045222113651     -0.41490070266814
  C   -0.46346240096029     -0.43636417538092      0.07804805210888
  Br  0.67186825242960      2.13976459913303     -0.59898386556099
  H   -0.25472444638504     -1.51112315941449      0.15584298413544
  H   1.07566511436862     -0.16581815466203     -1.41845274227632
  C   1.97148354662818     -0.10261761605641      0.47129563160599
  N   2.84978401473403     -0.40566516994109      1.19108579042929
  N   -1.60991665491011     -0.26710138244672     -0.78263845079605
  H   -1.82166174038043      0.71441757930021     -0.91362743233744
  H   -1.45160836861413     -0.69823283154287     -1.68477920330077
  C   -0.77954388320672      0.05166965841572      1.42671667448456
  N   -1.04762446406877      0.47161843145909      2.48939326417555
