17

C	0.0	0.0	0.0
C	-0.530742	0.036883	-1.439252
F	1.387357	0.0	0.0
H	-1.626683	0.130348	-1.340282
C	-0.470969	1.180533	0.824326
H	-0.048298	1.10982	1.828609
H	-0.121587	2.10237	0.353907
H	-1.56225	1.16783	0.869931
C	-0.384972	-1.27561	0.640395
N	-0.554079	-2.309702	1.170108
C	-0.185395	-1.221507	-2.238968
H	0.890581	-1.408603	-2.225847
H	-0.510591	-1.107712	-3.274703
H	-0.706951	-2.078132	-1.809453
C	-0.00285	1.226983	-2.106133
N	0.433006	2.161326	-2.669233
Br	-3.795822	0.0	0.0
