17

C	0.0	0.0	0.0
C	-0.528384	-0.042655	-1.439326
F	1.389203	0.0	0.0
H	-1.626087	0.033072	-1.343117
C	-0.473032	1.221435	0.760326
H	-0.059585	1.199102	1.770795
H	-0.115007	2.117228	0.247737
H	-1.564752	1.216354	0.798596
C	-0.382163	-1.241793	0.706536
N	-0.548766	-2.246161	1.291483
C	-0.151171	-1.328642	-2.178441
H	-0.490039	-1.277433	-3.214707
H	0.930689	-1.479765	-2.168311
H	-0.639436	-2.17982	-1.701001
C	-0.027231	1.126079	-2.162758
N	0.389442	2.040946	-2.77069
Br	-3.798474	0.0	0.0
