15

C	0.0	0.0	0.0
C	-0.475586	0.180719	-1.442479
Br	2.011017	0.0	0.0
H	-1.570804	0.192546	-1.407494
H	-0.096457	-0.623243	-2.071986
N	-0.469536	1.073106	0.801903
H	-0.21391	0.922622	1.771455
H	-1.494597	1.053529	0.720365
N	-0.45849	-1.282663	0.406951
H	-0.011913	-2.043983	-0.085058
H	-0.393831	-1.410926	1.406765
N	-0.020797	1.450045	-2.062018
O	0.967905	1.404196	-2.799777
O	-0.673223	2.463187	-1.818207
Br	-3.820003	0.0	0.0
