15

C	0.0	0.0	0.0
C	-0.474232	-0.039137	-1.452998
Br	2.011018	0.0	0.0
H	-0.034709	0.779296	-2.021455
H	-1.568773	0.013031	-1.412693
N	-0.449218	1.236668	0.538205
H	-0.363581	1.26137	1.544559
H	-0.001298	2.041751	0.12231
N	-0.457197	-1.15248	0.690499
H	-1.482487	-1.137252	0.629772
H	-0.175876	-1.119268	1.663301
N	-0.097961	-1.294056	-2.153316
O	0.924764	-1.278108	-2.843906
O	-0.839781	-2.262836	-2.013797
Br	-3.808923	0.0	0.0
