15

C	0.0	0.0	0.0
C	-0.429875	-0.012387	-1.465268
Br	2.047628	0.0	0.0
H	-1.523802	0.113804	-1.446702
H	-0.143546	-0.947538	-1.940392
N	-0.480973	1.111648	0.673877
H	-0.268402	1.09181	1.658584
H	-0.303762	1.99204	0.21909
N	-0.434739	-1.163191	0.704313
H	-1.460057	-1.104766	0.718622
H	-0.138443	-2.007595	0.23068
N	0.147532	1.064475	-2.310639
O	0.604527	0.740625	-3.40575
O	0.109291	2.219866	-1.886365
Br	-3.76293	0.0	0.0
