15

C	0.0	0.0	0.0
C	-0.412141	-0.002046	-1.47302
Br	2.048041	0.0	0.0
H	-0.101955	0.920988	-1.955424
H	-1.506381	-0.119134	-1.469903
N	-0.4328	1.17011	0.693189
H	-0.128169	2.010979	0.219448
H	-1.457681	1.115319	0.703657
N	-0.489588	-1.102715	0.676727
H	-0.283589	-1.086403	1.661796
H	-0.354605	-1.989291	0.221203
N	0.176822	-1.099875	-2.284007
O	0.032095	-2.255201	-1.879707
O	0.756463	-0.792731	-3.325261
Br	-3.759614	0.0	0.0
