16
Coordinates from ORCA-job run
  C   0.67592261569406     -0.02972102018854     -0.09072343389633
  C   -0.67682461846262     -0.04366746965000      0.06638744928154
  C   1.34224234494417      0.32537838849229     -1.38405332043188
  H   0.88331423274055     -0.22413554336239     -2.21142795262635
  H   1.28045855489364      1.39791534003317     -1.60139140637688
  H   2.39792408305263      0.06645996022790     -1.34728842970603
  N   1.54772629535918     -0.28273931242535      1.03428054751424
  O   2.69404501138236      0.17214608087659      0.96751823904961
  O   1.12367215240129     -0.93247803250519      1.99597649407580
  N   -1.47760014964612      0.20059246643446     -1.03242670580343
  H   -2.42059498376523      0.48808162259445     -0.83042976516381
  H   -1.06394682786163      0.69725123974425     -1.80481576154397
  C   -1.43174577347836     -0.38679088998347      1.31910654691698
  H   -2.47384488932050     -0.07105908924259      1.22694843234180
  H   -0.99332621658299      0.08508191943475      2.19633284953620
  H   -1.40642183135043     -1.46231566048033      1.49800621683251
