16
Coordinates from ORCA-job run
  C   0.66806238050837      0.04630711377323     -0.13390223212287
  C   -0.65565501636482     -0.12373593967293      0.13682737543449
  C   1.70566572000591      0.19249401762230      0.93595159077667
  H   1.58748904899307     -0.59145196313811      1.69008636007763
  H   1.65145182310096      1.16671819028534      1.43540459433185
  H   2.70219333190774      0.10648779992185      0.50885299925236
  N   1.12536798626102      0.18100924408572     -1.49839573356317
  O   0.44707595798973     -0.29536192068903     -2.41485425194524
  O   2.19470193793864      0.77353397595512     -1.67422519022097
  N   -1.05569829003743     -0.25101636247252      1.45233269945120
  H   -0.43659534229360      0.10412867681754      2.16273053592560
  H   -2.02743115896933     -0.06554994308276      1.63590856702790
  C   -1.76476891887383     -0.27557136416695     -0.86504137790750
  H   -1.66782161959043      0.43399116964528     -1.68443062114235
  H   -1.74395703335865     -1.27113511776076     -1.30996737065383
  H   -2.73208080721735     -0.12884757712334     -0.37827794472176
