16
Coordinates from ORCA-job run
  C   0.66647358301237      0.04869912838379     -0.16858590752011
  C   -0.64894481126936     -0.06408600094590      0.16414423900835
  C   1.74165835246748      0.22651953952120      0.85830548349368
  H   1.84415277097396     -0.66667430049004      1.48573217375474
  H   1.52704340917134      1.07901867964573      1.51077025987113
  H   2.69665089521693      0.40836055224309      0.37220046225310
  N   1.06740488279724      0.08236133314120     -1.55944733882254
  O   2.15355242031269      0.60319105883305     -1.82910515240300
  O   0.32125904069706     -0.41840720978025     -2.40764356667981
  N   -1.00006708776137     -0.02228943602532      1.49986436826039
  H   -1.90689016929029     -0.39792775856041      1.72373366733387
  H   -0.28769151414673     -0.26244559388579      2.17045768982332
  C   -1.81880754071150     -0.13729829784661     -0.77506904574823
  H   -1.68871485190837      0.51507160464989     -1.63557886904028
  H   -1.93741406790278     -1.14976041185073     -1.16552354049763
  H   -2.72966531165869      0.15366711296710     -0.24625492308697
