16
Coordinates from ORCA-job run
  C   0.67682907184195     -0.10528176201577     -0.04083256141629
  C   -0.67376944205558     -0.32044403651858      0.07317229869393
  C   1.33285733535849      1.24110571106027     -0.03052506757470
  H   0.63907449939662      2.01573286305060      0.29173279225981
  H   1.72177236566252      1.50541419996986     -1.01758290171338
  H   2.18379455381753      1.24083678346270      0.65323076391943
  N   1.58284687737512     -1.19240356955945     -0.28531264905897
  O   2.76054781639211     -0.90498600763414     -0.52386560325869
  O   1.17136607305365     -2.36707600179284     -0.25386558273993
  N   -1.27975040412616     -1.53406184565671      0.14691138710081
  H   -2.26463202254946     -1.57507795177243     -0.04882148034877
  H   -0.71269148547244     -2.33877569492356     -0.07504428973732
  C   -1.60201856458444      0.85657090482085      0.24114240520614
  H   -1.43498613049638      1.61224606874795     -0.52676046028760
  H   -1.45595966784073      1.32707036764660      1.21616943861363
  H   -2.64428087577280      0.53812997111464      0.18225151034191
