16
Coordinates from ORCA-job run
  C   0.67700654444962     -0.10900852418589     -0.02521486417666
  C   -0.66800183459036     -0.28872130516056      0.17957828800357
  C   1.31635621231474      1.18547240651751     -0.42385745073137
  H   0.62058086655015      2.01664243334108     -0.32218247219323
  H   1.67894587837727      1.15415848615791     -1.45482420474019
  H   2.18285824032270      1.38824853813177      0.20837891981276
  N   1.59060093599778     -1.21537990644291      0.03623988567551
  O   2.75916095387715     -1.00418857639688     -0.30476052155721
  O   1.19404454970211     -2.33156111593664      0.41957631768273
  N   -1.25762719130712     -1.43082912737668      0.61979297232125
  H   -2.24554476532670     -1.53297893984683      0.46580472172882
  H   -0.68589200225453     -2.26238584967865      0.62809094809039
  C   -1.60674587226720      0.88107820987950      0.01960795833407
  H   -1.44555237289116      1.61636940475239      0.81125782602855
  H   -1.46612245207645      1.38044653414280     -0.93929324571962
  H   -2.64606769087798      0.55363733210207      0.08180492144063
