16
Coordinates from ORCA-job run
  C   0.68026635738403     -0.00326795373336     -0.10943856071793
  C   -0.66433265111043     -0.01091350928244      0.10282872205240
  C   1.28555153494538      0.42857826227431     -1.40927271257079
  H   0.93437068389105      1.42498588919087     -1.69624159621525
  H   2.36839234679179      0.46662000261421     -1.32349210500001
  H   1.03243028284648     -0.26837401836147     -2.21683323223557
  N   1.59073548399279     -0.34415462018319      0.96356275181312
  O   2.74775993624936      0.07899557145182      0.88783052828559
  O   1.18024589797828     -1.04749367123761      1.89294170225942
  N   -1.49963211437633      0.38722518653939     -0.92401637133848
  H   -2.45789491526036      0.08866001255756     -0.84387090399016
  H   -1.13614382389369      0.32239460351227     -1.86145947059852
  C   -1.37788621444084     -0.31844663066000      1.38823322806333
  H   -1.45890496438608     -1.39712782602074      1.53559654635104
  H   -0.84642336658181      0.07489336618110      2.25177334301113
  H   -2.37953447402963      0.11742533515728      1.36185813083067
