16
Coordinates from ORCA-job run
  C   0.68330443480814     -0.01249153160231     -0.08990443835505
  C   -0.66648218632635      0.02761632455914      0.08418542756409
  C   1.31360043537427     -0.43516674833657     -1.38075570565253
  H   1.10395794562252      0.28433761959688     -2.18093814505229
  H   2.39201629450975     -0.50560693948551     -1.26481422644077
  H   0.94330656594100     -1.41546300193134     -1.69769610604628
  N   1.57103302787636      0.28075220722008      1.01580534775864
  O   1.15100729664350      0.97082599523677      1.95079913127683
  O   2.72002691183571     -0.16685253674334      0.96106975126993
  N   -1.48142528292368     -0.32703116447001     -0.97425526820184
  H   -1.08854328971725     -0.25676714193014     -1.89930913299439
  H   -2.43347257418200     -0.00451152548371     -0.91660652110092
  C   -1.40906222545812      0.32870331845430      1.35465267401444
  H   -1.45899403960208      1.40554539500507      1.52647175238531
  H   -0.91725520311584     -0.10288726051657      2.22350038521725
  H   -2.42301811128592     -0.07300300957273      1.28779507435758
