16
Coordinates from ORCA-job run
  C   0.67287924313955      0.02385472178704     -0.11752755232011
  C   -0.66759217363255     -0.09064855008058      0.09441356676823
  C   1.25240767629849      0.46808155447958     -1.42508467157079
  H   1.06894990779400      1.53142360277072     -1.61811039341012
  H   2.33010070123498      0.32306404278524     -1.42823112151832
  H   0.82387026810614     -0.11207580561501     -2.24808125920565
  N   1.60903011420923     -0.21864964596858      0.95687765490443
  O   1.27048990883741     -0.93655572994704      1.90395926305670
  O   2.71942085700628      0.31382007154364      0.86476472553892
  N   -1.52928559226560      0.13207469189661     -0.96158990897593
  H   -2.47934038247622      0.35127054692133     -0.71270717191421
  H   -1.18218053449195      0.67186723359063     -1.73776044478748
  C   -1.34305876368862     -0.52449467825505      1.36411508589455
  H   -2.40346272948164     -0.26218585924411      1.33251300661394
  H   -0.88848446285145     -0.06611003225688      2.24000805089028
  H   -1.25374403773806     -1.60373616440755      1.49444117003555
