16
Coordinates from ORCA-job run
  C   0.66527263635403      0.13006659965292     -0.12260028522120
  C   -0.65157160147396     -0.11440655598838      0.12119039798339
  C   1.70200233483020      0.09752846076065      0.95738833171371
  H   2.69405164822694      0.20897835187156      0.52743705219574
  H   1.55042371189390      0.90952444072844      1.67826133595494
  H   1.67530469047045     -0.85173527101611      1.50207922580364
  N   1.12714945367983      0.35845208859274     -1.47580099477159
  O   2.31825428771175      0.14307820720405     -1.71735976620678
  O   0.32214752910725      0.76687659578141     -2.31965186667000
  N   -1.04443251362326     -0.39633920486476      1.41613087064895
  H   -0.44606800955374     -0.07007519981175      2.15814231036263
  H   -2.02517308746187     -0.27356817812662      1.60813255746924
  C   -1.75816308227699     -0.21228926997766     -0.88964367871849
  H   -1.43080962187890     -0.70263217405944     -1.80357708341686
  H   -2.10767423151316      0.78164143120514     -1.17558391234657
  H   -2.59071414449246     -0.77810032195217     -0.46454449478075
