16
Coordinates from ORCA-job run
  C   0.67490980513148     -0.11463788819745      0.03904656764679
  C   -0.68471944047761     -0.29928728505284      0.06125202327025
  C   1.35690823768608      1.21056180335433     -0.10924529621520
  H   0.65295455774879      2.03213055195303      0.01188266421090
  H   1.84313067170946      1.30458633781058     -1.08395114260104
  H   2.13923188331956      1.31875248168261      0.64434909271346
  N   1.57580828728141     -1.23304080163397      0.06365219300965
  O   1.13816376667193     -2.38341940355706      0.25100534258391
  O   2.77615793688494     -0.99657332983100     -0.10869755366366
  N   -1.32099998869529     -1.48015666721613      0.27801555249862
  H   -2.28359598085199     -1.54749154001312     -0.00300068824794
  H   -0.75253583381430     -2.31335566415174      0.24414735486758
  C   -1.59901011486871      0.89484608456886     -0.05417247304378
  H   -1.53219011241020      1.51871348661515      0.84013448036785
  H   -1.34704711928504      1.51232074287836     -0.91654902393937
  H   -2.63816655603052      0.57705109079039     -0.15586909345800
