15

C	0.0	0.0	0.0
C	-0.52112	-0.140368	-1.410864
F	1.369018	0.0	0.0
H	-0.111994	0.640496	-2.042574
H	-1.624834	-0.123413	-1.320971
N	-0.247665	1.515918	0.422443
O	-0.298906	1.721779	1.631041
O	-0.277325	2.382629	-0.445272
N	-0.589651	-0.883239	0.867267
H	-1.63397	-0.747449	0.691257
H	-0.37517	-0.621467	1.8233
N	-0.064497	-1.430538	-1.977668
O	-0.719668	-2.439509	-1.734749
O	0.948542	-1.403486	-2.684272
H	-2.951216	0.0	0.0
