15

C	0.0	0.0	0.0
C	-0.569203	0.088992	-1.392349
F	1.349852	0.0	0.0
H	-0.484497	-0.878017	-1.885689
H	-1.661973	0.299183	-1.235335
N	-0.324343	1.299955	0.787651
O	0.262892	1.401746	1.86156
O	-1.104188	2.11469	0.310432
N	-0.589657	-1.042924	0.750444
H	-1.62625	-0.822533	0.674425
H	-0.437255	-1.916494	0.255943
N	0.060509	1.071987	-2.300857
O	-0.098977	0.868543	-3.509174
O	0.672361	2.029334	-1.826838
H	-2.985949	0.0	0.0
