15

C	0.0	0.0	0.0
C	-0.788775	-0.074743	-1.272821
F	1.370089	0.0	0.0
H	-0.591893	0.767471	-1.972613
H	-2.067456	0.033244	-0.728562
N	-0.272747	1.444628	0.541236
O	-0.752501	1.619566	1.667727
O	0.14078	2.352839	-0.1994
N	-0.443685	-0.918752	0.941531
H	0.076148	-0.960165	1.809113
H	-0.676329	-1.822665	0.573333
N	-0.795753	-1.316748	-1.959026
O	-1.67766	-1.458344	-2.843605
O	-0.079903	-2.27848	-1.544759
H	-3.054053	0.0	0.0
