15
Coordinates from ORCA-job run
  C   0.65821674685451      0.16718407829767     -0.25201051058572
  C   -0.74273025222013     -0.48741432318272     -0.27262688619800
  F   0.61269329119943      1.30481448669374     -1.02952385728629
  H   -0.69879485764669     -1.46317336779770      0.21613127921957
  C   1.58698368348934     -0.79054157787234     -0.87728635497841
  N   2.33334141550509     -1.56839480491599     -1.34377450663858
  C   1.11834934854441      0.54544609333879      1.14239945269819
  H   0.47792259396939      1.33662203956097      1.53403656503053
  H   1.08639332781043     -0.31205513316356      1.81583522872156
  H   2.14024083163325      0.92116098777750      1.08381841559526
  C   -1.25638108819767     -0.60288715113555     -1.63021506766678
  N   -1.65970750835486     -0.72612823092964     -2.72589528549024
  N   -1.67769708262391      0.35187586745187      0.56745564616412
  O   -1.83066136384345     -0.02973510036803      1.72378831271490
  O   -2.14916908611914      1.35422613624499      0.04686756869989
