15
Coordinates from ORCA-job run
  C   0.61964679612518     -0.22408303193993     -0.25939729993802
  C   -0.89614529979723      0.04235592668515     -0.21202211008475
  F   0.81047123181273     -1.13015950519941     -1.28848851307645
  H   -1.20202638082775      0.44097118853943     -1.18157170907682
  C   1.10812128219821     -0.83103668404302      0.98851566823364
  N   1.58937270493957     -1.27966932082957      1.96149857285757
  C   1.38679418599484      1.04600613469478     -0.57256895680735
  H   1.28267097567150      1.77836959067531      0.22890506420235
  H   2.44193107134739      0.79470525535802     -0.68863855051968
  H   1.01865448784652      1.46752886988140     -1.51021885698337
  C   -1.24263566201288      0.94407537952580      0.87532342770203
  N   -1.48475147883425      1.69749934047753      1.74315353883872
  N   -1.63951275553254     -1.26740880346684     -0.05961442922798
  O   -2.17296647063831     -1.69682246590520     -1.07520857289177
  O   -1.61962468829297     -1.78233187445343      1.05133272677188
