15
Coordinates from ORCA-job run
  C   0.72958876047804     -0.13546452657252     -0.37657245344036
  C   -0.80063954784192     -0.30231647669112     -0.51044521170107
  F   1.14138669322890      0.08690816831142     -1.68780818262756
  H   -0.99834792853082     -1.10081259563762     -1.23197228794156
  C   1.32084348800838     -1.40989153075019      0.05995958696833
  N   1.81197709775628     -2.42944549091264      0.37392682637246
  C   1.18787730394233      1.03170998720534      0.46855524389920
  H   0.74255457786942      1.95143184615167      0.08567128988217
  H   2.27306501962279      1.10830419965272      0.38801410916451
  H   0.91382764888346      0.88976419297739      1.51200153187516
  C   -1.42851535542627      0.93207974148107     -0.96522146486862
  N   -1.90895496405245      1.94181171552618     -1.32399729409631
  N   -1.48976900277206     -0.74436343136110      0.76925937174885
  O   -0.81474518685829     -0.81868763919863      1.78915074346027
  O   -2.67914860430779     -1.00002816018198      0.64947819130452
