15

C	0.0	0.0	0.0
C	-0.554645	0.058458	-1.431982
Br	1.959176	0.0	0.0
H	-1.642798	-0.068349	-1.295091
H	-0.278695	-0.961583	0.435499
C	-0.505667	1.138098	0.861623
H	-1.599466	1.112437	0.834622
H	-0.167417	1.014497	1.891986
H	-0.141149	2.099595	0.493986
C	-0.067591	-1.079818	-2.224537
N	0.315616	-1.99824	-2.848049
N	-0.33383	1.294456	-2.165211
H	-0.975454	1.995088	-1.815117
H	0.618136	1.616386	-2.024461
Br	-3.858338	0.0	0.0
