15

C	0.0	0.0	0.0
C	-0.41698	-0.01743	-1.49731
Br	1.953282	0.0	0.0
H	0.093669	-0.874474	-1.953264
H	-0.294687	-0.955711	0.43911
C	-0.573397	1.158279	0.783105
H	-1.66557	1.082309	0.764031
H	-0.263075	2.112816	0.351537
H	-0.244222	1.124272	1.823122
C	0.105412	1.186309	-2.17063
N	0.486874	2.155746	-2.711461
N	-1.826409	-0.12078	-1.788168
H	-2.34872	0.682941	-1.45808
H	-2.262316	-0.898067	-1.303569
Br	-4.557886	0.0	0.0
