15

C	0.0	0.0	0.0
C	-0.558808	0.023155	-1.430467
Br	1.958284	0.0	0.0
H	-1.643127	-0.126295	-1.287739
H	-0.275673	-0.952315	0.457642
C	-0.504979	1.154723	0.838861
H	-0.153003	1.060225	1.867774
H	-1.598769	1.12299	0.825182
H	-0.152057	2.109456	0.443132
C	-0.049275	-1.115508	-2.208831
N	0.343199	-2.029153	-2.833627
N	-0.371566	1.253621	-2.181712
H	0.565144	1.614148	-2.035343
H	-1.045658	1.93389	-1.854039
Br	-3.857493	0.0	0.0
