15

C	0.0	0.0	0.0
C	-0.64357	-0.032657	-1.388993
Br	1.938238	0.0	0.0
H	-1.675954	-0.363534	-1.176085
H	-0.267107	-0.936146	0.495423
C	-0.503396	1.178105	0.812433
H	-0.126579	1.120357	1.835554
H	-1.596531	1.140867	0.828812
H	-0.166718	2.111939	0.36084
C	-0.022014	-1.026336	-2.26373
N	0.452917	-1.814413	-2.994245
N	-0.647363	1.292491	-2.023088
H	-0.645609	1.185824	-3.029853
H	-1.537791	1.715995	-1.775952
Br	-3.905293	0.0	0.0
