15

C	0.0	0.0	0.0
C	-0.293259	-0.004284	-1.525578
Br	1.949882	0.0	0.0
H	0.447198	0.687464	-1.957337
H	-0.338254	-0.943595	0.426481
C	-0.530782	1.20615	0.734353
H	-1.625791	1.15072	0.699058
H	-0.187501	2.132811	0.266104
H	-0.202003	1.198536	1.776607
C	-1.549448	0.564661	-2.046411
N	-2.248725	1.104196	-2.824407
N	-0.13642	-1.368223	-2.043683
H	-0.509306	-1.413342	-2.984704
H	0.854172	-1.578225	-2.087445
Br	-3.899681	0.0	0.0
