14

C	0.0	0.0	0.0
C	-0.45441	0.047037	-1.446698
F	1.374118	0.0	0.0
H	-1.542469	-0.156288	-1.390046
H	-0.246274	1.028092	-1.861701
N	-0.390767	1.285044	0.719298
O	-0.487348	1.220587	1.936473
O	-0.425156	2.309582	0.048346
C	-0.466987	-1.145023	0.783018
N	-0.581885	-2.109157	1.445026
N	0.26095	-0.941006	-2.280346
O	0.571124	-2.022986	-1.784935
O	0.444321	-0.634922	-3.460374
F	-2.419119	0.0	0.0
