14

C	0.0	0.0	0.0
C	-0.210158	0.073257	-1.519145
F	1.364857	0.0	0.0
H	0.296227	0.980899	-1.843187
H	0.295617	-0.804305	-1.923079
N	-0.381037	1.254646	0.740788
O	-0.379126	2.295814	0.095947
O	-0.499387	1.157154	1.95574
C	-0.500943	-1.192213	0.670067
N	-0.555986	-2.248037	1.18904
N	-1.548197	0.096663	-2.163025
O	-1.99105	-0.979783	-2.557912
O	-2.021429	1.198538	-2.416293
F	-2.216256	0.0	0.0
