14

C	0.0	0.0	0.0
C	-0.442108	-0.13655	-1.45373
F	1.342172	0.0	0.0
H	-1.521088	0.050081	-1.457601
H	0.144379	0.550282	-2.065438
N	-0.40784	1.377134	0.497018
O	-0.444308	2.26814	-0.342834
O	-0.506199	1.524035	1.70683
C	-0.507293	-1.009323	0.930055
N	-0.631308	-1.878848	1.712143
N	-0.195069	-1.496328	-1.997914
O	0.503415	-2.292774	-1.372512
O	-0.714225	-1.727142	-3.089411
F	-2.416369	0.0	0.0
