18

C	0.0	0.0	0.0
C	-0.196398	-0.147916	-1.56346
Cl	1.849229	0.0	0.0
H	0.520221	-0.927591	-1.839566
C	-0.404633	1.340012	0.588682
H	-0.229877	1.306521	1.668736
H	0.157986	2.183016	0.175401
H	-1.484433	1.437615	0.428879
N	-0.57204	-1.149401	0.629654
H	-1.603115	-0.958921	0.552382
H	-0.349489	-1.11659	1.62281
C	0.300706	1.076646	-2.209264
N	0.70819	2.049699	-2.726026
C	-1.544808	-0.563672	-2.163386
H	-2.338323	0.159248	-1.981444
H	-1.872422	-1.492859	-1.706671
H	-1.390011	-0.731925	-3.236277
H	-3.192444	0.0	0.0
