18

C	0.0	0.0	0.0
C	-0.545213	0.002437	-1.433705
Cl	1.79691	0.0	0.0
H	-1.646664	-0.068178	-1.24781
C	-0.435491	1.258548	0.743488
H	0.000631	2.167769	0.324723
H	-1.531696	1.279884	0.691709
H	-0.121891	1.178487	1.788768
N	-0.491626	-1.211857	0.604785
H	-1.523573	-1.11658	0.536643
H	-0.255782	-1.196914	1.594987
C	-0.106974	-1.180587	-2.167125
N	0.227558	-2.079909	-2.845909
C	-0.256675	1.264681	-2.245062
H	-0.607228	1.132725	-3.271103
H	0.812427	1.487588	-2.271005
H	-0.793473	2.110866	-1.815928
H	-3.109486	0.0	0.0
