17

C	-0.38408	0.015651	-1.473051
C	0.0	0.0	0.0
Cl	0.460716	-1.247891	-2.355882
H	1.09678	0.0	0.0
N	-1.897703	-0.077057	-1.75075
O	-2.609929	0.451629	-0.891584
O	-2.307827	-0.920757	-2.546381
N	-0.015272	1.360914	-2.100665
O	-0.923064	2.004702	-2.625334
O	1.157455	1.667279	-2.045033
N	-0.618271	-1.218655	0.574651
H	-0.556706	-1.098499	1.58168
H	0.010657	-1.994069	0.364021
N	-0.425354	1.227484	0.61633
H	0.178398	1.42177	1.404619
H	-1.401689	1.213889	0.874966
Br	3.219356	0.0	0.0
