17

C	-0.433522	-0.007235	-1.449104
C	0.0	0.0	0.0
Cl	0.062854	-1.537561	-2.223451
H	1.108812	0.0	0.0
N	-1.935382	0.089106	-1.682972
O	-2.29249	0.293892	-2.903583
O	-2.603585	-0.768953	-0.994764
N	0.134344	1.140263	-2.247513
O	0.264738	0.940721	-3.52064
O	-0.283373	2.292706	-1.868075
N	-0.473391	-1.194095	0.721
H	0.070026	-2.005285	0.42103
H	-0.240866	-1.059947	1.708061
N	-0.455271	1.20714	0.664521
H	-1.453032	1.12395	0.877766
H	0.041631	1.292848	1.555496
Br	2.693024	0.0	0.0
