17

C	-0.530073	0.015926	-1.420587
C	0.0	0.0	0.0
Cl	-2.314882	-0.069131	-1.48241
H	1.105499	0.0	0.0
N	-0.076665	1.212892	-2.191687
O	-0.58952	1.331738	-3.365331
O	1.187647	1.495425	-2.040916
N	0.04238	-1.186691	-2.159297
O	1.347126	-1.234812	-2.169485
O	-0.604067	-2.27537	-1.946871
N	-0.479596	-1.188541	0.7102
H	0.107152	-1.989202	0.457455
H	-0.319036	-1.037127	1.708704
N	-0.434655	1.223507	0.641347
H	-1.426419	1.144314	0.88553
H	0.086061	1.337219	1.514982
Br	2.688073	0.0	0.0
