17

C	0.0	0.0	0.0
C	-0.377197	-0.051121	-1.512267
F	1.358711	0.0	0.0
H	-1.324448	-0.563618	-1.61611
C	-0.488141	1.145624	0.764975
N	-0.581377	2.10746	1.443467
N	-0.534839	-1.24062	0.641124
O	-0.528958	-2.264939	-0.081075
O	-0.507801	-1.271136	1.886748
C	0.70744	-0.671877	-2.382411
H	1.62533	-0.085471	-2.350414
H	0.342555	-0.721313	-3.411653
H	0.90303	-1.681327	-2.025369
N	-0.602715	1.327576	-2.041514
O	-1.559583	1.493483	-2.796259
O	0.232464	2.186878	-1.758659
H	-2.121116	0.0	0.0
