11

C	0.0	0.0	0.0
C	-0.596914	0.07601	-1.383985
F	1.377943	0.0	0.0
H	-1.721397	0.105342	-1.090135
H	-0.368939	-0.906938	0.483147
H	-0.396582	-0.848046	-1.932845
C	-0.401334	1.163393	0.823441
N	-0.511971	2.121328	1.493842
C	-0.143575	1.2207	-2.145629
N	0.197089	2.145427	-2.787959
H	-2.857831	0.0	0.0
