11

C	0.0	0.0	0.0
C	-0.380285	-0.038055	-1.492051
F	1.362334	0.0	0.0
H	-0.268173	0.965727	-1.901684
H	-0.390492	-0.8591	0.542306
H	0.387714	-0.674362	-1.959072
C	-0.405292	1.246195	0.673388
N	-0.658669	2.311917	1.094512
C	-1.707054	-0.586625	-1.836844
N	-2.355462	-1.390685	-2.41253
H	-2.372259	0.0	0.0
