11

C	0.0	0.0	0.0
C	-0.439658	0.261477	-1.443408
F	1.379991	0.0	0.0
H	-0.249793	1.317235	-1.691585
H	-0.35133	-0.978091	0.320992
H	0.222319	-0.358035	-2.066306
C	-0.477261	1.034298	0.929989
N	-0.555514	1.94482	1.671151
C	-1.877215	-0.082549	-1.680909
N	-2.630432	-0.310339	-2.589187
H	-2.317824	0.0	0.0
