15
Coordinates from ORCA-job run
  C   -0.77812677228429     -0.06067623715451     -0.12433336222305
  C   0.25590358055769     -0.43864983004103      0.91625342902138
  Br  -2.60739129564982     -0.38618038637996      0.68611025869810
  H   0.02568955297768      0.09435223930159      1.83793950862909
  H   0.11969045235979     -1.50541347129691      1.12178018247846
  N   -0.80025447204527      1.44864086693971     -0.37025233690850
  O   -1.20432773500236      1.81781838388640     -1.46644582781211
  O   -0.44201999836102      2.17035144721641      0.55079145915481
  N   -0.58144449938554     -0.68211387843129     -1.35786052436937
  H   -0.57985546776301     -1.68926538896464     -1.27235934420358
  H   -1.24107629984791     -0.37266179707690     -2.05932494902243
  C   1.68520981441691     -0.15375109260482      0.46145273678671
  H   1.92502307407558     -0.68400558879228     -0.45984109023171
  H   2.38410265603573     -0.47287806309486      1.23775559116470
  H   1.83887740991584      0.91343279649308      0.29633426883749
