15
Coordinates from ORCA-job run
  C   -0.86144193815122     -0.18284520640597     -0.00990255827491
  C   0.28949440548304     -0.44117109344214      0.94414315171537
  Br  -2.57067373301590     -0.51885813117075      0.86608483117881
  H   0.12413153273566      0.15185403789202      1.84330144025702
  H   0.23430237813918     -1.49709487082795      1.21856006545952
  N   -0.87949869574613      1.35895350836326     -0.30023558203645
  O   -0.79698777657252      2.11334935213035      0.65921854896515
  O   -0.94686723901295      1.69121272001138     -1.47971648094050
  N   -0.79700944646606     -0.95078118915330     -1.18533345361186
  H   -1.56118071438400     -0.73661828720467     -1.81313764181273
  H   0.07756329765139     -0.79116133524782     -1.66952669875694
  C   1.65153917959025     -0.11055762828721      0.33609840983691
  H   1.70426954900626      0.92642048302598     -0.00371148324886
  H   2.42799273939212     -0.24404469288462      1.09165105335897
  H   1.90336646135088     -0.76865766679857     -0.49849360208949
