15
Coordinates from ORCA-job run
  C   -0.66958362597174     -0.02981246906740     -0.07782289396393
  C   0.68218183522646      0.39305223999407      0.46847742607941
  Br  -1.72698931256833     -0.99046321039816      1.25584104916716
  H   1.12336596982939      1.06286659319309     -0.28280298939851
  H   0.51567363933671      0.99358290237234      1.36246341470737
  N   -1.49878223271305      1.27923618844320     -0.32182306629560
  O   -1.48283807518456      2.13004353719501      0.55689541427971
  O   -2.09503269800765      1.35277540650687     -1.39158043131143
  N   -0.56612223953975     -0.82087940649574     -1.23342599533115
  H   -1.47277350151329     -1.02024147813141     -1.63600659527569
  H   0.01428610845947     -0.36233130092621     -1.92657473885251
  C   1.61504383266193     -0.77781110990331      0.74843502877515
  H   1.79327948751916     -1.36976746422893     -0.14904956188229
  H   1.19386739546696     -1.43637267024647      1.50895111942448
  H   2.57342341699830     -0.40487775830696      1.11602281987783
