15
Coordinates from ORCA-job run
  C   -0.63106039752706      0.12846883461897     -0.16822402289339
  C   0.66672850058576      0.37528751618240      0.57276926617474
  Br  -1.89699338896151     -0.86967434271947      1.06933974812663
  H   0.43484038170864      0.81420809960171      1.54196384656565
  H   1.20859922794221      1.12849659648687     -0.00832819526423
  N   -1.38432692099681      1.43946576368160     -0.40057680303950
  O   -2.20277175968299      1.44358098225052     -1.31210461262293
  O   -1.12897848195661      2.37269965663252      0.34846985512769
  N   -0.46181167136209     -0.47051483234614     -1.41664903481407
  H   -0.02734540281649     -1.37957148144839     -1.34473561682796
  H   -1.33105022782001     -0.52378287218856     -1.93225943954822
  C   1.51684446963206     -0.88063184586312      0.72695977740549
  H   0.95986377055382     -1.68236812416988      1.21504257917360
  H   2.38994455962541     -0.65824398623324      1.34286630259119
  H   1.88751734107568     -1.23741996448580     -0.23653365015470
