15
Coordinates from ORCA-job run
  C   -0.77058007377607      0.04921103218507     -0.07392569470692
  C   0.62419256905612      0.37655228556278      0.46537704499202
  Br  -1.80298283596940     -0.91177576688576      1.26178818696162
  H   1.07981409200638      1.04759374625083     -0.27420285698337
  H   0.51256983481899      0.93932782824753      1.39607059577971
  N   -1.42079793186893      1.42434410015937     -0.30883952516808
  O   -1.29264020570975      1.86260128259149     -1.44828493363309
  O   -1.89678105527380      2.01794735865261      0.64712980948822
  N   -0.86854387426474     -0.66835141909995     -1.30266880485029
  H   -0.32350769272909     -0.21638015252749     -2.02629918164353
  H   -0.58059880043553     -1.62906299528951     -1.18181758249667
  C   1.50901535465712     -0.84459952270101      0.67091396740876
  H   1.65789487356961     -1.39117655893659     -0.26257869970487
  H   2.49247620013596     -0.53241363849833      1.02767719391608
  H   1.08346954578312     -1.52481757971105      1.40966048064042
