15
Coordinates from ORCA-job run
  C   -0.77714726552734     -0.06284705202879     -0.13020871637121
  C   0.24915151647095     -0.43355537723027      0.92060258520149
  Br  -2.61237450687815     -0.38659692642525      0.66659236515657
  H   0.11281288867502     -1.49912020238295      1.13203832593207
  H   0.01033650366097      0.10519761702479      1.83677726703494
  N   -0.80003699659690      1.44558499349877     -0.38390126664189
  O   -0.44888639060121      2.17263498410578      0.53579338521747
  O   -1.19696202831309      1.80843547014505     -1.48481026104749
  N   -0.56933133002454     -0.68971255684341     -1.35911515755758
  H   -0.56219366364293     -1.69635946433641     -1.26761060640734
  H   -1.22613469324483     -0.38874495111745     -2.06684989350819
  C   1.68158221448882     -0.14855749348547      0.47588184320030
  H   1.83608767127607      0.91885837783848      0.31294072856522
  H   1.92778881642422     -0.67750334643853     -0.44450990481259
  H   2.37530726383293     -0.46871407232433      1.25637930603824
