15
Coordinates from ORCA-job run
  C   -0.71930501052472     -0.09921146453216     -0.18108050099310
  C   0.68727570251516     -0.64331664633268      0.00814246794974
  Br  -1.75242792322167     -0.35585385083720      1.50035136402405
  H   1.16897977007506     -0.57652176273810     -0.97015747991760
  H   0.58146814679284     -1.70264954887973      0.26245032256221
  N   -0.63931467187141      1.42114818151255     -0.45380458726004
  O   0.21587034661390      1.72675435482602     -1.27660678322431
  O   -1.42029133108322      2.18359554607375      0.09615081138251
  N   -1.34707675220213     -0.65651910500505     -1.31226712312305
  H   -2.33563155230006     -0.44101794970438     -1.35365627847691
  H   -1.21276549667980     -1.65818520798879     -1.34897027263954
  C   1.52482738181168      0.06924989387189      1.06109063330376
  H   1.05938155902830      0.02308170279424      2.04586314426263
  H   1.68439863506235      1.11526030451717      0.79492586123910
  H   2.50561119598370     -0.40581444757753      1.12756842091054
