15
Coordinates from ORCA-job run
  C   -0.80582103173531     -0.12106496130584     -0.10070975539719
  C   0.63221384185639     -0.62580000097967      0.01426153272685
  Br  -1.77542818451014     -0.44669991586900      1.54384224993307
  H   0.57260354181338     -1.69127388945492      0.25509548264060
  H   1.06135907826440     -0.53851172237709     -0.99014004914762
  N   -0.69845672220821      1.38810562506939     -0.35754408898046
  O   -0.29511558596850      1.64742278929422     -1.48953042416497
  O   -0.92863019416029      2.19303457323608      0.53020157460542
  N   -1.59056081584091     -0.64114235664821     -1.18289076772730
  H   -1.82541259203805     -1.60949298319842     -1.00891344770583
  H   -1.06737462740166     -0.56163974275966     -2.04746892334153
  C   1.50674340179114      0.11339227821824      1.01944919312610
  H   1.65313555934101      1.15555180392858      0.72847401982905
  H   2.49122356366110     -0.35625033975047      1.06809871568128
  H   1.07052076713564      0.09436884259675      2.01877468792253
