15
Coordinates from ORCA-job run
  C   -0.86000653467064     -0.18456997366934     -0.01778055592964
  C   0.28238465155446     -0.44093817956766      0.94701965796195
  Br  -2.57606152826214     -0.52767287379215      0.84243663259589
  H   0.22620544311054     -1.49648984760911      1.22239135283756
  H   0.10756968754984      0.15292584706418      1.84393052880399
  N   -0.88011974701976      1.35718277132934     -0.30641616145837
  O   -0.80988663354863      2.11133620746791      0.65405448320764
  O   -0.93766032966031      1.68976282496036     -1.48641180109119
  N   -0.78235534832398     -0.95140937007216     -1.19364224346857
  H   -1.54385031034222     -0.74028617250188     -1.82589893588669
  H   0.09360741623282     -0.78185957240850     -1.67224760703940
  C   1.64932207080832     -0.10865457587129      0.35074583394358
  H   1.70268672410810      0.92781686248455      0.00944756003422
  H   1.90901095815508     -0.76824644610908     -0.48020048977971
  H   2.41915348030852     -0.23889750170518      1.11357174526874
