15
Coordinates from ORCA-job run
  C   -0.91930667883227     -0.07982037748547     -0.05473904474944
  C   0.21882226484681     -0.43408465707682      0.90226266863662
  Br  -2.61923501303208     -0.39408573284996      0.85951920899409
  H   0.06137472365063      0.09867607025099      1.84217857030494
  H   0.13053719667902     -1.50434367155782      1.11294464116962
  N   -0.79143762011173      1.42761400577159     -0.30979146331629
  O   -0.94979698942872      2.16691655520678      0.65094283490003
  O   -0.43532306148314      1.76819225617163     -1.43403627575330
  N   -0.97073854627562     -0.72685671932240     -1.31850649799700
  H   -0.93464623935326     -1.73107858827179     -1.20673108113534
  H   -0.24068194996035     -0.39565116046770     -1.93455393685540
  C   1.59345807120361     -0.10853327105674      0.32546701653633
  H   2.36944061064523     -0.43994731363600      1.01808058007885
  H   1.72517572952128      0.96512809915757      0.17558361868971
  H   1.76435750193060     -0.61312549483384     -0.62762083950342
