13

C	-0.305287	0.090587	-1.507295
C	0.0	0.0	0.0
Cl	-2.066362	0.408216	-1.783062
H	1.095061	0.0	0.0
H	-0.389209	-0.913266	0.454324
N	0.454235	1.10886	-2.191289
H	0.230389	2.006318	-1.770988
H	1.44195	0.923697	-1.99621
C	-0.020091	-1.215839	-2.119218
N	0.184312	-2.266457	-2.60216
C	-0.477615	1.178572	0.706749
N	-0.85881	2.139717	1.26332
Br	3.42086	0.0	0.0
