13

C	-0.415236	-0.025311	-1.470013
C	0.0	0.0	0.0
Cl	-0.148578	1.6492	-2.181999
H	1.092347	0.0	0.0
H	-0.311539	-0.95688	0.434581
N	0.348939	-1.043841	-2.090881
H	0.239162	-1.038907	-3.096886
H	1.333624	-0.937539	-1.838395
C	-1.853812	-0.281229	-1.638145
N	-2.995916	-0.511472	-1.78778
C	-0.574853	1.086305	0.774304
N	-1.056158	1.934223	1.428003
Br	3.434033	0.0	0.0
