13

C	-0.553583	0.013764	-1.424381
C	0.0	0.0	0.0
Cl	0.197863	-1.423308	-2.280745
H	1.091847	0.0	0.0
H	-0.311374	-0.939733	0.469784
N	-1.979805	-0.037467	-1.419328
H	-2.293227	-0.853708	-0.907151
H	-2.346431	-0.075154	-2.363269
C	-0.137068	1.204512	-2.174611
N	0.118586	2.160495	-2.806944
C	-0.522074	1.121444	0.772852
N	-0.936653	2.023959	1.398489
Br	3.460919	0.0	0.0
