13

C	-0.537985	0.005922	-1.427894
C	0.0	0.0	0.0
Cl	0.033772	-1.443159	-2.308971
H	1.09258	0.0	0.0
H	-0.310597	0.933902	0.485373
N	-1.983867	-0.029846	-1.424895
H	-2.33498	0.763195	-0.899907
H	-2.334863	0.024864	-2.373521
C	-0.013405	1.188282	-2.143531
N	0.29048	2.188025	-2.684708
C	-0.526552	-1.126159	0.762375
N	-0.937509	-2.025331	1.395019
Br	3.454228	0.0	0.0
