13

C	-0.546981	0.015776	-1.427444
C	0.0	0.0	0.0
Cl	0.190001	-1.431894	-2.275758
H	1.091822	0.0	0.0
H	-0.314364	-0.938901	0.469485
N	-1.974456	-0.01716	-1.429247
H	-2.335261	-0.056509	-2.374703
H	-2.299875	-0.827352	-0.915376
C	-0.112798	1.199745	-2.178356
N	0.156997	2.151696	-2.810685
C	-0.521047	1.123591	0.770738
N	-0.931522	2.026991	1.398021
Br	3.458106	0.0	0.0
