15
Coordinates from ORCA-job run
  C   -0.64076154846223      0.02706425170226      0.39623433064559
  C   0.63259292498420      0.02684404141340     -0.10083834150039
  N   -1.79357578455693     -0.32233235181430     -0.40519408315205
  O   -1.63886253654281     -0.74717891126705     -1.55399609131848
  O   -2.89817582239297     -0.16243860265692      0.12832324657582
  N   -0.86534165344223      0.41026654329628      1.73882410645859
  H   -1.17780753274258     -0.38331162794970      2.28867836347445
  H   -1.60994637059721      1.09686241651713      1.77791020349673
  C   1.04683625913475     -0.33072371882791     -1.49724684631888
  H   0.49275944741140      0.24742483103228     -2.23504489808822
  H   0.83289014379075     -1.37943936892765     -1.70413823399000
  H   2.11762062221167     -0.15912690243180     -1.62582430190182
  N   1.65186171946847      0.30135356985575      0.76951560284123
  H   1.34749789656977      0.70430532861063      1.64549140588058
  H   2.50041223516594      0.67043050144760      0.37430553689684
