15
Coordinates from ORCA-job run
  C   -0.63663458671467      0.01366416863367      0.40416560942545
  C   0.62103467898134      0.09650253673813     -0.12544234137397
  N   -1.77803608489156     -0.44222191407578     -0.35817306116032
  O   -2.83436111921866     -0.58091856453503      0.27051997904349
  O   -1.65861668622832     -0.67489339738964     -1.56481952479390
  N   -0.84562850448913      0.35757839965359      1.75967822038800
  H   -1.41049399352888      1.19739728140464      1.83208034930771
  H   -1.36593780151205     -0.37836557160469      2.22341960720463
  C   1.02395879264517     -0.24455380547496     -1.52917882642915
  H   0.54080026110023      0.42532284650501     -2.24059657673193
  H   0.71219537714061     -1.25312174516490     -1.79616183550424
  H   2.10641826331703     -0.15342253865782     -1.64132507720719
  N   1.60840329485081      0.61342752755545      0.66687903419063
  H   2.55423631685491      0.34615508295322      0.45250308872409
  H   1.36266179169317      0.67644969345911      1.64545135491671
