15
Coordinates from ORCA-job run
  C   -0.66683378100411      0.11426012406402      0.35424614768468
  C   0.61895289142575      0.00686639452235     -0.08925639892830
  N   -1.79413127815981     -0.37644639943805     -0.40395651038944
  O   -2.91057008491942     -0.23562047181109      0.11152371759380
  O   -1.59678268258219     -0.97054815963222     -1.46808668559857
  N   -0.92598508569706      0.66522805678590      1.62582838871505
  H   -1.74675169370210      0.23469673772168      2.03137068526997
  H   -1.09506011278968      1.66394655698571      1.56742592418063
  C   1.08126980274553     -0.47217495123105     -1.43365052834176
  H   1.02173669413784     -1.56105279382743     -1.50019822300763
  H   2.11325652096883     -0.15580790739391     -1.59456285427431
  H   0.45371319234625     -0.08226234271607     -2.23183289089517
  N   1.61197391713031      0.50125910838056      0.73172045926784
  H   2.51626498915865      0.07324327831691      0.60502355341012
  H   1.31894671094122      0.59441276927268      1.69640521531308
