15
Coordinates from ORCA-job run
  C   -0.70906983166579      0.01186324012052      0.21271848687104
  C   0.61430618094832      0.14528275111586     -0.13255487666655
  N   -1.59279725262461      1.15365984445235      0.30890772444742
  O   -2.76705216233364      0.92838675133682      0.61588617690674
  O   -1.15743451557257      2.29414747310997      0.07633072303361
  N   -1.26733686836193     -1.25534163881202      0.48390588409148
  H   -1.70032560433130     -1.25671476073096      1.40163714352584
  H   -2.00622940311661     -1.46304424320005     -0.17924590640980
  C   1.46316625376970     -1.08899657825331     -0.25140445363775
  H   1.43765901961852     -1.45650863501051     -1.28200025757344
  H   1.08216897501381     -1.88074740559270      0.38630084450592
  H   2.49965842692682     -0.86161551738748      0.00831298771023
  N   1.26350057207779      1.31448125591943     -0.35531090887680
  H   2.14314503289300      1.27266935876933     -0.84025965390844
  H   0.69664117675847      2.14247810416273     -0.45422391401951
