15
Coordinates from ORCA-job run
  C   -0.70394871686482      0.00790202889168      0.24189164105672
  C   0.60248643904586      0.12200083510484     -0.16489589715653
  N   -1.53568476483884      1.17609954932332      0.45181176759281
  O   -2.71757087223530      0.97718102034448      0.75072284995748
  O   -1.04998243372719      2.31221260588296      0.32452481863851
  N   -1.32193514817538     -1.24742154642251      0.42203045341801
  H   -2.14723650614284     -1.31398100528055     -0.16263307726114
  H   -1.64180535456172     -1.34546764593001      1.37908181522491
  C   1.41402767506432     -1.11671639956795     -0.41437495767297
  H   1.81783861709281     -1.09642745365586     -1.43170984859862
  H   0.80676287907606     -2.00660095785222     -0.28499820436915
  H   2.25944716487527     -1.14698334055372      0.27865555126882
  N   1.29319996140601      1.28194405269044     -0.29708493433231
  H   0.77135682789654      2.14364609379954     -0.27718956443554
  H   2.15304423208923      1.25161216322554     -0.81683241333100
