15
Coordinates from ORCA-job run
  C   -0.64206596192362      0.11855595743506      0.38727443706056
  C   0.62912253617732     -0.06753928337945     -0.09136656669555
  N   -1.81591868644688     -0.02784181039281     -0.43631332932405
  O   -2.90117960898782      0.19764374755218      0.11552845356836
  O   -1.70282319993063     -0.33601957409413     -1.62781479733323
  N   -0.82241100407526      0.50438832844355      1.73768905190005
  H   -1.33820593452860      1.37789711909510      1.77230231927022
  H   -1.39692086848138     -0.17552844793469      2.22433935753085
  C   1.00738964966761     -0.46386484087307     -1.48878949997981
  H   2.09015723468247     -0.58057393199453     -1.56924590665596
  H   0.52320272513499     -1.39657092798999     -1.77276874943390
  H   0.67151184150827      0.28697032208142     -2.20379398269813
  N   1.65532908271222      0.10372485984049      0.77444888275154
  H   1.43553339513930      0.41826551351135      1.70602239938562
  H   2.60827879935201      0.03949296869950      0.47148793065342
