15
Coordinates from ORCA-job run
  C   -0.70613813189431      0.00784578043939      0.22303038345412
  C   0.58717506563968      0.12661044013681     -0.22504807760629
  N   -1.56250701955894      1.16284631270828      0.37954719879360
  O   -2.67133212695339      0.97090053127545      0.88991627517347
  O   -1.17666784484551      2.27879063776564     -0.00506398953131
  N   -1.24002064020692     -1.23634681264570      0.61719565726270
  H   -1.61267452273471     -1.16698893354935      1.55745536286832
  H   -2.02128274612514     -1.48787875464723      0.02208025245953
  C   1.44509208382345     -1.10252829863086     -0.32405179402194
  H   1.04472074317250     -1.90432265240383      0.28812798261851
  H   1.47487644150564     -1.44513850732606     -1.36278583542896
  H   2.47076701450455     -0.87678150530370     -0.01906157168805
  N   1.15392782924128      1.26044412903525     -0.70629351157974
  H   2.15641908754705      1.28658944971884     -0.77336366613053
  H   0.65764476688476      2.12595818342707     -0.56168466664341
