15
Coordinates from ORCA-job run
  C   -0.66991013046446      0.04224637142827      0.33809034957481
  C   0.59952171702645      0.12616951181785     -0.19037838211408
  N   -1.55437188507590      1.17926086935507      0.33929729877046
  O   -2.74730149301140      0.96412122092901      0.58086989790059
  O   -1.10113903071978      2.31906022555388      0.13028828728149
  N   -1.21264228128480     -1.20267767275106      0.72282353077388
  H   -1.47386698204081     -1.18602406498745      1.70269191856770
  H   -2.06113326107963     -1.39031417562925      0.20108166209013
  C   1.41370935389005     -1.12620821932052     -0.35712000275181
  H   1.26556741382895     -1.52469547363853     -1.36548522534076
  H   1.09588789127708     -1.88286148882775      0.35253167563623
  H   2.47709497479222     -0.91400597342732     -0.22527683584040
  N   1.22428361849020      1.26909251529891     -0.55080346837273
  H   0.68608030476793      2.12152438325285     -0.56875756039307
  H   2.05721978960389      1.20431197094605     -1.10985314578246
