15
Coordinates from ORCA-job run
  C   -0.77207037287145      0.08462471747408      0.27747821939592
  C   0.49011521135969      0.13692245634371     -0.26224453534245
  N   -1.58861309873505      1.30246380060372      0.38399632200715
  O   -2.69881025461158      1.21961520030373      0.89678213237882
  O   -1.11787299280369      2.36817786521214     -0.04867279601546
  N   -1.38856450802382     -1.05414670366527      0.78999900774052
  H   -1.02880148397295     -1.43645331871228      1.64659506150348
  H   -1.70904571483032     -1.74619237327427      0.13550240921154
  C   1.32220613655865     -1.11432876971144     -0.33037482711944
  H   1.65320241529131     -1.28107939684333     -1.35880221986759
  H   0.77320012052513     -1.98689120940806      0.00895875247085
  H   2.21527192974043     -1.00210595746763      0.29316571793198
  N   1.09294447515785      1.21608565412163     -0.83387084015888
  H   2.09406541940227      1.17993483617196     -0.92510771508982
  H   0.66377271781354      2.11337319885130     -0.67240468904663
