15
Coordinates from ORCA-job run
  C   -0.79307539273152      0.07778915286803      0.16874955799311
  C   0.49339247464237      0.03468533390416     -0.27127509999792
  N   -1.14217867190761     -0.21044472773337      1.54795231786497
  O   -0.28121154762397     -0.12456601297187      2.42732885481641
  O   -2.30501543293791     -0.57287798413380      1.73989466628555
  N   -1.89163408496828      0.42219410559275     -0.61613089052868
  H   -1.66905694878844      0.98245030544990     -1.42169612560452
  H   -2.58548655173101     -0.29082500535838     -0.77492379598293
  C   1.72285269724225     -0.06839898093746      0.58473965058260
  H   1.67154272781839     -0.92253867801355      1.25947143302636
  H   2.60941943181771     -0.16974201711127     -0.04570729733891
  H   1.84109430323020      0.81555489399000      1.21208573496430
  N   0.71985377529621      0.23234945962496     -1.63624026117199
  H   1.62647968583065     -0.08208946706572     -1.94484961068674
  H   -0.01797646518904     -0.12254037810436     -2.22939913422161
