15
Coordinates from ORCA-job run
  C   -0.75963595191778     -0.01024722273983      0.17983685402986
  C   0.51580878969936     -0.02946196447698     -0.32025135478906
  N   -1.07044509681905     -0.16047938872375      1.57192959667880
  O   -0.15090502766567     -0.10841717456865      2.39950099508427
  O   -2.26332010283508     -0.28409515978936      1.87143896712387
  N   -1.86057445644626     -0.03934472307371     -0.69946177384352
  H   -2.73481162050386     -0.02020314141894     -0.19065872723240
  H   -1.79440306320768      0.75081641245443     -1.33511791503778
  C   1.79259534546957      0.11226127141090      0.46352656375773
  H   2.66005559379139      0.08208067518047     -0.19776435024798
  H   1.79499195785534      1.05006057452450      1.02354305900913
  H   1.88633543771737     -0.67747381758220      1.20858758415249
  N   0.59930105791831     -0.00028816030284     -1.70653235161555
  H   -0.13581505978742     -0.50861746759603     -2.18358901362454
  H   1.51982219673146     -0.15559071329800     -2.08498813344534
