15
Coordinates from ORCA-job run
  C   -0.69375255515150      0.02040079056857      0.26842553108871
  C   0.56214000636402      0.10207054440067     -0.27996895016730
  N   -1.53411084419163      1.19313671595895      0.41430971990452
  O   -1.13554048936227      2.29474869736746      0.00194802240226
  O   -2.63014149147572      1.03296623024403      0.96073805425264
  N   -1.21926861305130     -1.19618105677260      0.75154775926213
  H   -1.48100179180554     -1.09883437914014      1.72589750140079
  H   -2.06815459229555     -1.43386431707199      0.25074072246864
  C   1.41253218334589     -1.13163961555062     -0.37831795293100
  H   2.36374194373881     -0.96751272579909      0.13820297635644
  H   1.63589760419721     -1.34027722734436     -1.42833094392805
  H   0.90600193427067     -1.98433107489226      0.06178612697207
  N   1.11431454083191      1.21032949753346     -0.83557161241153
  H   0.65749001733188      2.09308084925064     -0.67024528107163
  H   2.10885214725312      1.20490707124727     -0.98216167359869
