15
Coordinates from ORCA-job run
  C   -0.72609135659487      0.00351633898296      0.16495797895667
  C   0.59726316563231      0.12380674517162     -0.18045533837565
  N   -1.56364798634228      1.16822588721623      0.37098113272737
  O   -2.72836241587366      0.96520784639347      0.72862570340134
  O   -1.09701076933471      2.30514735892361      0.19109997305230
  N   -1.32917458180416     -1.25399763659043      0.37858124327679
  H   -1.71861869120777     -1.29745741524492      1.31354050490617
  H   -2.10753343442655     -1.38039948631322     -0.25884168426621
  C   1.43872669435537     -1.10947116016317     -0.34470337772561
  H   1.83293791057155     -1.15148299721921     -1.36377754662318
  H   0.85601729639325     -2.00186629785945     -0.14127984512881
  H   2.29091882227531     -1.06867901796660      0.34140599863235
  N   1.23803606938705      1.28335861356091     -0.47243703604576
  H   0.77148269407173      2.14678903748549     -0.24432665244738
  H   2.24305658289744      1.26630218362272     -0.48137105434039
