15
Coordinates from ORCA-job run
  C   -0.70328713720043      0.01267751218071      0.24412733953569
  C   0.57928464303815      0.11958690756317     -0.23461232178899
  N   -1.46585180062064      1.18215327891415      0.63295467309837
  O   -2.58969162341519      0.98706300849599      1.10702135979766
  O   -0.97876157317878      2.31524588673256      0.48570529671341
  N   -1.32805849866643     -1.23846853710308      0.42892023141023
  H   -2.17088803306901     -1.29485118544583     -0.13180336022337
  H   -1.62085379406672     -1.34074027870186      1.39393595393240
  C   1.34776789228205     -1.12163432220599     -0.58665444069269
  H   1.59566302172875     -1.10977927308914     -1.65172333409175
  H   0.76821318787724     -2.01016279815983     -0.35865924774544
  H   2.28770790023043     -1.14646594642948     -0.02601298243600
  N   1.22944583586605      1.27858234416642     -0.50582075471372
  H   0.82380863342176      2.13594633293902     -0.16600422877980
  H   2.22550134577276      1.23284707014318     -0.63237418401601
