15
Coordinates from ORCA-job run
  C   -0.67469604112454      0.03402710894416      0.31280250846822
  C   0.57500337772825      0.10385004866736     -0.25173305583254
  N   -1.52158408265779      1.20528645477019      0.42337900467545
  O   -2.65110343432709      1.03818163627309      0.89456386112351
  O   -1.09974303147715      2.31132020805023      0.04733511177893
  N   -1.21785970316414     -1.18357126232437      0.77326927753731
  H   -2.09950175768491     -1.36824933695491      0.30847931912380
  H   -1.42568903746040     -1.12181379510561      1.76369286165912
  C   1.40309906730982     -1.14223601680142     -0.38173721518975
  H   1.68915180563726     -1.28910345832393     -1.42816286836984
  H   0.85079700422580     -2.00895963389915     -0.03370037429522
  H   2.32131562477527     -1.03492526922597      0.20250772605939
  N   1.20020156598037      1.23793696290596     -0.65519010801102
  H   0.65081856703332      2.07988765630650     -0.72128699277685
  H   2.00179007520594      1.13736869671788     -1.25321905595052
