15
Coordinates from ORCA-job run
  C   -0.71903917009833     -0.00505872290242      0.19417323896892
  C   0.59082337026350      0.13649018846015     -0.19225901130880
  N   -1.51355318361045      1.13493501273986      0.60743670353726
  O   -2.66386383927983      0.90582085852418      0.99464783576309
  O   -1.02593929639896      2.27640843731841      0.56489520252629
  N   -1.34554916999318     -1.26738926802883      0.25637276791004
  H   -2.15867253962714     -1.28355812049454     -0.34906923123378
  H   -1.68694673044906     -1.44022665739740      1.19507578741170
  C   1.39184587192488     -1.07722831635700     -0.56736023751107
  H   1.76194975979576     -0.97145238041424     -1.59082332647471
  H   0.78868677022168     -1.97572308779077     -0.48801257059423
  H   2.25971218878764     -1.16518305619359      0.09428299221683
  N   1.25003746767488      1.31249570023594     -0.34448145988924
  H   2.25294756169394      1.27607877760332     -0.40216252067005
  H   0.81756093909468      2.14359063469690      0.02628382934774
