15
Coordinates from ORCA-job run
  C   -0.72498033597464      0.00011874234330      0.16998786472268
  C   0.59583711968314      0.12745870447785     -0.18257066709771
  N   -1.55766443854910      1.16115479427295      0.41716202274301
  O   -1.09203196184215      2.30152745515128      0.25879525446908
  O   -2.71731378928177      0.95059620465977      0.78670171505142
  N   -1.32757733448858     -1.26074113288421      0.35996353489461
  H   -2.10629538955941     -1.37720469438426     -0.27875482147067
  H   -1.71457325062421     -1.32366984969102      1.29469647827872
  C   1.43347314828901     -1.10216147491381     -0.38667702335549
  H   0.85884375077726     -1.99807733132823     -0.17561900289527
  H   1.79467773055976     -1.13282704831097     -1.41838406996510
  H   2.30744491484353     -1.06771009699092      0.27173588319881
  N   1.23547795681741      1.29334881191402     -0.45277759432677
  H   2.24051404728528      1.27497098709655     -0.46558647903418
  H   0.77316783206447      2.15121592858770     -0.19667309521314
