15
Coordinates from ORCA-job run
  C   -0.72500339572200     -0.00413666706665      0.16817854114223
  C   0.59293425085184      0.12512066236230     -0.19444563290628
  N   -1.60495169434051      1.14528148752777      0.24562693565705
  O   -2.75933152973001      0.94265893269737      0.63562326906409
  O   -1.18256934258078      2.26996399313481     -0.06955208675990
  N   -1.27967224212086     -1.24967853240700      0.53031905737435
  H   -2.04633138140805     -1.48468402953202     -0.09017465270527
  H   -1.67473324259036     -1.19485124295071      1.46219785887922
  C   1.47788252683787     -1.08775972162084     -0.22395606800846
  H   1.82473761644838     -1.26348024090138     -1.24614484771004
  H   0.94345504970196     -1.96237723737962      0.13208402793829
  H   2.35966173789501     -0.91896233981872      0.40238842064108
  N   1.18902169052741      1.26573506580059     -0.62381186077127
  H   0.69090957659808      2.13201116906474     -0.49456133829909
  H   2.19399037963201      1.28615870108936     -0.63277162353598
