15
Coordinates from ORCA-job run
  C   -0.73438793424022     -0.01161146508461      0.12385665532372
  C   0.60613463955378      0.14016996281549     -0.13167989442028
  N   -1.58952176248677      1.12972016269494      0.38297769700280
  O   -2.77259057461365      0.89505000246371      0.64945250547904
  O   -1.11898600519646      2.27823672261721      0.33598859453216
  N   -1.34151259310117     -1.28320143466191      0.18730017925686
  H   -2.07655842700430     -1.35534546184554     -0.50720805640280
  H   -1.78737391326704     -1.41096018726989      1.08855996987972
  C   1.46204638968026     -1.07275733282253     -0.35943481147786
  H   1.90025406058418     -1.02985964502434     -1.36042464296941
  H   0.87705934417237     -1.98079835080322     -0.25665269245202
  H   2.28377780428640     -1.08633081717741      0.36381567093517
  N   1.25641118099082      1.32127344160423     -0.27902030291596
  H   0.77373319117077      2.16143193324703     -0.00294318320306
  H   2.26051459947103      1.30698246924685     -0.23558768856807
