15
Coordinates from ORCA-job run
  C   -0.71882708724916      0.00962462197456      0.19376283461899
  C   0.59236421386023      0.12044167177030     -0.19872989874132
  N   -1.52157421609349      1.17977560672225      0.48963483102674
  O   -1.04011638370540      2.31461905246635      0.33775724638776
  O   -2.67343256635937      0.98309827573156      0.89012443603658
  N   -1.33893519030577     -1.24409288889855      0.37709499916925
  H   -2.14453714380476     -1.32787856125138     -0.23282044511690
  H   -1.69114499843616     -1.32186053104235      1.32447492067537
  C   1.40003099322735     -1.11951224218806     -0.45436594137390
  H   1.73813842832547     -1.12909390857654     -1.49427547800570
  H   0.81199483684965     -2.00928532848600     -0.25447699006279
  H   2.28836976117725     -1.12083012374946      0.18546449518702
  N   1.24487349637820      1.27986471714549     -0.46319187567546
  H   0.80592139575771      2.14168877319917     -0.18098628773130
  H   2.24787446037823      1.24444086518267     -0.51846684639434
