15
Coordinates from ORCA-job run
  C   -0.73782683350429     -0.00543105093279      0.10076051257745
  C   0.60731174482060      0.12795986009440     -0.13838929215652
  N   -1.60967619855276      1.14979460736003      0.18474119821471
  O   -2.79502317917721      0.93866460726006      0.46061400629181
  O   -1.15071172291560      2.28649665926619     -0.01444865337459
  N   -1.33368323615098     -1.26383350669806      0.32721548419659
  H   -1.79924475682964     -1.27046206379660      1.22764944546826
  H   -2.05263153489868     -1.43980228609323     -0.36575314852881
  C   1.48249279307788     -1.09197845178761     -0.17005267373582
  H   0.90155335596205     -1.98705386433110      0.02679475305840
  H   2.27158605423070     -0.99936916941045      0.58318327382840
  H   1.96379900859713     -1.17376180674136     -1.14852157502872
  N   1.24921631969755      1.28662490133379     -0.43232416814366
  H   0.75127642616172      2.14998714533644     -0.28468254751811
  H   2.25156175948151      1.29116441914028     -0.35578661514940
