15
Coordinates from ORCA-job run
  C   -0.61886893268123     -0.03464674938472      0.42956482179731
  C   0.62504928255281      0.05620721955125     -0.12997657437316
  N   -1.80510106003240     -0.32857113651289     -0.34445901453741
  O   -2.88249313413000     -0.25699713267681      0.25925804520709
  O   -1.70288556890507     -0.62353424995697     -1.53891915126512
  N   -0.77822765716774      0.19584307253614      1.81556121940680
  H   -1.04170821819995     -0.66047499695824      2.29200464321121
  H   -1.53480160739618      0.85293895318114      1.96779212289260
  C   0.97120579267878     -0.13854247357666     -1.57621713117809
  H   2.02942081505868      0.07606189411475     -1.73978958586094
  H   0.36570528563669      0.49937790724817     -2.21814856064477
  H   0.77045623523162     -1.16476186198911     -1.88416281787383
  N   1.68339707362257      0.26641369176700      0.71100464011869
  H   1.41724884621910      0.56288550787457      1.64030957138398
  H   2.50060284751232      0.69980035478237      0.31517777171564
