15
Coordinates from ORCA-job run
  C   -0.74170668578477      0.04831286760780      0.15493867994596
  C   0.55060577326649      0.08210532275180     -0.28995053595684
  N   -1.15941086023310     -0.50434140649468      1.43397949491833
  O   -2.37350126631137     -0.45762460947312      1.66607724026990
  O   -0.33783199525389     -1.00705264178649      2.20282111324123
  N   -1.76206240689278      0.55196828814838     -0.68587571884168
  H   -2.13233240909567      1.42221077826838     -0.31844120847376
  H   -2.53666769873492     -0.10048211620400     -0.71417788011527
  C   1.79391243992292     -0.37109443035253      0.41492777993067
  H   2.58786226857763      0.35761550284632      0.23429910459878
  H   2.11673388434822     -1.33171012105156     -0.00015568276274
  H   1.64494561324454     -0.49661299050342      1.47945494591310
  N   0.78116308722342      0.66097922426190     -1.51148448207613
  H   -0.04975348501157      0.77346053880481     -2.07606267424571
  H   1.61804374073486      0.37226579317639     -1.99135017634585
