15
Coordinates from ORCA-job run
  C   -0.71239782623568      0.01107320998408      0.20357091801428
  C   0.58855506141563      0.11546920816294     -0.22056497597140
  N   -1.59144444213425      1.16106036355919      0.24758469796100
  O   -1.18299386409357      2.26767808840025     -0.14011119027508
  O   -2.72539377253076      0.98224431285087      0.70370631174802
  N   -1.24988179890273     -1.20869317916619      0.66877552552897
  H   -2.03924413110384     -1.48344998750145      0.09486654960941
  H   -1.61393516612633     -1.08773263586091      1.60761669730555
  C   1.45896346124840     -1.10745357867913     -0.23817919502427
  H   1.59922713933762     -1.43641202235263     -1.27230825059115
  H   1.01242904399408     -1.91727114989938      0.32944291524629
  H   2.44738108073396     -0.87414018432058      0.16945547824799
  N   1.16698081902296      1.22788115561882     -0.74214212260729
  H   0.67109646991075      2.09946999732984     -0.63961875805884
  H   2.17165792546376      1.25227640187427     -0.77209460113347
