16

C	0.0	0.0	0.0
C	-0.664327	0.041796	-1.364371
F	1.349443	0.0	0.0
H	-1.740983	0.091793	-1.136134
C	-0.438078	1.137734	0.825206
N	-0.67202	2.030129	1.551723
N	-0.359083	-1.275014	0.79609
O	0.286984	-1.441171	1.826413
O	-1.216158	-2.019588	0.341122
N	-0.273902	-1.120981	-2.169012
H	-0.662052	-0.959794	-3.091959
H	-0.761615	-1.929293	-1.797227
N	-0.237727	1.283032	-1.97273
H	-0.968877	1.653404	-2.561552
H	0.606723	1.124531	-2.508671
Cl	-3.845753	0.0	0.0
