16

C	0.0	0.0	0.0
C	-0.600972	0.028959	-1.430072
F	1.352825	0.0	0.0
H	0.28623	-0.013206	-2.074112
C	-0.438697	1.085305	0.887194
N	-0.668413	1.957364	1.639326
N	-0.332808	-1.336289	0.706129
O	-1.321267	-1.362636	1.422269
O	0.447681	-2.249361	0.483436
N	-1.240289	1.323489	-1.610364
H	-2.14475	1.282713	-1.130972
H	-1.440122	1.444425	-2.596722
N	-1.373551	-1.179269	-1.66582
H	-1.627992	-1.196321	-2.64744
H	-2.253001	-1.085826	-1.145268
Cl	-3.946974	0.0	0.0
