15

C	0.0	0.0	0.0
C	-0.206322	-0.078372	-1.534003
Cl	1.749621	0.0	0.0
H	0.269035	-1.008287	-1.833102
H	0.335617	0.772668	-1.936695
N	-0.431379	1.330939	0.612137
O	-0.513224	2.242069	-0.198565
O	-0.504791	1.416571	1.823753
N	-0.433145	-1.258006	0.748331
O	-0.467658	-1.217723	1.964877
O	-0.554063	-2.24604	0.039194
N	-1.492071	-0.068322	-2.30935
O	-1.880992	1.023837	-2.704321
O	-1.913729	-1.160694	-2.670388
Cl	-2.976642	0.0	0.0
