13

C	-0.50586	0.065401	-1.441033
C	0.0	0.0	0.0
Cl	0.18438	-1.257479	-2.43345
H	1.088755	0.0	0.0
H	-0.341684	0.875866	0.556847
C	-1.972864	0.036395	-1.539645
N	-3.141264	0.104913	-1.649314
C	-0.052761	1.341267	-2.018122
N	0.284928	2.357879	-2.502727
N	-0.499214	-1.185184	0.742538
O	-1.268851	-1.966978	0.180029
O	-0.102543	-1.280382	1.898154
Br	3.343983	0.0	0.0
