13

C	-0.505969	-0.002873	-1.436041
C	0.0	0.0	0.0
Cl	-2.316944	0.061654	-1.462178
H	1.092854	0.0	0.0
H	-0.375794	-0.874394	0.528599
C	-0.002538	1.089202	-2.274581
N	0.35469	1.908974	-3.036894
C	-0.12148	-1.279825	-2.048258
N	0.15481	-2.301387	-2.558377
N	-0.459467	1.189951	0.750669
O	-0.578472	2.247784	0.136893
O	-0.649642	1.034028	1.954161
Br	3.336727	0.0	0.0
