13

C	-0.500709	-0.007723	-1.436933
C	0.0	0.0	0.0
Cl	-2.31535	-0.080848	-1.467749
H	1.093071	0.0	0.0
H	-0.378	0.877472	0.521359
C	-0.122147	1.265272	-2.060467
N	0.152021	2.283022	-2.578017
C	0.009429	-1.105026	-2.262942
N	0.381059	-1.932308	-3.008659
N	-0.460084	-1.185779	0.757841
O	-0.663268	-1.019411	1.957607
O	-0.568898	-2.249187	0.153062
Br	3.333825	0.0	0.0
