18

C	-0.438792	0.041467	-1.469367
C	0.0	0.0	0.0
Br	0.098912	-1.676579	-2.295067
H	1.09542	0.0	0.0
C	-1.939478	0.177016	-1.653896
H	-2.262279	1.103016	-1.167075
H	-2.20517	0.219572	-2.71331
H	-2.460615	-0.668692	-1.198263
C	0.366163	1.138755	-2.147389
H	1.415048	0.998936	-1.867149
H	0.022542	2.102044	-1.762137
H	0.238822	1.112274	-3.232625
C	-0.55286	-1.137104	0.72298
N	-1.045245	-2.003134	1.350131
N	-0.372803	1.277484	0.645194
H	-1.118083	1.147036	1.317089
H	0.454295	1.585871	1.141783
F	2.603101	0.0	0.0
