18

C	-0.338207	0.012221	-1.474647
C	0.0	0.0	0.0
Br	-2.34167	0.065564	-1.729783
H	1.099653	0.0	0.0
C	0.242279	1.26249	-2.103481
H	-0.169364	2.150521	-1.626833
H	0.038124	1.287059	-3.177131
H	1.318081	1.223603	-1.907764
C	0.186644	-1.250694	-2.129817
H	0.041938	-1.219229	-3.21263
H	1.253401	-1.289745	-1.885032
H	-0.303563	-2.142057	-1.733631
C	-0.457886	-1.215793	0.670716
N	-0.827403	-2.173555	1.246532
N	-0.403409	1.218645	0.701904
H	-1.28514	1.090612	1.186629
H	0.32168	1.42659	1.378424
F	2.592838	0.0	0.0
