18

C	-0.429129	0.00481	-1.484102
C	0.0	0.0	0.0
Br	0.219315	1.714029	-2.280793
H	1.096341	0.0	0.0
C	0.31843	-1.120872	-2.192466
H	0.199568	-1.065958	-3.281606
H	-0.082168	-2.08186	-1.848722
H	1.378518	-1.042437	-1.896117
C	-1.938261	-0.029849	-1.692666
H	-2.422389	0.832361	-1.222751
H	-2.184971	-0.009627	-2.757624
H	-2.346641	-0.946482	-1.250163
C	-0.463979	-1.255047	0.582748
N	-0.867676	-2.268452	1.026231
N	-0.462183	1.091555	0.850966
H	0.006439	1.938217	0.547112
H	-1.468645	1.229807	0.779362
F	2.581012	0.0	0.0
