18

C	-0.178246	0.014243	-1.513367
C	0.0	0.0	0.0
Br	-2.117977	0.074696	-2.020061
H	1.09839	0.0	0.0
C	0.508585	1.253264	-2.056847
H	0.032587	2.156716	-1.675908
H	1.535035	1.196269	-1.67172
H	0.500467	1.256306	-3.151203
C	0.448452	-1.242315	-2.092577
H	-0.069505	-2.14483	-1.75994
H	0.445047	-1.214806	-3.186247
H	1.478098	-1.247023	-1.711512
C	-0.509624	-1.220575	0.620034
N	-0.918637	-2.173315	1.177184
N	-0.467243	1.215659	0.652169
H	0.139064	1.398766	1.440634
H	-1.415365	1.105894	0.988009
F	2.624569	0.0	0.0
