18

C	-0.397406	0.041329	-1.48687
C	0.0	0.0	0.0
Br	0.021314	-1.73439	-2.264178
H	1.094797	0.0	0.0
C	-1.87506	0.29524	-1.716137
H	-2.105093	0.334188	-2.784204
H	-2.127281	1.256979	-1.260245
H	-2.482424	-0.48908	-1.257027
C	0.515868	1.054265	-2.163652
H	0.227997	2.051394	-1.81888
H	0.428301	1.007736	-3.252748
H	1.539446	0.849852	-1.832051
C	-0.587892	-1.110488	0.731164
N	-1.100192	-1.9454	1.384208
N	-0.35604	1.297858	0.615745
H	-1.089056	1.192859	1.304634
H	0.483426	1.614184	1.08559
F	2.602392	0.0	0.0
