14
Coordinates from ORCA-job run
  C   0.62668678668848     -0.26856684246187     -0.14090858404150
  C   -0.67003814912131      0.12531775824446      0.14095327351760
  N   1.56104724490004     -0.45441063957218      0.96302916427382
  O   2.74900466127964     -0.59255865280294      0.65859897816642
  O   1.14226117046354     -0.44643096858735      2.12687195862953
  N   1.18908784858707     -0.58466825492894     -1.34938070374865
  H   2.18797519993304     -0.44619744319009     -1.37315613622765
  H   0.66461698139976     -0.28039693270446     -2.15308738590695
  N   -1.31276343280104      0.17711448085054      1.34961020600674
  H   -2.06610305438749      0.84753820895993      1.37261286061830
  H   -0.70732259438960      0.13979645382450      2.15312626348308
  N   -1.55046752475450      0.48849165713554     -0.96320903721502
  O   -2.61464905900703      1.03450574551977     -0.65924470738356
  O   -1.19833607879060      0.26046542971309     -2.12681615017216
