14
Coordinates from ORCA-job run
  C   0.63821424931241     -0.21782340629218     -0.19557558132649
  C   -0.62581072575026      0.14649756326142      0.16554919171273
  N   1.57172826155455     -0.48945787679642      0.91297751139446
  O   1.85679846367856      0.45706173239490      1.63847012504822
  O   2.02931362884612     -1.62783629845448      0.97106720061436
  N   1.19786813035891     -0.43118540838755     -1.40181658036854
  H   2.19969388595812     -0.49448710971237     -1.46714794654671
  H   0.66571839457047     -0.13616097584417     -2.20533956276148
  N   -1.01027548448705      0.20131957848042      1.50829109565908
  H   -1.04308976294776      1.15140864227523      1.85687211101636
  H   -1.92043693429430     -0.22143268458389      1.63505476204258
  N   -1.59155618061737      0.47633372804535     -0.86762609249576
  O   -1.24891855829847      0.38853380267981     -2.05618336508297
  O   -2.72024736788391      0.79722871293393     -0.49459286890586
