14
Coordinates from ORCA-job run
  C   0.64139434510400     -0.27370569861448      0.02319731087586
  C   -0.65633117368488      0.12235509063011     -0.03447433236769
  N   1.78303787791240      0.65123814741414     -0.01435042331876
  O   2.26151953390598      0.87394189058354     -1.12044452280978
  O   2.19326017202778      1.04422853979969      1.07182102949722
  N   1.02783730665309     -1.56011861748735      0.11134280203659
  H   0.30448088735549     -2.25806895190698      0.16814731172751
  H   1.99363485045989     -1.82024593166394      0.19033956771961
  N   -1.65144821281687     -0.86939256817962      0.02845642591070
  H   -2.23825413634614     -0.84098180041870     -0.79803328435638
  H   -2.25623408969619     -0.71708782396430      0.82811462878768
  N   -1.02737228790176      1.52159703956769     -0.12741800206657
  O   -2.23814480664049      1.75875825896939     -0.13184867699387
  O   -0.13638026633228      2.36748242527081     -0.19484983464212
