14
Coordinates from ORCA-job run
  C   -0.65666346325532      0.19383186232282      0.10651691385418
  C   0.65410204344819     -0.20121639148267     -0.10453316634358
  N   -1.54427537493277      0.30175091022376     -1.04240044318308
  O   -1.09270684735458      0.10808911019664     -2.17794052058932
  O   -2.73179200421650      0.54457155394022     -0.80521039918665
  N   -1.24490124813377      0.63050454597986      1.26499335089313
  H   -0.85092874063212      0.26727576839628      2.11532544838170
  H   -2.25143066282086      0.66034730946559      1.19960985483639
  N   1.24434634211445     -0.63907990631254     -1.25953687041706
  H   0.83130261315912     -0.29806105642160     -2.11097836005695
  H   2.25165749998377     -0.64662614797410     -1.20641555045584
  N   1.55099919304938     -0.28921734951394      1.04205579973758
  O   1.10053688328505     -0.12097628392948      2.18088292865473
  O   2.74075376630597     -0.51119392489086      0.79763101387475
