14
Coordinates from ORCA-job run
  C   -0.67675127462348      0.09349145780274      0.13571316074969
  C   0.63951883741441     -0.23770891250449     -0.13739703692936
  N   -1.56285652440618      0.42593276215967     -0.97353104498345
  O   -2.65592685028189      0.91493015073094     -0.67499752898490
  O   -1.18813362028977      0.22925424876917     -2.13581491428185
  N   -1.33212032851339      0.10440968180820      1.33872883707178
  H   -0.73204500804799      0.09187257662721      2.14706410565800
  H   -2.11713641564074      0.73757905714319      1.35918752873524
  N   1.22707330412108     -0.51460998411386     -1.34351164782230
  H   0.69917952327330     -0.22156695110967     -2.14912113801309
  H   2.21964181622257     -0.33506415952685     -1.35388694901359
  N   1.57056721913999     -0.39386872281287      0.97390183141359
  O   2.76602085762338     -0.48072658220238      0.67999560410002
  O   1.14096846400870     -0.41292462277100      2.13366919230020
