14
Coordinates from ORCA-job run
  C   -0.65745885236344      0.15284850037775     -0.02461238005616
  C   0.62520861348371     -0.25953763741435      0.04011238602539
  N   -1.00523980138167      1.57196967709227     -0.16380909115923
  O   -0.46344379179467      2.22650725933949     -1.04703942633386
  O   -1.87343615362461      1.96948641005308      0.61222187890921
  N   -1.79804603827785     -0.63951928903548     -0.01308171563631
  H   -1.62467306389183     -1.63003984608670     -0.06957298829530
  H   -2.45792025120447     -0.39311709737557      0.71152672547452
  N   1.08558111538812     -1.53591540358213      0.33976348259758
  H   0.38019896185411     -2.17138899024517      0.67596231025543
  H   1.67287184756191     -1.93782298807437     -0.37765088713695
  N   1.74360704488863      0.66603262019425     -0.17745007021597
  O   1.76214456952327      1.72289019280162      0.44309211997031
  O   2.60960579983880      0.25660659195531     -0.94946234439866
