14
Coordinates from ORCA-job run
  C   0.58818072996644     -0.29419149577101      0.06665704865962
  C   -0.68254336565679      0.15985390048028     -0.04663779653560
  N   1.73497551958118      0.60671814058456      0.02417145776297
  O   1.54389626040153      1.80809819428451      0.20124325506871
  O   2.83186038426000      0.07280445168433     -0.15394579809035
  N   0.79380371151512     -1.67438808869699      0.21322729064976
  H   1.47939902208662     -1.86265048285788      0.93461450251975
  H   1.13306056877453     -2.08811621617792     -0.64847710615103
  N   -1.78566596266969     -0.64138721845545     -0.04156441568263
  H   -1.58513521589362     -1.57088592721861      0.30316960314564
  H   -2.62058488168732     -0.21123158456640      0.32925656915201
  N   -1.03059278587271      1.56123937024788     -0.32258405090814
  O   -0.71236263431729      2.01735883978541     -1.41222197828149
  O   -1.68829135048799      2.11777811667729      0.55409141869079
