14
Coordinates from ORCA-job run
  C   -0.65838157134734      0.15120067921412      0.09455149951822
  C   0.63293070419190     -0.23504642341493     -0.09670662930796
  N   -1.05193692588786      1.56189544319698     -0.04058134004875
  O   -2.03460594913258      1.92626916648883      0.60293985947573
  O   -0.41190430222972      2.24813220489942     -0.83406184412732
  N   -1.70008404464590     -0.69138975925798      0.37955970273413
  H   -2.55377469846638     -0.60758879299615     -0.14781699169140
  H   -1.46937027453561     -1.61577809865935      0.70007585635709
  N   1.03652889563572     -1.49979732660885     -0.43400974207134
  H   0.33670125115103     -2.12547995989214     -0.79344893126930
  H   1.78635038524196     -1.92738172886210      0.08450085307895
  N   1.74067242342712      0.71289822688903      0.09703870491181
  O   2.76942434607243      0.49987795570044     -0.54235754198722
  O   1.57744976052523      1.60218841330268      0.92931654442735
