14
Coordinates from ORCA-job run
  C   0.63110368631372     -0.24957718930351     -0.06315191434671
  C   -0.66407506781287      0.14035532905760      0.06111440489441
  N   1.76567459076805      0.65432011730968      0.09029428211455
  O   1.63670064847816      1.63333291326439      0.81868377632910
  O   2.79997025008391      0.32039509266026     -0.49409223747545
  N   0.95147125797965     -1.59196394619973     -0.16740612651701
  H   1.93550017800119     -1.73052590146359     -0.35344495328320
  H   0.36753420864888     -2.07226943782229     -0.84265509526315
  N   -1.67672336046823     -0.80126344562205      0.11853895319078
  H   -2.57401370008383     -0.37746132054708      0.31190130132722
  H   -1.46449405515661     -1.55068851009722      0.76735369757246
  N   -1.10467801972090      1.52685424191386     -0.04556621347575
  O   -2.15638954242750      1.80154578287126      0.53856665518660
  O   -0.44658107460361      2.29594627397844     -0.73913653025386
