14
Coordinates from ORCA-job run
  C   0.59584252627310     -0.28366598436604     -0.03570964284647
  C   -0.68661338553965      0.14525973532816      0.03503366823221
  N   1.72243288596011      0.64295039523684      0.00267165919374
  O   2.80813801115777      0.18409479338582     -0.35881751375787
  O   1.52960060748883      1.78374614705448      0.41802565057491
  N   0.83332798988911     -1.66102921153530     -0.16126166247269
  H   1.11011385401273     -1.89992279884717     -1.10740389441368
  H   1.57718805853513     -1.95673593850539      0.45940165476686
  N   -1.77384185475904     -0.67579602218876     -0.02074884367984
  H   -1.53168300085945     -1.64605334298724      0.13081288099017
  H   -2.58041808406734     -0.34448930065305      0.48852536954054
  N   -1.07785313827534      1.56243751974339      0.04855850041024
  O   -1.68181532786507      1.92721613808572      1.05516019074811
  O   -0.84541914195089      2.22198787024855     -0.95524801728623
