14
Coordinates from ORCA-job run
  C   -0.66573082496049      0.14176622661289      0.03747462840808
  C   0.63203407263519     -0.25205177513190     -0.03780781094151
  N   -1.10042162054648      1.52572051120377     -0.11896044697026
  O   -2.16845608182340      1.81690784288063      0.42625384229156
  O   -0.42078738354200      2.27538340707404     -0.81294188590837
  N   -1.68135179835242     -0.79686702865732      0.09032911842582
  H   -1.49059722219801     -1.52802356301177      0.76608806555861
  H   -2.58307455245502     -0.36667662563473      0.24526765686323
  N   0.95432983127687     -1.59662271259454     -0.09781975408047
  H   0.39079563063957     -2.09425951227611     -0.77782946940338
  H   1.94334916764818     -1.73958712460383     -0.25135960134177
  N   1.76254134941000      0.65565805783395      0.12575351779770
  O   2.81323070131164      0.30677761044853     -0.41930721480248
  O   1.61313873095639      1.65287468585640      0.82485935410322
