14
Coordinates from ORCA-job run
  C   0.65172081187451     -0.26229803050121     -0.00026509930466
  C   -0.65369596481129      0.09728991310740      0.01543483974357
  N   1.76186352015684      0.68837322804342     -0.15841027604100
  O   2.54622750654961      0.73620777651445      0.78676007392343
  O   1.85245867207359      1.27737909522606     -1.22678557490878
  N   1.09141678330354     -1.55267502878584      0.00509704552185
  H   0.36683730485933     -2.20640944783896      0.27059620332900
  H   1.98784939228482     -1.69418862858626      0.44774393449878
  N   -1.62493567750917     -0.91476646738233      0.05429702275516
  H   -2.07279535873419     -1.02690994091021     -0.84884141972369
  H   -2.34746340132994     -0.69644880783727      0.72976601658143
  N   -1.06803136037334      1.49564267770239     -0.02392346319302
  O   -2.25249653985119      1.69768468932964     -0.29991687364873
  O   -0.23895568849313      2.36111897191870      0.24944757046667
