14
Coordinates from ORCA-job run
  C   -0.69100758115330      0.03782858772301     -0.00472453774927
  C   0.69134196829077     -0.04188080876000      0.00432491518755
  N   -1.40183133897346     -0.00320328633792      1.26740735451729
  O   -0.75829545202235     -0.02717936563694      2.32292023184797
  O   -2.63516548606028     -0.01767429742959      1.21179324230035
  N   -1.52836891409097      0.28261084778353     -1.06190358296936
  H   -2.49217807208849      0.07178069117578     -0.85142915560001
  H   -1.18175262734970     -0.01252427797232     -1.95878951196346
  N   1.53071186827216     -0.28893367007330      1.05903506178337
  H   2.49168133465042     -0.05983334269917      0.85459471923956
  H   1.17723136947256     -0.01105332090401      1.95894583852183
  N   1.40248781668541      0.00796464012318     -1.26803683357849
  O   0.75928890075235      0.01275173487514     -2.32387221105583
  O   2.63485621361488      0.05134586813260     -1.21126553048151
