14
Coordinates from ORCA-job run
  C   0.63000103431515     -0.25512028045987      0.01721410066895
  C   -0.65746664329809      0.14537236275397     -0.01923251668136
  N   1.73037810110252      0.70725956503008      0.14567508116469
  O   2.58190481090919      0.40867678269779      0.98204312124088
  O   1.74987502461169      1.68261854990444     -0.59659414635530
  N   1.11073646504859     -1.55411849423544     -0.09435037326248
  H   1.67583976064285     -1.85040181885230      0.68914361321507
  H   0.42383205674681     -2.23799236570802     -0.36776414642576
  N   -1.79132350660487     -0.65489097694773      0.03736322721544
  H   -2.42656487684256     -0.51189439335444     -0.73564959478552
  H   -1.61315670586998     -1.62799101851243      0.22648527120789
  N   -1.02392958386261      1.56599542039275     -0.08048619247690
  O   -1.85542681999840      1.84754823703886     -0.94252395620201
  O   -0.53469911690028      2.33493843025235      0.73867651147641
