14
Coordinates from ORCA-job run
  C   0.63623500705305     -0.27243708052658      0.03335662659250
  C   -0.65535921916012      0.13628268660218     -0.03901634799656
  N   1.77825307127591      0.64266869252570      0.13562837086476
  O   1.68510053305898      1.60168869769363      0.89246964263049
  O   2.77250618300865      0.32057856251889     -0.51619480063379
  N   0.98573222305133     -1.58957362132359      0.20954031811507
  H   0.29143638110601     -2.22111338831225     -0.17190059009363
  H   1.93100665126233     -1.78750579423267     -0.08894534565876
  N   -1.67233224590237     -0.80464965098135      0.10434376434244
  H   -2.56059576875039     -0.44139833914837     -0.21349112236293
  H   -1.76004404394198     -1.13177085400181      1.05996991095970
  N   -1.03121522636644      1.50573823994239     -0.36834215190473
  O   -2.18864202645332      1.83017914635545     -0.08761576351667
  O   -0.21208151924162      2.21131270288837     -0.95080251133789
