14
Coordinates from ORCA-job run
  C   0.64029149938619     -0.25256757544587     -0.07957569537903
  C   -0.66388584430144      0.10720235806776      0.05073214674106
  N   1.75698236810602      0.70571208439582     -0.08711388022884
  O   2.42036100791675      0.74425229335088     -1.12020603143409
  O   2.00956755092018      1.26158899765899      0.97362167734390
  N   1.07344643453383     -1.53107043827600     -0.13652058028917
  H   0.36666381235806     -2.24605552263140     -0.17292035449038
  H   2.00802214966738     -1.71925273619868     -0.45150563614395
  N   -1.61728318569189     -0.91848033335345      0.17065945197730
  H   -2.37284744483411     -0.79374113530469     -0.49398373383958
  H   -2.03062138275246     -0.92098119606209      1.09679781087101
  N   -1.08387122430048      1.49559788116695      0.05977572171765
  O   -2.23882462840239      1.70669719952127      0.43964879899117
  O   -0.26700111260563      2.36209812311051     -0.24940969583705
