14
Coordinates from ORCA-job run
  C   0.58923072920186     -0.30056065023192      0.00173007491758
  C   -0.68253920347885      0.16442122818836     -0.00465264519556
  N   1.73792853667195      0.59682158970579     -0.06009456090727
  O   1.55963421280834      1.75270277053443     -0.43859840518493
  O   2.82459099322360      0.10076162786412      0.24491547649325
  N   0.79337372105678     -1.68587227143068      0.09074966452709
  H   1.10296367190803     -1.95153471973124      1.01936463140239
  H   1.50059079635051     -1.99008813697248     -0.56738056227604
  N   -1.78852754406813     -0.62790076458016      0.08138217854170
  H   -1.58185421914503     -1.60145393978510     -0.09833104277812
  H   -2.60799541839461     -0.26465125572981     -0.38348885490381
  N   -1.03413123757087      1.59142279398976      0.02674793626222
  O   -1.66073631973736      1.99650162026772     -0.94997358463992
  O   -0.75052871882623      2.21943010791122      1.03762969374142
