14
Coordinates from ORCA-job run
  C   -0.64698812110132      0.16139310185185      0.12649557025571
  C   0.62404385746755     -0.23690615202587     -0.12484054528504
  N   -1.08387023620964      1.54851060400809      0.24310178551864
  O   -2.00318193220742      1.74783037892939      1.04029984380230
  O   -0.56307486409074      2.39126406605602     -0.48031563662822
  N   -1.63056179640761     -0.80082518636811      0.33414122603967
  H   -1.64491033863309     -1.49573635637167     -0.40429629025132
  H   -2.53788727703266     -0.39797638066041      0.51862001542015
  N   0.89229197163853     -1.59357388374554     -0.27721804579249
  H   1.86741671516131     -1.78100903676984     -0.46033391493556
  H   0.51602738600172     -2.14390344614616      0.48695276348305
  N   1.76481320020714      0.65635217240960     -0.29627065166695
  O   1.82004684347872      1.67559742425071      0.38406908601728
  O   2.62483459172750      0.26898269458192     -1.09040520597721
