14
Coordinates from ORCA-job run
  C   0.58993765380198     -0.29287982653143      0.05454916928153
  C   -0.68399591284315      0.15718237230734     -0.03508607455015
  N   1.73275362163664      0.61252176894255      0.00051767412846
  O   1.54240788466808      1.81010875554273      0.20244251428355
  O   2.82650731521073      0.08519309932351     -0.21304270277898
  N   0.80302350360608     -1.67323852307572      0.19051135080616
  H   1.49690949318040     -1.86338192615046      0.90348542091914
  H   1.13592970395254     -2.07887180345499     -0.67754292528416
  N   -1.78436298604483     -0.64768026144049     -0.01657211691499
  H   -1.57617474945202     -1.57859579136840      0.31943627693007
  H   -2.61421654732184     -0.22157116285922      0.36993179246637
  N   -1.04095311784989      1.55865348536086     -0.29868323664338
  O   -0.72447625581318      2.02776385490403     -1.38335174018638
  O   -1.70328960673153      2.10279595849969      0.58240459754276
