14
Coordinates from ORCA-job run
  C   0.63096595188170     -0.25605822647410      0.03963379645553
  C   -0.65352710907661      0.14504327498685     -0.05153800198058
  N   1.71336480769132      0.69620302626921      0.31203710868997
  O   2.51760425595363      0.33170588615828      1.16882720981304
  O   1.76648353423214      1.73172091875102     -0.34207273976617
  N   1.12456500826823     -1.54374257178724     -0.13483351924236
  H   0.46344912542275     -2.20151407891257     -0.51511408983757
  H   1.62634166944737     -1.90241272175846      0.66548448028525
  N   -1.78431886414476     -0.65678843788603     -0.12776631067028
  H   -1.61402005190503     -1.64197643396174     -0.00642274272975
  H   -2.37444712508473     -0.45099736899309     -0.92201004844800
  N   -1.02370778839942      1.56637064015889     -0.03298011793072
  O   -1.78425478638791      1.91323486339789     -0.93566763377473
  O   -0.61049862789866      2.26821123005110      0.88242260913638
