14
Coordinates from ORCA-job run
  C   -0.64424529406629      0.21669295807458      0.13226183557778
  C   0.64427574706554     -0.21597168925640     -0.13199288171031
  N   -1.55785896547785      0.41597629754167     -0.98642237158108
  O   -2.72555812616780      0.69970216789014     -0.70321046164772
  O   -1.13913497158438      0.28997923546060     -2.14291405998236
  N   -1.18745070963889      0.61711869156486      1.32538772320426
  H   -0.76869403239824      0.20690075416076      2.14285445391710
  H   -2.19516476778681      0.65769816743075      1.29886957955338
  N   1.18729314074594     -0.61556354613951     -1.32512840317951
  H   0.76898539175749     -0.20620284141910     -2.14318302547376
  H   2.19468588617816     -0.66120834174426     -1.29940057416760
  N   1.55790667483905     -0.41575855624336      0.98656303463924
  O   2.72536310342093     -0.70030710698720      0.70318527817573
  O   1.13959692311315     -0.28905619033353      2.14312987267483
