14
Coordinates from ORCA-job run
  C   0.62562132683625     -0.23450728976386      0.12108299352487
  C   -0.64853110413769      0.15953319884062     -0.12135805345817
  N   1.76783157042446      0.66137905687678      0.26697709592690
  O   2.63906916441672      0.28379314463401      1.05356468661773
  O   1.81301165802446      1.67280563615755     -0.42567162052601
  N   0.89541551130590     -1.58917502464311      0.29042558965465
  H   1.87219858158532     -1.77235283915805      0.46937745346026
  H   0.51625054305037     -2.14968655619385     -0.46493602081518
  N   -1.63310642619792     -0.80619671310626     -0.30642523886666
  H   -1.63554340132377     -1.49429153559240      0.43857898229342
  H   -2.54366636615039     -0.40608919862299     -0.48095005708457
  N   -1.08850068459159      1.54445951641652     -0.25201381159910
  O   -2.01628383461004      1.73233208975324     -1.04209573815009
  O   -0.56176653863206      2.39699651440182      0.45544373902194
