14
Coordinates from ORCA-job run
  C   -0.65673386781719      0.14568471339341     -0.03059985014133
  C   0.62977875533630     -0.25471714873345      0.02694631833133
  N   -1.02167212953208      1.56614301016667     -0.10199263898481
  O   -0.55466056002602      2.33534367380818      0.72972126414187
  O   -1.83045088981003      1.84664216858162     -0.98556625207675
  N   -1.79144334775320     -0.65419218106274      0.01067900417970
  H   -1.61733617079335     -1.62420148616069      0.21870450255789
  H   -2.41049416499869     -0.52298615660799     -0.77737256834943
  N   1.11234905907740     -1.55412442769112     -0.07598362379245
  H   1.66300970157667     -1.84926330579136      0.71828660866196
  H   0.42638330841874     -2.23653771627632     -0.35590638883786
  N   1.72751317162819      0.70812764477783      0.17185064096106
  O   1.75451871363073      1.68656179175026     -0.56609907247126
  O   2.56923842106253      0.40751941984571      1.01733205582008
