14
Coordinates from ORCA-job run
  C   -0.68716825366444      0.13914961953723      0.04507056270706
  C   0.59841190484197     -0.27711203490494     -0.04448154311292
  N   -1.09293180916533      1.55179058587227      0.06713161659864
  O   -1.65379768225355      1.91757756593720      1.09776618066272
  O   -0.91459768728096      2.20462628409046     -0.95192173116260
  N   -1.76568948099001     -0.69347258722650      0.00450616108513
  H   -2.57094459616708     -0.37320730397236      0.52262992944841
  H   -1.51171660405517     -1.66172091079571      0.14902707367739
  N   0.84758689874207     -1.65252696802210     -0.16878360903413
  H   1.59771006966161     -1.94025071477339      0.44812828794617
  H   1.12137634174672     -1.89075439283454     -1.11592947672676
  N   1.71523478956864      0.66116719136632     -0.02889696050799
  O   2.80442328157415      0.20657665421095     -0.38521492624802
  O   1.51210282744138      1.80915701151511      0.36096843466690
