14
Coordinates from ORCA-job run
  C   -0.68609397115448      0.14271554886989     -0.04469499378771
  C   0.59602183608757     -0.27933384306694      0.06389773470846
  N   -1.07134323478041      1.53722931123400     -0.30555889634526
  O   -1.74317250302042      2.06655177689523      0.57718101862701
  O   -0.76590771518381      2.01280405644212     -1.39048777422918
  N   -1.76792903665382     -0.68709169362710     -0.04951523311329
  H   -1.54351467480423     -1.61516999710203      0.28408476940748
  H   -2.61374827646335     -0.28343143062420      0.32635335647776
  N   0.83723360304803     -1.65525086983476      0.19532055070436
  H   1.18726012845649     -2.05053081099329     -0.67069836445500
  H   1.52693373063931     -1.83408520616931      0.91514121735656
  N   1.71879638666441      0.65155063395404      0.03123854483551
  O   1.49606521605812      1.84596799028833      0.21825727221683
  O   2.82939851110659      0.14807453373400     -0.15051920240354
