14
Coordinates from ORCA-job run
  C   -0.64249610438659      0.11497619681405     -0.10435416276888
  C   0.63658134787077     -0.27835725180794      0.10342044565645
  N   -1.00048561163269      1.51690069592631     -0.28491946575628
  O   -0.10914292872026      2.31957148221178     -0.55394047337963
  O   -2.19793905420923      1.78649303165627     -0.16858804008838
  N   -1.64649400520878     -0.86589372033569     -0.12299053274250
  H   -2.29483888324049     -0.70219485194041     -0.88390959719081
  H   -2.18027278834309     -0.85782715673500      0.73970037351877
  N   1.01502157339095     -1.57244861307582      0.30772805286433
  H   1.94420437952424     -1.79633681469758     -0.01844065569963
  H   0.29264981027148     -2.23055701027507      0.04640229871879
  N   1.76716284263465      0.64732732361741      0.26776492234281
  O   2.65558592419078      0.53777401685938     -0.57481216207617
  O   1.76046349785826      1.38157267178231      1.24593899660113
