14
Coordinates from ORCA-job run
  C   0.64901506749703     -0.26804190397954     -0.00772289186655
  C   -0.65307930919920      0.10235865748573      0.02155076808198
  N   1.76636138143421      0.67598879220179     -0.15441485912782
  O   1.86163951114391      1.27608792102901     -1.21624645323450
  O   2.55159544734890      0.70607991436904      0.79075313274109
  N   1.07826589328545     -1.56146985654113     -0.02647613397516
  H   0.35084638771370     -2.21564979854794      0.22952335257384
  H   1.97679443769463     -1.71859966641086      0.40636676269973
  N   -1.63314447310320     -0.90157590380704      0.04911036843808
  H   -2.09167524644540     -0.99019659934781     -0.85125795973158
  H   -2.34640278241587     -0.69127410476944      0.73691608797427
  N   -1.05513358409324      1.50497312196002      0.00311541002348
  O   -0.21608382670000      2.35906873159877      0.28201822312378
  O   -2.23899890416091      1.72125069475940     -0.26423580772063
