14
Coordinates from ORCA-job run
  C   0.64668542045747     -0.26414907978931      0.06959202696684
  C   -0.65008520093226      0.09970878538518     -0.07072121192952
  N   1.75944244785792      0.69020648464059      0.18032063317296
  O   2.40050230787333      0.62494158287995      1.22700717758638
  O   1.99700055374914      1.39480185248752     -0.79108943522271
  N   1.09246834981905     -1.55084416719784      0.00018171423219
  H   0.34176908864083     -2.22329542608337      0.08547560107004
  H   1.91591210836219     -1.74511705327537      0.55128066331508
  N   -1.60539419696987     -0.90417155712577     -0.28987975518363
  H   -2.42727758787000     -0.75220815992596      0.28213036774128
  H   -1.90364461752300     -0.92145163559273     -1.25916071669030
  N   -1.06841367263313      1.49612956922301     -0.01616498461805
  O   -2.20033776559097      1.73528626288675     -0.44213950592389
  O   -0.29862723524069      2.32016254148737      0.47316742548332
