14
Coordinates from ORCA-job run
  C   0.59702625584958     -0.28099449953640      0.04091049928653
  C   -0.68404862574846      0.14383914946807     -0.06946250919437
  N   1.68911604032630      0.63536771111498      0.35098921219515
  O   1.41425374666063      1.73905760755608      0.81739181454939
  O   2.82632307727983      0.20438928159393      0.14856631432149
  N   0.86888297612797     -1.64254411563996     -0.16184360152191
  H   1.30451953649414     -1.79908561762570     -1.06434762711554
  H   1.49953360464346     -1.99444317876934      0.54834002640105
  N   -1.73524841194784     -0.66612600757705     -0.38179151191073
  H   -1.51092553532521     -1.64684873465517     -0.27793628087316
  H   -2.62215308395703     -0.37938948136367      0.00642986081636
  N   -1.08909518033030      1.55509023702586      0.00351721809126
  O   -1.84887674402617      1.83266900528258      0.92900620456119
  O   -0.70830765604691      2.29801864312578     -0.89076961960672
