14
Coordinates from ORCA-job run
  C   0.67749141837786     -0.07475428584262     -0.14086804343320
  C   -0.68213913746399     -0.07146181855288      0.12132397896710
  N   1.60945238201980     -0.16294202238518      0.97687918595902
  O   1.18312017279818     -0.41419454528569      2.11059460233383
  O   2.79813359113548      0.04435863305835      0.71776786930202
  N   1.32249209776410     -0.06884928483060     -1.34905817876615
  H   2.25288718991265      0.31811287627711     -1.30456790305197
  H   0.75128571907950      0.19772104744494     -2.13400088285347
  N   -1.33531800881373     -0.34849797928673      1.29294810186340
  H   -0.75544111418909     -0.33190399123029      2.11572892949107
  H   -2.24107834262936      0.09044673003967      1.35887703869044
  N   -1.60840077994642      0.19594162124980     -0.97224324530892
  O   -1.18868503833507      0.22865060767503     -2.13538442506346
  O   -2.78480014970992      0.39737241166909     -0.65799702812972
