14
Coordinates from ORCA-job run
  C   0.64689824207170     -0.25491861315742      0.09864068396005
  C   -0.64873557758269      0.08949380719335     -0.09159427442972
  N   1.74987165329709      0.71394270780237      0.17761524792631
  O   2.00742904435150      1.35910993061115     -0.82937276371788
  O   2.36412168199839      0.71947287244507      1.24233598195921
  N   1.10415580157016     -1.53946155967869      0.11563965985336
  H   0.35744808347665     -2.21308692912573      0.22369083038095
  H   1.91401192544440     -1.69239413689356      0.69918235798216
  N   -1.59285819057934     -0.93289394716155     -0.26975341485976
  H   -1.87240161448657     -1.00845497055620     -1.24183551795287
  H   -2.42686284724912     -0.75431868967330      0.27651438633842
  N   -1.07732851234271      1.48367783902671     -0.13085777412939
  O   -2.20173042913128      1.68777622588647     -0.59351875068304
  O   -0.32301926083818      2.34205546328134      0.32231334737218
