14
Coordinates from ORCA-job run
  C   -0.68537948990086      0.15160588155939     -0.03048046672809
  C   0.59245235043199     -0.28859601499898      0.04991247954584
  N   -1.05483506439828      1.55348230733198     -0.27365925611464
  O   -1.70072363533501      2.08671745489704      0.62586806359720
  O   -0.76460943942094      2.03198680054730     -1.36153628812478
  N   -1.77894864014146     -0.66242133877140     -0.01909055732998
  H   -1.56190164933578     -1.59626199041054      0.30297229384304
  H   -2.61102963686112     -0.24932864722410      0.37671537727216
  N   0.81840853999754     -1.66836903227927      0.16761410963806
  H   1.51566467427887     -1.86087884945120      0.87666295359738
  H   1.15258947357019     -2.06060977101619     -0.70603834812504
  N   1.72689797982205      0.62792319261297     -0.00055872285887
  O   2.82587435535681      0.11156357851418     -0.21351355819668
  O   1.52454018193599      1.82318642868882      0.20313191998441
