14
Coordinates from ORCA-job run
  C   -0.65234898349291      0.16102185929407     -0.09670339700728
  C   0.62934120396960     -0.23576887711456      0.09542899917710
  N   -1.09771172445052      1.54755021329965     -0.18374964327875
  O   -0.54978337269436      2.38564251419982      0.52498466660751
  O   -2.04996071164696      1.75067128148862     -0.94022324451351
  N   -1.64168003091034     -0.80208652317458     -0.26852254713953
  H   -1.61711694049973     -1.50717799079686      0.45996747655776
  H   -2.55847208057283     -0.40075654707392     -0.40277338074540
  N   0.90616045763090     -1.59324368783017      0.22597185392451
  H   0.50259774424998     -2.13825054589636     -0.52805769615441
  H   1.88832918831681     -1.77909551026032      0.36891522452899
  N   1.77455115618436      0.65892165028206      0.22274665487153
  O   1.79554395599001      1.68506215304610     -0.44923752855516
  O   2.67155013792599      0.26651001053644      0.97225256172665
