14
Coordinates from ORCA-job run
  C   0.59474551713361     -0.28385536805217      0.05510626808372
  C   -0.68545236866482      0.14746673285390     -0.03865591912069
  N   1.72319318203687      0.64044621776826      0.03179977474904
  O   1.50937100009216      1.83285449970372      0.24054494073736
  O   2.82950781967033      0.13313430204772     -0.16499500460198
  N   0.82828908519012     -1.66322841737940      0.16343392457336
  H   1.52063416315691     -1.85720784148824      0.87683330470930
  H   1.17243270377237     -2.04605066731838     -0.71054755196128
  N   -1.77208840536911     -0.67573208671210     -0.04941226353977
  H   -1.55180228637942     -1.61040215185718      0.26803598577453
  H   -2.61382175417711     -0.27281996138930      0.33621605943322
  N   -1.06382175921081      1.54827392255278     -0.27468707515148
  O   -0.76004628030561      2.04012650992561     -1.35285955842723
  O   -1.72914061694548      2.06699430934479      0.61918711474191
