16

C	0.0	0.0	0.0
C	-0.380193	-0.037284	-1.49487
Cl	1.81627	0.0	0.0
H	0.175261	-0.858709	-1.941305
N	-0.501351	1.055258	0.729258
H	-1.544408	0.901036	0.599626
H	-0.232517	0.94841	1.700153
N	-0.357078	-1.413508	0.581663
O	-0.431855	-2.35953	-0.192133
O	-0.481673	-1.463686	1.796559
N	0.175204	1.195776	-2.179309
O	1.087554	1.003007	-2.985348
O	-0.335789	2.277597	-1.916483
C	-1.780481	-0.158896	-1.932463
N	-2.556884	-0.295978	-2.811809
F	-2.613848	0.0	0.0
