16

C	0.0	0.0	0.0
C	-0.625281	-0.062979	-1.400822
Cl	1.767065	0.0	0.0
H	-1.743604	-0.163516	-1.088351
N	-0.512455	1.078716	0.754001
H	-1.544544	0.965043	0.654835
H	-0.186961	1.956077	0.366997
N	-0.421553	-1.294722	0.752314
O	-0.870644	-2.215862	0.08515
O	-0.232477	-1.300639	1.95816
N	-0.238354	-1.156358	-2.352595
O	0.727256	-1.87034	-2.109961
O	-0.949952	-1.237601	-3.352415
C	-0.409445	1.196777	-2.086041
N	-0.235948	2.230373	-2.619596
F	-2.765371	0.0	0.0
