11
Coordinates from ORCA-job run
  C   -0.71656982120332      0.43612909821282     -0.13813906431471
  C   0.29249675864852     -0.33129349576660      0.30496005428221
  H   -0.56271479586940      1.09419533449825     -0.99185946562708
  H   0.12448405064588     -0.97765348568159      1.16696119985075
  N   -1.97823797043030      0.57321555149605      0.45631313243027
  H   -2.72472611736959      0.67717462070203     -0.21425573207902
  H   -2.18740663628698     -0.16862230699620      1.10912182017153
  C   1.66400706328901     -0.32731784468931     -0.30217669096588
  H   1.95915334532563     -1.32584549443380     -0.63909069494464
  H   2.42194247085165      0.00703788517127      0.41337508177008
  H   1.70657165239890      0.34198013748708     -1.16520964057351
