11
Coordinates from ORCA-job run
  C   -0.79144799580411      0.05125697991891     -0.30551328876664
  C   0.33752869630399     -0.09542387724738      0.40676222588359
  H   -0.73871755929499      0.17193625005834     -1.38634854735549
  H   0.26662005694997     -0.22465008757228      1.48719720124744
  N   -2.10074364563613     -0.03570219701292      0.18659126186538
  H   -2.73680026068322      0.60795900449072     -0.25933814519489
  H   -2.14942374732028      0.05498432750802      1.19139894875487
  C   1.70568043078646     -0.12604498443726     -0.20711146411182
  H   1.65204001344664      0.03038358659834     -1.28751455814587
  H   2.35316733336577      0.65086124687463      0.21106100918945
  H   2.20409667788589     -1.08556024917911     -0.03618464336601
