11
Coordinates from ORCA-job run
  C   -0.98502605788067     -0.53130325996565     -0.06602254503840
  C   0.30347311022127     -0.85724267477131      0.13928618486652
  H   -1.75566631215181     -1.29719626599680     -0.04948037360091
  H   0.54104748199213     -1.89769672290184      0.32982448436917
  N   -1.44606722526804      0.74225498003592     -0.41323052598990
  H   -2.39160606032576      0.92647496160227     -0.11766054520030
  H   -0.82648935697839      1.48957815512357     -0.13722517404216
  C   1.41631954173839      0.15319227364089      0.08860118277575
  H   1.45649765978467      0.66101905636664     -0.88140785344242
  H   1.30208359604899      0.92892044367882      0.85599433871217
  H   2.38643362281923     -0.31700094681251      0.25232082659050
