11
Coordinates from ORCA-job run
  C   -0.97054369286607     -0.51337163920615      0.22661049581843
  C   0.33422566152065     -0.83657680395915      0.18533674245090
  H   -1.71685618052977     -1.26589020761664      0.46635043680924
  H   0.60938159885307     -1.86547430434727      0.38795029054177
  N   -1.48293502825128      0.77968034637752      0.08114529213301
  H   -0.87609426185158      1.40379864704085     -0.42964208392571
  H   -2.42094558130785      0.80453042518114     -0.28635376490854
  C   1.41376091644502      0.17078255644499     -0.10047250824747
  H   1.30439667930061      0.61908747215053     -1.09582634574552
  H   1.40283177666659      0.99033348118382      0.62661513000878
  H   2.40277811202061     -0.28689997324965     -0.06371368493489
