11
Coordinates from ORCA-job run
  C   -0.82186972047577     -0.05266168154913     -0.21185279238481
  C   0.38816120998765      0.19428337675290      0.31564407922011
  H   -0.90223427401867     -0.58033978323268     -1.16084735361565
  H   0.45160920500632      0.73160112867012      1.26234747162039
  N   -2.05196775271628      0.39469162615417      0.28850454493507
  H   -2.79753256654941     -0.27428451951597      0.16913625011992
  H   -1.99751293446299      0.69929997669264      1.24996431485092
  C   1.67556083323752     -0.19956765640072     -0.34554967438390
  H   2.28554300572537      0.67427995871980     -0.59577508160519
  H   1.48658999346437     -0.74668176200667     -1.27265710554841
  H   2.28265300080189     -0.83962066428446      0.30208534679156
