11
Coordinates from ORCA-job run
  C   -0.96972888462863     -0.50939780332332      0.24001972681343
  C   0.33437936282490     -0.83471774852685      0.19423209972664
  H   -1.71580118396351     -1.25759355674912      0.49363916270809
  H   0.61001389148523     -1.86137345351958      0.40718783549347
  N   -1.48103146136846      0.78253904214357      0.08174845232076
  H   -2.42130001548668      0.80543123383145     -0.27993014226526
  H   -0.87582530970424      1.39912648765065     -0.43999209059918
  C   1.41287504382670      0.16768408460316     -0.11203381759698
  H   1.40675341391032      0.99803098501766      0.60279420619822
  H   2.40167208788844     -0.29033956600180     -0.07341141570160
  H   1.29899305521594      0.60161029487419     -1.11325401709759
