11
Coordinates from ORCA-job run
  C   -0.98453809644629     -0.52923565653558      0.09232178464092
  C   0.32022896828311     -0.84682867611743      0.16468542449680
  H   -1.74622644443437     -1.28597434518196      0.25925789498286
  H   0.58119883339944     -1.87189233648501      0.40232146879474
  N   -1.48723556469868      0.71809769815273     -0.29000573060631
  H   -2.38896974203251      0.93180026452802      0.10576147056475
  H   -0.83922393693174      1.47933459772760     -0.15147979810959
  C   1.41591817679868      0.15033286215230     -0.09372560369161
  H   1.38437143566352      0.98796431247262      0.61413488678693
  H   2.40058030774462     -0.30877130315862     -0.00102688150655
  H   1.34489606265421      0.57517258244534     -1.10124491635293
