11
Coordinates from ORCA-job run
  C   -0.97519561351790     -0.53896593497860      0.12539450175275
  C   0.28096962780770     -0.84050403690118     -0.24800623367420
  H   -1.73693137799697     -1.31221355671951      0.17702421634465
  H   0.50864659068771     -1.87498035361878     -0.47919579835472
  N   -1.45138472351357      0.75314351924122      0.37061690837877
  H   -2.21990246880229      0.78489379919907      1.02172713913818
  H   -0.73016826898790      1.41082905236230      0.62785111312615
  C   1.36326784659473      0.19616495839005     -0.37358571283110
  H   1.57299316706069      0.69047725481777      0.58315986078409
  H   1.08988893027448      0.97898980092497     -1.08979663903647
  H   2.29881629039333     -0.24783450271732     -0.71518935562809
