14

C	-0.260752	0.05533	-1.516909
C	0.0	0.0	0.0
Cl	0.124326	-1.582588	-2.175755
H	1.093728	0.0	0.0
H	-0.420437	-0.903716	0.444156
C	-1.656712	0.321282	-1.872624
N	-2.774025	0.564587	-2.146038
C	0.706403	1.060707	-2.134426
H	1.692097	0.811862	-1.718363
H	0.685908	1.012055	-3.224537
H	0.426401	2.067437	-1.810109
C	-0.515598	1.184353	0.659098
N	-0.930999	2.147438	1.191042
F	2.596412	0.0	0.0
