14

C	-0.260958	0.073642	-1.51605
C	0.0	0.0	0.0
Cl	0.125129	-1.555972	-2.194916
H	1.093872	0.0	0.0
H	-0.420052	-0.909395	0.433211
C	-1.656726	0.34282	-1.868985
N	-2.774058	0.587417	-2.140834
C	0.705357	1.087212	-2.121522
H	1.691635	0.834073	-1.709132
H	0.683259	1.052451	-3.212329
H	0.425087	2.089384	-1.784248
C	-0.515789	1.175967	0.673507
N	-0.931079	2.133065	1.216212
F	2.596242	0.0	0.0
