14

C	-0.278998	-0.001296	-1.510842
C	0.0	0.0	0.0
Cl	0.063475	-1.64343	-2.17415
H	1.098248	0.0	0.0
H	-0.325414	0.968032	0.399022
C	-1.672306	0.302961	-1.846866
N	-2.780274	0.603863	-2.101278
C	0.699156	0.983796	-2.148807
H	0.676617	0.914371	-3.237541
H	1.68427	0.738297	-1.728972
H	0.427166	2.000174	-1.846424
C	-0.638659	-1.06707	0.738007
N	-1.149266	-1.922215	1.362496
F	2.598028	0.0	0.0
