14

C	-0.215513	-0.058162	-1.507622
C	0.0	0.0	0.0
Cl	-1.971533	-0.246067	-1.981909
H	1.098474	0.0	0.0
H	-0.402211	0.916887	0.435961
C	0.221388	1.21226	-2.097419
N	0.562443	2.202273	-2.628217
C	0.61004	-1.198575	-2.090529
H	1.623141	-1.04447	-1.69636
H	0.215104	-2.148966	-1.726198
H	0.588099	-1.188902	-3.181756
C	-0.532855	-1.164697	0.675021
N	-0.957799	-2.109785	1.230522
F	2.571498	0.0	0.0
