14

C	-0.260848	0.007858	-1.517905
C	0.0	0.0	0.0
Cl	0.127268	-1.649219	-2.12524
H	1.094417	0.0	0.0
H	-0.419962	-0.889382	0.472894
C	-1.656968	0.25965	-1.882501
N	-2.774301	0.489819	-2.170563
C	0.704203	0.994371	-2.166964
H	0.683791	0.911894	-3.255041
H	1.68965	0.760124	-1.743802
H	0.422953	2.009531	-1.8735
C	-0.513757	1.205193	0.621452
N	-0.91876	2.188568	1.122712
F	2.595842	0.0	0.0
