17

C	-0.239859	-0.061665	-1.498915
C	0.0	0.0	0.0
Cl	-0.11639	1.585594	-2.202104
H	1.093966	0.0	0.0
H	-0.434771	0.91289	0.410374
C	0.78674	-0.944504	-2.170688
H	0.637851	-1.980267	-1.861812
H	0.725874	-0.886847	-3.258967
H	1.752784	-0.603187	-1.77068
N	-1.672322	-0.512608	-1.778968
O	-1.836434	-1.60491	-2.325024
O	-2.582072	0.19665	-1.357896
C	-0.509604	-1.234078	0.734913
H	-1.600264	-1.3395	0.701067
H	-0.209421	-1.162968	1.783649
H	-0.057324	-2.146006	0.338566
F	2.715741	0.0	0.0
