17

C	-0.268829	0.052209	-1.493137
C	0.0	0.0	0.0
Cl	-1.943248	0.620703	-1.90012
H	1.093574	0.0	0.0
H	-0.322491	0.972451	0.389987
C	0.767702	0.93135	-2.159887
H	0.728	0.85616	-3.247905
H	0.569527	1.963614	-1.861407
H	1.740088	0.630329	-1.743861
N	-0.17034	-1.36709	-2.054765
O	-1.135384	-2.116006	-1.925073
O	0.908134	-1.691975	-2.543111
C	-0.632083	-1.135804	0.781133
H	-0.181106	-2.092762	0.512124
H	-1.712954	-1.211962	0.629224
H	-0.440568	-0.978934	1.845994
F	2.713305	0.0	0.0
