17

C	-0.234895	-0.044855	-1.499893
C	0.0	0.0	0.0
Cl	-0.076476	1.607564	-2.185933
H	1.093896	0.0	0.0
H	-0.433229	0.910276	0.418308
C	0.776269	-0.939989	-2.176515
H	1.746089	-0.624964	-1.763964
H	0.601062	-1.97749	-1.888768
H	0.73086	-0.86114	-3.26311
N	-1.675562	-0.465057	-1.791025
O	-1.857021	-1.53934	-2.36556
O	-2.573007	0.249835	-1.353704
C	-0.514273	-1.240877	0.719336
H	-0.235775	-1.173202	1.774043
H	-1.603315	-1.355101	0.665303
H	-0.047049	-2.147419	0.327802
F	2.717092	0.0	0.0
