18

C	-0.455719	0.209348	-1.411177
C	0.0	0.0	0.0
Cl	-2.269433	0.379967	-1.602172
H	1.108642	0.0	0.0
N	0.174827	1.496053	-1.958872
O	1.209345	1.344622	-2.598552
O	-0.345403	2.559801	-1.644203
C	-0.061763	-0.877717	-2.304927
N	0.190695	-1.784531	-3.008941
C	-0.414404	-1.371018	0.515171
H	0.077985	-1.526751	1.479214
H	-1.498108	-1.457397	0.652385
H	-0.074328	-2.170699	-0.147111
C	-0.415609	1.105783	0.957921
H	0.00842	2.068968	0.672969
H	-1.502512	1.208445	1.04197
H	-0.006989	0.853558	1.940778
H	2.692602	0.0	0.0
