18

C	-0.455016	0.055484	-1.426515
C	0.0	0.0	0.0
Cl	-2.270898	0.159871	-1.635527
H	1.107802	0.0	0.0
N	0.14111	1.296768	-2.102462
O	1.16732	1.109722	-2.744971
O	-0.401048	2.37275	-1.882724
C	-0.028003	-1.106512	-2.203205
N	0.263611	-2.072024	-2.807909
C	-0.412629	-1.310618	0.65612
H	-0.086049	-2.175174	0.072768
H	0.094002	-1.37136	1.62376
H	-1.494617	-1.37598	0.816643
C	-0.41961	1.199935	0.835116
H	0.029233	2.123675	0.468735
H	-0.039712	1.03889	1.848041
H	-1.505907	1.327666	0.88104
H	2.69741	0.0	0.0
