18

C	-0.429592	0.015746	-1.449314
C	0.0	0.0	0.0
Cl	0.28836	-1.323321	-2.377711
H	1.096389	0.0	0.0
N	-1.959663	-0.119377	-1.520794
O	-2.590372	0.936398	-1.442355
O	-2.443313	-1.245618	-1.518969
C	-0.090393	1.264152	-2.131657
N	0.185734	2.264536	-2.683544
C	-0.455515	-1.250399	0.73548
H	0.093155	-1.284817	1.681181
H	-1.5298	-1.254779	0.953016
H	-0.20873	-2.157311	0.181416
C	-0.42063	1.263686	0.739412
H	-1.505071	1.35525	0.864577
H	0.045689	1.230013	1.728881
H	-0.04739	2.160365	0.23993
H	2.705169	0.0	0.0
