18

C	-0.433666	-0.148623	-1.439786
C	0.0	0.0	0.0
Cl	0.275806	-1.587886	-2.211895
H	1.109796	0.0	0.0
N	-1.965265	-0.288841	-1.484856
O	-2.452095	-1.406978	-1.359745
O	-2.593794	0.770973	-1.510052
C	-0.096334	1.011595	-2.264609
N	0.179018	1.924713	-2.951516
C	-0.448327	-1.158046	0.877009
H	0.112475	-1.092111	1.813849
H	-0.215276	-2.123497	0.425544
H	-1.520065	-1.130397	1.106431
C	-0.410572	1.342113	0.591271
H	-0.044479	2.175246	-0.012668
H	0.068135	1.424664	1.571227
H	-1.493244	1.448217	0.717104
H	2.691129	0.0	0.0
