18

C	-0.438401	0.370538	-1.39667
C	0.0	0.0	0.0
Cl	0.296004	-0.680449	-2.631612
H	1.108631	0.0	0.0
N	-1.968695	0.223526	-1.492335
O	-2.432341	-0.872005	-1.788843
O	-2.617752	1.205525	-1.127556
C	-0.13106	1.756928	-1.749076
N	0.122582	2.861597	-2.060083
C	-0.440664	-1.398455	0.403763
H	0.126778	-1.672775	1.297739
H	-1.510891	-1.459328	0.634033
H	-0.209404	-2.135181	-0.366848
C	-0.415805	1.037677	1.033382
H	-1.499044	1.080905	1.192546
H	0.068897	0.767432	1.976418
H	-0.059779	2.035457	0.766833
H	2.689745	0.0	0.0
