18

C	-0.536738	0.14503	-1.414557
C	0.0	0.0	0.0
Cl	0.060679	1.610157	-2.221443
H	1.109322	0.0	0.0
N	-0.091348	-1.071908	-2.254354
O	0.99968	-1.02985	-2.79122
O	-0.873185	-2.021425	-2.247894
C	-2.001373	0.169081	-1.449727
N	-3.17417	0.224541	-1.38728
C	-0.422614	-1.326574	0.623319
H	-0.01889	-1.346729	1.639737
H	-1.510197	-1.456481	0.675756
H	0.012207	-2.178315	0.097138
C	-0.450501	1.168276	0.867974
H	-0.153179	2.126315	0.439253
H	0.060054	1.077784	1.830525
H	-1.533238	1.173074	1.042786
H	2.796712	0.0	0.0
