15

C	0.0	0.0	0.0
C	-0.380219	-0.19445	-1.490577
F	1.403555	0.0	0.0
H	0.551848	-0.073748	-2.055329
H	-0.295548	-0.881257	0.56934
N	-0.494493	1.230786	0.524501
H	-0.307317	1.215781	1.523189
H	-1.516241	1.093224	0.425025
N	-1.403918	0.617681	-1.99739
H	-2.225294	0.451518	-1.36882
H	-1.603254	0.352243	-2.952554
N	-0.641793	-1.725803	-1.709614
O	0.024754	-2.531582	-1.061126
O	-1.423233	-2.041893	-2.604283
F	-2.842003	0.0	0.0
