15

C	0.0	0.0	0.0
C	-0.395154	0.102722	-1.475231
F	1.380079	0.0	0.0
H	0.461583	-0.212104	-2.015579
H	-0.280655	-0.966757	0.420536
N	-0.462231	1.147164	0.724784
H	-0.197667	1.027844	1.699046
H	-1.50634	0.953697	0.671103
N	-0.774365	1.378342	-1.945654
H	-1.550347	1.624508	-1.342748
H	-0.030041	1.942234	-1.689797
N	-1.35938	-0.92879	-1.916058
O	-1.139569	-2.059045	-1.542098
O	-2.21341	-0.639039	-2.727167
F	-2.605114	0.0	0.0
