15

C	0.0	0.0	0.0
C	-0.401374	0.337238	-1.472663
F	1.385996	0.0	0.0
H	0.546268	0.599141	-1.956196
H	-0.306794	-1.014165	0.26217
N	-0.504147	1.01538	0.870654
H	-1.528211	0.829106	0.779579
H	-0.230293	0.762334	1.814843
N	-1.389899	1.332205	-1.733509
H	-1.062245	2.164894	-1.255185
H	-2.209938	0.985227	-1.195681
N	-0.787893	-0.955326	-2.159303
O	-1.782212	-0.997456	-2.869067
O	-0.01429	-1.900614	-1.98071
F	-2.774328	0.0	0.0
