15

C	0.0	0.0	0.0
C	-0.491782	-0.083995	-1.442252
F	1.409975	0.0	0.0
H	-1.586989	-0.053417	-1.349001
H	-0.285312	-0.951989	0.46978
N	-0.519961	1.160553	0.628918
H	-0.320818	1.100521	1.622009
H	-1.549977	0.988541	0.500577
N	-0.013113	-1.233596	-2.170668
H	0.944487	-1.421465	-1.897838
H	-0.591102	-2.02258	-1.912323
N	-0.039107	1.14043	-2.177946
O	1.122864	1.155147	-2.587542
O	-0.842564	2.058143	-2.326615
F	-2.792229	0.0	0.0
