15

C	0.0	0.0	0.0
C	-0.387665	-0.245413	-1.479322
F	1.404114	0.0	0.0
H	0.543243	-0.180156	-2.052724
H	-0.285892	-0.865667	0.597739
N	-0.499973	1.241977	0.488918
H	-0.301914	1.262763	1.484367
H	-1.521352	1.096042	0.394731
N	-1.390567	0.574403	-2.015732
H	-2.215281	0.438312	-1.385017
H	-1.597364	0.277276	-2.959302
N	-0.702559	-1.774767	-1.638143
O	-0.057632	-2.584535	-0.971431
O	-1.511114	-2.088398	-2.508775
F	-2.836904	0.0	0.0
