15

C	0.0	0.0	0.0
C	-0.380423	0.142678	-1.499764
F	1.423029	0.0	0.0
H	0.545017	0.268233	-2.073417
H	-0.318871	-0.969599	0.367253
N	-0.494135	1.008142	0.865028
H	-0.427687	1.893688	0.372972
H	-1.504578	0.773831	0.875992
N	-1.30418	1.18278	-1.741321
H	-1.546885	1.19531	-2.722838
H	-2.132432	0.905021	-1.159595
N	-0.867282	-1.231465	-2.033452
O	-0.364263	-2.25269	-1.567958
O	-1.65298	-1.216054	-2.977538
F	-2.789781	0.0	0.0
