16

C	-0.620906	-0.014002	-1.389871
C	0.0	0.0	0.0
Br	0.031605	-1.698158	-2.297407
H	1.092118	0.0	0.0
N	-2.011585	0.112649	-1.355207
H	-2.428515	-0.637006	-0.820803
H	-2.41314	0.189742	-2.278646
N	-0.058027	1.076581	-2.314877
O	1.137937	1.278306	-2.28091
O	-0.873055	1.604872	-3.069466
C	-0.505854	-1.129623	0.751068
N	-0.93282	-2.07749	1.301751
N	-0.403985	1.26185	0.684209
O	-0.331321	2.290917	0.01839
O	-0.711796	1.210273	1.872586
F	2.427856	0.0	0.0
