16

C	-0.619748	0.008317	-1.386827
C	0.0	0.0	0.0
Br	0.200898	-1.569535	-2.357465
H	1.092845	0.0	0.0
N	-2.016852	-0.000308	-1.367938
H	-2.408531	0.061169	-2.296136
H	-2.368772	-0.803907	-0.863951
N	-0.149041	1.177976	-2.257504
O	-0.962447	1.582339	-3.084216
O	0.992826	1.564315	-2.113804
C	-0.465747	-1.173836	0.7119
N	-0.880766	-2.129337	1.259701
N	-0.418226	1.210152	0.760729
O	-0.635361	2.238715	0.121152
O	-0.445179	1.122209	1.986254
F	2.420555	0.0	0.0
