16

C	-0.467023	-0.00733	-1.47128
C	0.0	0.0	0.0
Br	-2.330459	-0.467027	-1.698026
H	1.089558	0.0	0.0
N	-0.207084	1.203167	-2.180802
H	-0.929993	1.891291	-2.014147
H	0.711828	1.566683	-1.94256
N	0.387029	-1.053866	-2.269839
O	1.586533	-0.851861	-2.222511
O	-0.184125	-1.992025	-2.841501
C	-0.502253	-1.099573	0.791333
N	-0.859016	-2.012071	1.440346
N	-0.392304	1.310918	0.633502
O	-1.585587	1.641392	0.644228
O	0.522954	2.001641	1.089622
F	2.503127	0.0	0.0
