11

C	-0.479402	0.047473	-1.457487
C	0.0	0.0	0.0
Br	-0.007706	-1.567929	-2.422981
H	1.096043	0.0	0.0
H	0.018406	0.881688	-1.956097
H	-1.565063	0.152594	-1.519169
C	-0.51138	-1.165675	0.719712
N	-0.940718	-2.093039	1.298432
C	-0.455318	1.226935	0.66016
N	-0.822734	2.232267	1.144263
Br	3.353557	0.0	0.0
