11

C	-0.472714	-0.050395	-1.459513
C	0.0	0.0	0.0
Br	-0.002974	1.565851	-2.420533
H	1.096045	0.0	0.0
H	-1.556064	-0.16191	-1.528005
H	0.03246	-0.880271	-1.955502
C	-0.454577	-1.226385	0.661439
N	-0.820928	-2.231737	1.146284
C	-0.514841	1.166135	0.715668
N	-0.947772	2.094131	1.290581
Br	3.359603	0.0	0.0
