11

C	-0.468653	0.060893	-1.460646
C	0.0	0.0	0.0
Br	-0.020052	-1.555217	-2.429599
H	1.09612	0.0	0.0
H	-1.548373	0.188871	-1.531682
H	0.050125	0.883909	-1.951483
C	-0.517188	-1.167676	0.709926
N	-0.956542	-2.097159	1.277572
C	-0.451774	1.224731	0.666002
N	-0.817786	2.230166	1.150922
Br	3.355845	0.0	0.0
