13

C	-0.212562	-0.079088	-1.516705
C	0.0	0.0	0.0
Br	-0.077449	1.94729	-2.173637
H	1.09421	0.0	0.0
H	-0.413169	0.905449	0.438847
N	0.7705	-0.894546	-2.035619
H	0.803885	-0.948274	-3.043629
H	1.686103	-0.704479	-1.581312
C	-1.553993	-0.412758	-1.987047
N	-2.626329	-0.728461	-2.348867
C	-0.501071	-1.189903	0.66386
N	-0.900878	-2.140035	1.2297
H	2.726486	0.0	0.0
