13

C	-0.250522	-0.066729	-1.509026
C	0.0	0.0	0.0
Br	-0.043174	1.856278	-2.263808
H	1.094227	0.0	0.0
H	-0.307734	-0.961476	0.424422
N	0.687002	-0.96807	-2.021392
H	0.712505	-0.991235	-3.032004
H	1.615723	-0.773376	-1.606789
C	-1.617789	-0.401721	-1.908659
N	-2.705706	-0.723622	-2.217318
C	-0.626417	1.084122	0.720385
N	-1.14003	1.927454	1.358703
H	2.723608	0.0	0.0
