13

C	-0.560138	-0.036022	-1.421971
C	0.0	0.0	0.0
Br	0.190061	-1.601052	-2.360343
H	1.092651	0.0	0.0
H	-0.29906	0.953314	0.456268
N	-2.010271	-0.142932	-1.561403
H	-2.422403	0.636445	-1.059462
H	-2.304166	-0.993117	-1.090583
C	-0.126777	1.165629	-2.142857
N	0.196278	2.14489	-2.704375
C	-0.548574	-1.08847	0.785883
N	-1.001557	-1.970645	1.418153
H	2.675965	0.0	0.0
