13

C	-0.261524	0.116311	-1.503439
C	0.0	0.0	0.0
Br	-0.07001	2.115328	-2.02452
H	1.103372	0.0	0.0
H	-0.303631	-1.007213	0.304504
N	0.67505	-0.713228	-2.128839
H	1.604597	-0.569383	-1.698825
H	0.693465	-0.61344	-3.134559
C	-1.633414	-0.176331	-1.923745
N	-2.729169	-0.468414	-2.234805
C	-0.61953	0.985108	0.854988
N	-1.102603	1.746592	1.609325
H	2.712677	0.0	0.0
