13

C	-0.290473	-0.053545	-1.510912
C	0.0	0.0	0.0
Br	-0.069174	1.763124	-2.267863
H	1.093893	0.0	0.0
H	-0.296113	-0.970545	0.417406
N	0.644006	-0.927084	-2.181514
H	1.566653	-0.726715	-1.766927
H	0.409153	-1.885126	-1.935935
C	-1.668639	-0.45208	-1.81492
N	-2.76622	-0.826606	-2.010806
C	-0.626797	1.06305	0.753741
N	-1.127327	1.909427	1.39821
H	2.733226	0.0	0.0
