13

C	-0.515399	0.198879	-1.41766
C	0.0	0.0	0.0
Br	0.134832	-1.296256	-2.532793
H	1.101733	0.0	0.0
H	-0.350073	-0.971984	0.358485
N	-1.963664	0.164997	-1.477903
H	-2.323083	0.857151	-0.826639
H	-2.276249	0.409286	-2.411895
C	0.040727	1.423279	-2.022673
N	0.361244	2.432622	-2.535207
C	-0.518069	1.055805	0.851039
N	-0.955383	1.925532	1.512564
H	2.669368	0.0	0.0
