13

C	-0.235796	0.102283	-1.494631
C	0.0	0.0	0.0
Br	-2.130617	0.788691	-1.91106
H	1.097322	0.0	0.0
H	-0.300773	0.940432	0.467173
N	0.720197	1.023002	-1.989697
H	1.623119	0.836789	-1.505294
H	0.826456	0.957928	-2.993986
C	-0.225114	-1.209974	-2.156914
N	-0.197809	-2.242161	-2.721189
C	-0.612888	-1.129027	0.65849
N	-1.095305	-2.040569	1.222614
H	2.661403	0.0	0.0
