17

C	0.0	0.0	0.0
C	-0.401551	-0.134508	-1.530114
Br	1.932578	0.0	0.0
H	0.539877	-0.305094	-2.059316
N	-0.402899	1.258907	0.763245
O	-0.355414	2.32233	0.163555
O	-0.62369	1.123002	1.956253
C	-0.410068	-1.154078	0.797201
N	-0.530999	-2.110866	1.469848
C	-1.055121	1.096554	-2.158656
H	-1.3103	0.816526	-3.187871
H	-1.961377	1.323052	-1.602117
H	-0.38772	1.958928	-2.196749
N	-1.180776	-1.360872	-1.668195
H	-2.051736	-1.11514	-1.167702
H	-1.357138	-1.492811	-2.659654
F	-2.464515	0.0	0.0
