17

C	0.0	0.0	0.0
C	-0.434418	0.260053	-1.478828
Br	1.963866	0.0	0.0
H	-1.443615	0.643314	-1.322276
N	-0.414898	1.153967	0.898832
O	-0.575978	2.242437	0.368699
O	-0.464875	0.92323	2.098684
C	-0.453253	-1.251245	0.583213
N	-0.577444	-2.338387	1.015813
C	-0.550299	-1.066036	-2.214074
H	0.394841	-1.623258	-2.216951
H	-1.331379	-1.662024	-1.743082
H	-0.837931	-0.869424	-3.251313
N	0.437494	1.22007	-2.140523
H	0.925823	0.798727	-2.918794
H	-0.109837	2.002699	-2.466178
F	-2.421689	0.0	0.0
