17

C	0.0	0.0	0.0
C	-0.255806	-0.001077	-1.571081
Br	1.938567	0.0	0.0
H	0.561163	0.618451	-1.956186
N	-0.402909	1.280301	0.682342
O	-0.392461	2.291397	-0.01072
O	-0.577934	1.242084	1.891385
C	-0.503753	-1.159776	0.712879
N	-0.632793	-2.187724	1.27252
C	-1.520935	0.540176	-2.221976
H	-2.360393	-0.11952	-2.035593
H	-1.295602	0.60244	-3.301467
H	-1.790669	1.528593	-1.855143
N	0.041059	-1.381288	-1.972139
H	0.183593	-1.392025	-2.97746
H	-0.786983	-1.936923	-1.779958
F	-2.295638	0.0	0.0
