17

C	0.0	0.0	0.0
C	-0.428379	-0.000535	-1.504007
Br	1.955303	0.0	0.0
H	-1.441236	0.394893	-1.419595
N	-0.417882	1.2886	0.693309
O	-0.435625	1.266419	1.917583
O	-0.608624	2.267794	-0.008795
C	-0.456275	-1.138281	0.780009
N	-0.592592	-2.151695	1.361767
C	-0.51976	-1.433585	-2.006579
H	-0.80708	-1.417743	-3.062971
H	0.436244	-1.963164	-1.916656
H	-1.288069	-1.963789	-1.444632
N	0.434282	0.848132	-2.311974
H	1.018618	0.300673	-2.930998
H	-0.135536	1.477721	-2.857238
F	-2.415504	0.0	0.0
