17

C	0.0	0.0	0.0
C	-0.386123	-0.197617	-1.569728
Br	1.931093	0.0	0.0
H	0.566463	-0.458653	-2.039836
N	-0.428054	1.248698	0.755942
O	-0.349253	2.316583	0.166874
O	-0.722433	1.10152	1.93238
C	-0.419561	-1.167028	0.766836
N	-0.563003	-2.190543	1.32835
C	-0.912815	1.069091	-2.225155
H	-1.123264	0.809862	-3.265323
H	-0.191193	1.885731	-2.189596
H	-1.833537	1.356798	-1.721418
N	-1.301877	-1.281859	-1.828094
H	-0.901907	-2.154872	-1.497927
H	-2.100084	-1.041155	-1.213733
F	-2.447818	0.0	0.0
