17

C	0.0	0.0	0.0
C	-0.41889	0.259257	-1.508291
Br	1.95894	0.0	0.0
H	-1.431664	0.629524	-1.369153
N	-0.409557	1.154046	0.895797
O	-0.458524	2.261889	0.374639
O	-0.550511	0.920508	2.085642
C	-0.452866	-1.251258	0.581751
N	-0.567945	-2.334552	1.028344
C	-0.486669	-1.071113	-2.233479
H	-0.742263	-0.875115	-3.27705
H	-1.265883	-1.682687	-1.778831
H	0.467046	-1.61225	-2.207823
N	0.363598	1.212708	-2.265038
H	1.320827	0.90085	-2.37345
H	0.372957	2.092456	-1.764879
F	-2.37265	0.0	0.0
