17

C	0.0	0.0	0.0
C	-0.386575	-0.35929	-1.532563
Br	1.941673	0.0	0.0
H	0.568217	-0.624273	-1.996426
N	-0.409385	1.331584	0.613978
O	-0.698001	1.321755	1.801105
O	-0.306901	2.32776	-0.087666
C	-0.41952	-1.068504	0.899003
N	-0.553138	-2.015813	1.583605
C	-0.981185	0.811276	-2.302559
H	-1.908034	1.091478	-1.81007
H	-0.304198	1.661645	-2.366389
H	-1.193231	0.438371	-3.307421
N	-1.266981	-1.495098	-1.660875
H	-2.06943	-1.201633	-1.077576
H	-0.846323	-2.311182	-1.233499
F	-2.443721	0.0	0.0
