16

C	0.0	0.0	0.0
C	-0.455831	0.110875	-1.474842
Cl	1.787467	0.0	0.0
H	0.412973	-0.086679	-2.112118
H	-0.266045	-0.998391	0.341971
N	-0.524318	1.064043	0.803546
H	-1.553538	0.845491	0.681496
H	-0.279234	0.855403	1.76733
C	-1.084402	1.431813	-1.85578
H	-2.047511	1.482513	-1.350288
H	-1.214156	1.493944	-2.936774
H	-0.433055	2.238422	-1.512566
N	-1.352343	-1.047742	-1.847915
O	-1.101731	-2.14279	-1.352826
O	-2.155743	-0.869151	-2.755416
F	-2.706426	0.0	0.0
