16

C	0.0	0.0	0.0
C	-0.230814	-0.020926	-1.544423
Cl	1.78376	0.0	0.0
H	0.425325	0.749033	-1.950749
H	-0.302778	-0.956065	0.431311
N	-0.631641	1.156219	0.537636
H	-0.451545	1.173838	1.537334
H	-1.658321	0.863671	0.410061
C	-1.602179	0.127919	-2.174329
H	-1.462779	0.062955	-3.260712
H	-2.305876	-0.595355	-1.778255
H	-2.010679	1.100287	-1.912763
N	0.341603	-1.297419	-2.094483
O	0.043609	-2.353848	-1.540548
O	1.031868	-1.217916	-3.112403
F	-2.909107	0.0	0.0
