11

C	0.0	0.0	0.0
C	-0.539932	0.514789	-1.333212
Cl	1.781541	0.0	0.0
H	-0.212166	-0.13934	-2.144614
H	-0.35027	0.635893	0.813128
H	-1.639941	0.473372	-1.241677
C	-0.425688	-1.380991	0.240651
N	-0.617157	-2.525626	0.417296
C	-0.101636	1.877915	-1.604899
N	0.245604	2.97459	-1.840548
Cl	-3.431387	0.0	0.0
