11

C	0.0	0.0	0.0
C	-0.526694	0.432031	-1.367316
Cl	1.781721	0.0	0.0
H	-0.21853	1.465007	-1.551992
H	-0.359366	0.702041	0.75201
H	-1.626534	0.390183	-1.286245
C	-0.417524	-1.357064	0.361951
N	-0.609681	-2.477841	0.655251
C	-0.047398	-0.412424	-2.453622
N	0.334975	-1.072444	-3.346148
Cl	-3.403883	0.0	0.0
