11

C	0.0	0.0	0.0
C	-0.536709	0.021549	-1.431435
Cl	1.781573	0.0	0.0
H	-0.211982	-0.877568	-1.960965
H	-0.349912	0.876813	0.545553
H	-1.637263	0.019073	-1.336171
C	-0.416957	-1.216437	0.701886
N	-0.597618	-2.222935	1.277978
C	-0.087573	1.20143	-2.16031
N	0.271221	2.143084	-2.762147
Cl	-3.423479	0.0	0.0
