11

C	0.0	0.0	0.0
C	-0.252484	0.085723	-1.537326
Cl	1.784026	0.0	0.0
H	0.141406	-0.844283	-1.959907
H	-0.387498	0.863064	0.533191
H	0.412854	0.877255	-1.892301
C	-0.437895	-1.249364	0.6158
N	-0.55232	-2.306037	1.118109
C	-1.534615	0.356009	-2.195276
N	-2.224681	0.635659	-3.108567
Cl	-3.045255	0.0	0.0
