11

C	0.0	0.0	0.0
C	-0.356875	-0.205094	-1.533838
Cl	1.785864	0.0	0.0
H	0.543874	0.004846	-2.107463
H	-0.390752	0.923352	0.408364
H	-0.642585	-1.250027	-1.689708
C	-0.370027	-1.176545	0.795345
N	-0.477794	-2.236733	1.296023
C	-1.405093	0.620899	-2.162022
N	-2.187077	1.181	-2.833253
Cl	-2.948343	0.0	0.0
