11

C	0.0	0.0	0.0
C	-0.530052	-0.233325	-1.413543
Cl	1.779243	0.0	0.0
H	-1.629925	-0.240841	-1.321766
H	-0.370662	0.959878	0.359566
H	-0.230754	0.607751	-2.044687
C	-0.407671	-1.058301	0.930285
N	-0.584235	-1.943969	1.680285
C	-0.039543	-1.470748	-2.004861
N	0.357358	-2.460254	-2.496047
Cl	-3.403172	0.0	0.0
