17

C	-0.459245	-0.005793	-1.450542
C	0.0	0.0	0.0
F	-0.108239	-1.280889	-1.936306
H	1.099364	0.0	0.0
C	-1.925872	0.070785	-1.608665
N	-3.084033	0.105043	-1.799855
C	0.299181	1.006275	-2.283195
H	0.157349	0.781027	-3.342399
H	1.348338	0.905749	-1.991855
H	-0.053945	2.012972	-2.071731
N	-0.581247	-1.12451	0.733991
H	-0.40258	-1.943702	0.164622
H	-0.00599	-1.233797	1.563021
N	-0.441826	1.227412	0.707468
O	-0.188014	1.268162	1.909354
O	-1.002543	2.138361	0.086931
F	2.582239	0.0	0.0
