17

C	-0.607014	-0.031164	-1.403969
C	0.0	0.0	0.0
F	-0.070378	0.943684	-2.233474
H	1.091896	0.0	0.0
C	-0.260792	-1.333761	-2.009895
N	-0.020711	-2.345412	-2.554025
C	-2.118717	0.140707	-1.410408
H	-2.58546	-0.620898	-0.783258
H	-2.500648	0.048875	-2.429013
H	-2.361883	1.136191	-1.034408
N	-0.404953	-1.189081	0.704219
H	0.412491	-1.519909	1.203288
H	-1.1227	-0.972523	1.383891
N	-0.451766	1.24007	0.69676
O	-0.926911	1.143092	1.835168
O	-0.316772	2.310124	0.105341
F	2.517366	0.0	0.0
