17

C	-0.326458	-0.069502	-1.496527
C	0.0	0.0	0.0
F	-1.660121	-0.495394	-1.692162
H	1.090622	0.0	0.0
C	-0.212889	1.220184	-2.198025
N	-0.13142	2.194115	-2.849735
C	0.630964	-1.070523	-2.119757
H	0.568171	-1.054576	-3.208903
H	0.366556	-2.067247	-1.759667
H	1.631841	-0.813516	-1.751846
N	-0.427423	-1.151456	0.723933
H	-1.259336	-1.585591	0.349481
H	0.344081	-1.797976	0.796956
N	-0.606039	1.235275	0.586637
O	-1.662323	1.13612	1.212847
O	-0.015917	2.296755	0.375177
F	2.599682	0.0	0.0
