17

C	-0.528434	0.000785	-1.430936
C	0.0	0.0	0.0
F	-1.934552	-0.024646	-1.446566
H	1.09127	0.0	0.0
C	-0.125373	1.211166	-2.167964
N	0.201253	2.129738	-2.822446
C	-0.035173	-1.222541	-2.174746
H	1.05699	-1.19841	-2.210308
H	-0.451549	-1.228074	-3.186599
H	-0.359284	-2.107833	-1.630438
N	-0.553286	-1.102769	0.698993
H	-1.547774	-0.966867	0.856815
H	-0.085049	-1.218456	1.589968
N	-0.437409	1.344914	0.592498
O	0.33863	2.286583	0.454789
O	-1.42317	1.336927	1.36056
F	2.531013	0.0	0.0
