17

C	-0.311206	-0.021828	-1.511955
C	0.0	0.0	0.0
F	0.098846	-1.285135	-1.951834
H	1.093407	0.0	0.0
C	-1.760514	0.036979	-1.799919
N	-2.913576	0.062456	-2.026549
C	0.499787	1.01541	-2.256904
H	0.127401	2.02065	-2.060061
H	1.517508	0.917547	-1.863825
H	0.455837	0.811248	-3.329165
N	-0.487245	-1.116937	0.740404
H	-1.401093	-1.438841	0.442299
H	0.196718	-1.857821	0.650001
N	-0.590036	1.257199	0.55111
O	-1.701492	1.185525	1.082017
O	0.044679	2.304838	0.408642
F	2.587037	0.0	0.0
