15

C	-0.420046	-0.164262	-1.448339
C	0.0	0.0	0.0
F	-1.797401	-0.442628	-1.5464
H	1.088733	0.0	0.0
H	-0.383983	0.919068	0.436715
C	-0.232921	1.154634	-2.091636
N	-0.116844	2.204791	-2.604269
C	0.361914	-1.213378	-2.21116
H	0.128648	-1.152874	-3.276302
H	1.426315	-1.031316	-2.032694
H	0.104021	-2.195188	-1.823711
N	-0.44636	-1.086124	0.864063
O	-0.357696	-2.249479	0.456467
O	-0.808866	-0.782617	2.007571
H	2.641359	0.0	0.0
