15

C	-0.518627	0.024779	-1.42708
C	0.0	0.0	0.0
F	0.162154	0.949829	-2.204473
H	1.089447	0.0	0.0
H	-0.308265	-0.912384	0.510283
C	-0.250275	-1.312016	-2.008207
N	-0.082644	-2.381166	-2.463345
C	-2.007121	0.322286	-1.564198
H	-2.291832	0.284679	-2.618
H	-2.594208	-0.410938	-1.007275
H	-2.196662	1.321174	-1.175208
N	-0.442028	1.112362	0.805523
O	-0.556001	0.919051	2.026943
O	-0.546084	2.228814	0.268869
H	2.55502	0.0	0.0
