15

C	-0.446939	0.011035	-1.433906
C	0.0	0.0	0.0
F	-1.850023	-0.086685	-1.524019
H	1.088523	0.0	0.0
H	-0.332673	-0.918042	0.483293
C	-0.070516	1.222905	-2.185875
N	0.227382	2.116186	-2.886134
C	0.171139	-1.196528	-2.117665
H	-0.092951	-1.207909	-3.176892
H	-0.207211	-2.104745	-1.642677
H	1.257029	-1.14617	-1.986139
N	-0.493009	1.103478	0.811922
O	-0.634718	2.21053	0.285005
O	-0.650926	0.881717	2.018499
H	2.633991	0.0	0.0
