15

C	-0.45171	0.088293	-1.439553
C	0.0	0.0	0.0
F	0.064064	-0.959344	-2.189511
H	1.088558	0.0	0.0
H	-0.304612	0.887365	0.556083
C	-1.924387	0.047026	-1.581456
N	-3.091919	0.119996	-1.690336
C	0.110287	1.376632	-2.022779
H	-0.337095	2.251668	-1.546591
H	-0.091028	1.40665	-3.095776
H	1.18884	1.367725	-1.837876
N	-0.50838	-1.15407	0.733061
O	-0.930886	-2.127713	0.099306
O	-0.413714	-1.108573	1.963118
H	2.659244	0.0	0.0
