18

C	-0.583132	-0.000682	-1.415934
C	0.0	0.0	0.0
F	0.161528	-0.861488	-2.172984
H	1.086734	0.0	0.0
C	-2.033049	-0.378195	-1.547335
H	-2.155722	-1.40514	-1.200272
H	-2.308999	-0.32646	-2.598679
H	-2.663063	0.288578	-0.963839
N	-0.317515	1.36896	-2.047819
O	0.547834	2.068517	-1.538492
O	-0.940346	1.61313	-3.078491
N	-0.463685	-1.257535	0.674709
O	-1.337817	-1.16902	1.535772
O	0.042951	-2.291818	0.258885
N	-0.487589	1.131111	0.837167
O	-1.434359	1.802888	0.425567
O	0.093641	1.283917	1.903547
Br	3.330076	0.0	0.0
