18

C	-0.515441	0.059185	-1.435022
C	0.0	0.0	0.0
F	-1.819014	0.467582	-1.466821
H	1.086321	0.0	0.0
C	0.342689	0.924834	-2.326896
H	0.003242	0.801238	-3.357796
H	0.232388	1.966239	-2.026561
H	1.392691	0.638036	-2.216397
N	-0.47436	-1.344166	-2.031037
O	-1.354123	-1.624229	-2.833895
O	0.489365	-2.030944	-1.719824
N	-0.52597	-1.152706	0.786996
O	-1.502951	-1.75773	0.348042
O	0.051044	-1.370436	1.8454
N	-0.468852	1.237357	0.712794
O	-1.338513	1.12337	1.567569
O	0.057957	2.282022	0.353078
Br	3.333473	0.0	0.0
