12
Coordinates from ORCA-job run
  C   -1.02299070095106     -0.02386318929361      0.05672980039245
  C   0.46467417953029      0.00310421125260     -0.29627205398544
  F   -1.15301377730010     -0.41621481249235      1.36576467824945
  H   0.58850840930960      0.28513659871391     -1.34670596626795
  H   -1.52271053192145     -0.75979211467579     -0.57725037793438
  C   -1.61189286734630      1.30470696761990     -0.13953154502301
  N   -2.07878251896903      2.36592149793870     -0.32358165186708
  N   0.98644766015343     -1.42686137564539     -0.19950874180882
  O   0.34736545063849     -2.24366525752981     -0.85064117744733
  O   1.98202879023226     -1.63109775515880      0.47708774106556
  C   1.21980786793597      0.89184556412194      0.57431706209313
  N   1.80055803868789      1.64877966514869      1.25859223253342
