12
Coordinates from ORCA-job run
  C   -1.02435315910297     -0.02890039848306      0.02297285353341
  C   0.47374401784478      0.01853592711778     -0.28001588150376
  F   -1.19564603715892     -0.48426449115238      1.30684620219803
  H   0.62948680403279      0.35118137804803     -1.31123111344926
  H   -1.50046601764027     -0.73482933838423     -0.66130747931563
  C   -1.61157710246081      1.30628116276717     -0.12839816362319
  N   -2.07629023879516      2.37354711486154     -0.27990406266510
  N   0.99838791437308     -1.41278246953692     -0.23554406393419
  O   0.38421121024695     -2.19908611676371     -0.94534389470505
  O   1.97269999848637     -1.64662392239413      0.46216230032723
  C   1.19737997368946      0.86656315305563      0.65537865700124
  N   1.75142263648469      1.59137800086430      1.39438464613628
