12
Coordinates from ORCA-job run
  C   -1.02443110662342     -0.01263507300916      0.01434394912329
  C   0.47668206948782      0.00832135660554     -0.27697338585436
  F   -1.21213611656129     -0.45190733487190      1.30126602332978
  H   0.64700979065160      0.32779796763265     -1.31003476388711
  H   -1.50601945142972     -0.71802627404743     -0.66661883266302
  C   -1.58964689131120      1.32985877262059     -0.15523364076290
  N   -2.03683259246376      2.40268781370994     -0.31980788540372
  N   0.97798844006276     -1.43068128529062     -0.21247646059678
  O   0.35715095980691     -2.21490643180494     -0.91871605558103
  O   1.94246478182219     -1.67225837262875      0.49617821107814
  C   1.20535213433897      0.85460255271448      0.65630359860618
  N   1.76441798221915      1.57914630836960      1.39176924261152
