12
Coordinates from ORCA-job run
  C   -1.02232731445959      0.00005006349402      0.07690173932305
  C   0.45870607953967     -0.01812394009368     -0.30380030418164
  F   -1.13617766430413     -0.33789868200242      1.40270627907873
  H   0.56674095980607      0.21976963230284     -1.36676429650007
  H   -1.54790433149575     -0.75006258209018     -0.51844903931476
  C   -1.58808617927806      1.33173860919370     -0.16135299373104
  N   -2.03579137510149      2.39444749881985     -0.38089579837126
  N   0.95274122034959     -1.45376679585536     -0.15976952942341
  O   0.28591821160320     -2.28168777493850     -0.76755748006903
  O   1.95526749276951     -1.65262085997002      0.50822374188048
  C   1.24916154174642      0.88806595663956      0.51571326020229
  N   1.86075135882456      1.65908887450018      1.15604442110667
