12
Coordinates from ORCA-job run
  C   -0.98683700737048      0.05173405384388      0.26718692190730
  C   0.39221116545968     -0.06069850057180     -0.38414230370381
  F   -0.85227569089309     -0.17578308109457      1.61427099356658
  H   0.30189658753039      0.08882796533629     -1.46469063171290
  H   -1.63802079929493     -0.71906298292063     -0.15139136837190
  C   -1.55224458931268      1.38345206974958      0.02781696836850
  N   -2.01208116501783      2.44153335464892     -0.18933809020925
  N   0.86379798866575     -1.50146296745672     -0.21474300733008
  O   0.06956280728308     -2.34328430866882     -0.61469146681704
  O   1.96902310538719     -1.69240759356620      0.26761084301577
  C   1.34998191126831      0.87022753369494      0.19369255066659
  N   2.09398568629463      1.65692445700512      0.64741859062025
