12
Coordinates from ORCA-job run
  C   -0.94615251316813      0.21430525252670     -0.57580467762916
  C   0.55092441742892     -0.06496340874946     -0.44588791133532
  F   -1.53959655705784     -0.92094818064321     -1.07339368269554
  H   0.94595387407871     -0.33033058579213     -1.42947651745439
  H   -1.07220119966827      1.01436840564348     -1.31320316971926
  C   -1.58409401106692      0.63445075317471      0.67642878822465
  N   -2.12374005137895      1.06933450243516      1.62360866434403
  N   0.81913965239412     -1.28404961531361      0.42359509893331
  O   1.83969921066408     -1.89917556638441      0.14619668641308
  O   0.01962289316113     -1.52393561819285      1.31631557113554
  C   1.26901060288435      1.07567996316690      0.10532158710889
  N   1.82243368172882      2.01326409812872      0.54629956267417
