12
Coordinates from ORCA-job run
  C   -0.76072321732221      0.74631519468827      0.00597593061158
  C   0.45091149725461     -0.09286632619214     -0.42924415156368
  F   -0.96769328704490      1.70472776314745     -0.95507131604504
  H   0.23712627702716     -0.61023444260370     -1.36604735710121
  H   -0.54829600999858      1.23590174092608      0.95848638178286
  C   -1.94608618657193     -0.11072722045243      0.12671227638572
  N   -2.88003682127661     -0.81555532056963      0.22232124372574
  N   0.68000581774595     -1.15627947298456      0.62108158069349
  O   0.86811016576349     -0.74249485201165      1.75988113314914
  O   0.63669987835980     -2.32018645279133      0.24529273022078
  C   1.63926510796938      0.74151594023490     -0.54551739840689
  N   2.59271677809382      1.41988344860874     -0.64287105345248
