12
Coordinates from ORCA-job run
  C   -0.81680461679076      0.67655919376666      0.08313233365578
  C   0.51863459523983      0.05545741046736     -0.35577019501169
  F   -0.96442782943753      1.86183452733021     -0.59409414215216
  H   0.49685430840416     -0.17459959055450     -1.42226155257797
  H   -0.79586347347552      0.87868409959851      1.15597880935734
  C   -1.92434502233438     -0.23013061588614     -0.24184252346287
  N   -2.80004759395374     -0.96717984377244     -0.50318689698805
  N   0.68303827702500     -1.25664963976023      0.37672470574695
  O   0.80626401964281     -2.26076350183622     -0.31214751268161
  O   0.65526345245989     -1.18603930114477      1.60058907031138
  C   1.62786108898322      0.94047623219493     -0.02698078701203
  N   2.51457279423702      1.66235102959662      0.23985869081494
