12
Coordinates from ORCA-job run
  C   -0.95727773711358      0.25059761711972     -0.51800109812567
  C   0.52280082495238     -0.15059796002241     -0.49987665731560
  F   -1.68861209211487     -0.86518369736120     -0.84676388144922
  H   0.78167666565861     -0.56931082182795     -1.47455448410207
  H   -1.09889226439244      1.00301882426044     -1.30024871471851
  C   -1.42113903586777      0.79515587546138      0.76290909670939
  N   -1.83222913257672      1.26379153702005      1.75754053365446
  N   0.72167981384482     -1.27258824859853      0.49897297578657
  O   0.69565629233006     -0.95848085938051      1.68205403472783
  O   0.86092396428828     -2.39159510168928      0.02195389065980
  C   1.37121701038165      0.98176135569619     -0.16131316456212
  N   2.04419569060960      1.91443147932209      0.07632746873516
