12
Coordinates from ORCA-job run
  C   -1.01193220093717      0.04523035061781      0.15747380889816
  C   0.43175566885609     -0.03975851654045     -0.33973345033265
  F   -1.03387064608126     -0.28236833771736      1.49030945147479
  H   0.46606995668241      0.18872342626194     -1.40969664213176
  H   -1.61638591819969     -0.68258739828183     -0.38856958983377
  C   -1.53523867004640      1.40014534883935     -0.04479381209667
  N   -1.95316412108759      2.48043249380264     -0.23541961314437
  N   0.87369567617243     -1.49488579787956     -0.22452863875737
  O   0.12470096393870     -2.29596857072397     -0.76919129171786
  O   1.91807074369269     -1.73391863534357      0.36102194570268
  C   1.32271432081699      0.83446034885671      0.40860762983195
  N   2.01258422619280      1.58149528810829      0.99552020210688
