12
Coordinates from ORCA-job run
  C   -0.79612898694571      0.70239330584516      0.08610985374360
  C   0.43004412616142     -0.04501067199691     -0.46100219718404
  F   -1.11265933550357      1.69070484945109     -0.81298677489160
  H   0.19121556989339     -0.51827275463680     -1.41486306907801
  H   -0.55253094039828      1.15891615065480      1.04755720322752
  C   -1.92494199076173     -0.22377087424861      0.23639491062109
  N   -2.81597038312804     -0.97823858131645      0.35882900626743
  N   0.77172865159558     -1.15272807305114      0.50926881155264
  O   0.78667631485933     -2.29189306584974      0.06244076648524
  O   0.98431583472130     -0.79725975952024      1.66345539767653
  C   1.56559155478920      0.85857898468785     -0.58804903350879
  N   2.47265958471709      1.59758048998098     -0.68715487491160
