12
Coordinates from ORCA-job run
  C   -1.02471374220487      0.00955261561397     -0.02360429962805
  C   0.48628550914508     -0.00606922034798     -0.25850154095004
  F   -1.27116596798174     -0.41018466073442      1.25995594644201
  H   0.70104467321351      0.29725696867522     -1.28814526483501
  H   -1.49631703897703     -0.69261467327304     -0.71490658023612
  C   -1.55213726485232      1.36238076599429     -0.22940126933261
  N   -1.96798168554525      2.44298435243950     -0.42267446409403
  N   0.95328735026364     -1.45449166950064     -0.15986503609539
  O   0.34086739479826     -2.23382281790087     -0.87888319072330
  O   1.88642842951097     -1.70806467329275      0.58553355382841
  C   1.19878057724299      0.83548005809541      0.69128047144441
  N   1.74562176538675      1.55659295423130      1.43921167417972
