12
Coordinates from ORCA-job run
  C   -0.78634803187017      0.70911199383188      0.10846107778317
  C   0.45523037243209     -0.01624376616043     -0.43347633791990
  F   -1.02011401738103      1.79358797304999     -0.70034828083708
  H   0.26340074677679     -0.40321877179688     -1.43567720039620
  H   -0.59557195273623      1.05694026074723      1.12565737548317
  C   -1.94348539688003     -0.19328126765440      0.08656446627082
  N   -2.85729974960790     -0.93005077042473      0.06300962319311
  N   0.72027933374361     -1.20944745179312      0.45702521853662
  O   0.88877765880413     -0.95618319162206      1.64487973528464
  O   0.72296254598824     -2.30861325205533     -0.08122384931755
  C   1.61280529349991      0.86812967261330     -0.42150709489013
  N   2.53936319723061      1.58926857126454     -0.41436473319068
