12
Coordinates from ORCA-job run
  C   -0.74220002221863      0.74704380843485      0.15467767002479
  C   0.42339810951819     -0.04130868098267     -0.46255715158903
  F   -0.97967293601313      1.83410221942377     -0.64990171893149
  H   0.14465760399758     -0.42505732489380     -1.44529506125461
  H   -0.46609146459809      1.09488756422672      1.15234899372036
  C   -1.93953090965349     -0.09943317390939      0.22395101854455
  N   -2.88545444038578     -0.79290696694509      0.27477309999009
  N   0.69208349292654     -1.24019045951635      0.41928931224804
  O   0.60471200620371     -2.34172625209260     -0.10688353288594
  O   0.95545569591268     -0.98747689877095      1.58980269943282
  C   1.61924316780684      0.78666239921599     -0.53947762522215
  N   2.57339969650358      1.46740376580953     -0.60972770407744
