12
Coordinates from ORCA-job run
  C   -1.01378317108570      0.18159075672291     -0.42814975038246
  C   0.48483660005360     -0.12217483386380     -0.54563125613991
  F   -1.69790692022918     -0.98231204793435     -0.68380473737271
  H   0.68008364528211     -0.53309299238754     -1.53818357923770
  H   -1.27570731908881      0.91575397353250     -1.19667893120639
  C   -1.39339254526425      0.70767151153367      0.88785318629306
  N   -1.74779519470424      1.15924481781714      1.91180074284818
  N   0.84869063147351     -1.21852094146998      0.43490785318137
  O   0.90720327138235     -0.89568894190664      1.61453308192860
  O   1.02152569102457     -2.32987269487418     -0.04907396325492
  C   1.28216467081295      1.06770817137499     -0.29055998727402
  N   1.90408064034309      2.04869322145530     -0.11701265938310
