12
Coordinates from ORCA-job run
  C   -0.76076199791539      0.74359750272073      0.03570885630286
  C   0.42393145465084     -0.10307710794998     -0.45559017524933
  F   -1.03186135232990      1.67815631602225     -0.93294565273558
  H   0.15370648821067     -0.64241971777012     -1.36500463464165
  H   -0.48988673042648      1.25656999198132      0.96073146884887
  C   -1.93367431625495     -0.11147059021378      0.25312831865843
  N   -2.86055604376552     -0.81089104202954      0.42625948421507
  N   0.72215338786771     -1.14151876588613      0.60231538944050
  O   0.97544421792032     -0.70153813518507      1.71846340350193
  O   0.66409454920037     -2.31376071648196      0.25550347699514
  C   1.59908734348092      0.73190747195707     -0.66450272789691
  N   2.53932299936138      1.41444479283522     -0.83406720743933
