12
Coordinates from ORCA-job run
  C   -0.83112015257672      0.65568414456327      0.09994195457369
  C   0.47572417426647      0.03515605496505     -0.41830644089588
  F   -1.10345815420910      1.75526786371141     -0.67566272225272
  H   0.35216404473321     -0.30439771676368     -1.44801703591712
  H   -0.70271111362512      0.97315452861664      1.13683602727540
  C   -1.92641771639138     -0.31611336103134      0.00025206527057
  N   -2.79044167533454     -1.10749447863648     -0.07292473691458
  N   0.77103018999810     -1.18855437655007      0.41942957760195
  O   0.88777510872975     -0.98946975697601      1.62376436570063
  O   0.84247949700324     -2.25716120779965     -0.17308696202700
  C   1.57416558048673      0.98443759095210     -0.29950445642063
  N   2.45081021691936      1.75849071494875     -0.19272163599431
