12
Coordinates from ORCA-job run
  C   -1.02458502539396      0.01078702058608      0.00222932312508
  C   0.48006554997903     -0.01941943076250     -0.27055637607693
  F   -1.23760972142430     -0.34335191821791      1.31105645186243
  H   0.66832416880494      0.23097830441577     -1.31938344352007
  H   -1.51384131017912     -0.72460084484288     -0.64047666266163
  C   -1.55691783669469      1.35223509012493     -0.25819965139406
  N   -1.97698705000207      2.42236307443945     -0.49572709419033
  N   0.94736293134114     -1.46210254915988     -0.11022214180072
  O   1.89681395149311     -1.68056936491860      0.62555469409576
  O   0.31790870173725     -2.27465941222023     -0.77570220275906
  C   1.21685512842315      0.86721908019190      0.61769622776860
  N   1.78361051191552      1.62312095036386      1.31473087555092
