12
Coordinates from ORCA-job run
  C   -1.00799723022326      0.04983921466427      0.17852405005189
  C   0.42440129866851     -0.05446739216401     -0.34704242417652
  F   -0.99863344128429     -0.21426630251478      1.52547650681884
  H   0.43317045617243      0.12425477153308     -1.42700005267138
  H   -1.62172641052481     -0.70473394352946     -0.31870531896368
  C   -1.54102956197806      1.39224269701928     -0.07555477924948
  N   -1.96747064078336      2.46112073721263     -0.30720141455675
  N   0.87421733460832     -1.50147061827165     -0.17457057982672
  O   1.93277987556708     -1.71058292412999      0.39672457204037
  O   0.11569080293494     -2.32863201977633     -0.66426735362410
  C   1.32856636074482      0.85626341767203      0.33933874869629
  N   2.02803115609767      1.63143236228492      0.87627804546124
