12
Coordinates from ORCA-job run
  C   -0.85383276494003      0.60729109063071     -0.18909641330480
  C   0.46567128923801     -0.15331411255701     -0.39426828128601
  F   -1.17391532991220      1.21078381554227     -1.38017123923248
  H   0.33581156248155     -0.94534124834209     -1.13369437824636
  H   -0.72257570517835      1.37512878616672      0.57589240278780
  C   -1.91579503062011     -0.32748643089246      0.20158825927845
  N   -2.75348959425593     -1.08967958921428      0.51044725849342
  N   0.82218265524252     -0.82314132053363      0.91356237374900
  O   0.93947603237106     -2.04126289072867      0.89468365080876
  O   0.93866184590083     -0.07343806521801      1.87685913277136
  C   1.53190620261408      0.76082237623295     -0.78060247713917
  N   2.38789883705855      1.49963758891350     -1.09720028867999
