12
Coordinates from ORCA-job run
  C   -1.02450758679557      0.01118157550247     -0.02905642947416
  C   0.48772486028822     -0.01435499760043     -0.25570754888965
  F   -1.27792348866228     -0.36970968865751      1.26519661182202
  H   0.70834226236962      0.25866127031562     -1.29256338680327
  H   -1.49391776729384     -0.71060993601960     -0.70137383700960
  C   -1.54837688917951      1.35825339757425     -0.27750109236710
  N   -1.96136289326632      2.43338806724465     -0.50450940344955
  N   0.95071858388620     -1.46020037249921     -0.11276087394970
  O   1.87960339813487     -1.69421199124342      0.64426999647792
  O   0.34050076189649     -2.25850567773032     -0.81251176679487
  C   1.19684557402708      0.85295600037920      0.67325028961742
  N   1.74235318459504      1.59415235273430      1.40226744082052
