12
Coordinates from ORCA-job run
  C   -0.97822839716131      0.21013969172991     -0.49365748633995
  C   0.51316787160343     -0.14728106887873     -0.51264620976906
  F   -1.68569844226668     -0.93399086899780     -0.77413343653114
  H   0.75491916058997     -0.58119787662098     -1.48502173478686
  H   -1.16665838661060      0.93948418656623     -1.28781869898311
  C   -1.41931742230374      0.77102013615451      0.78829551223191
  N   -1.81978790448753      1.25150615832354      1.78162676840362
  N   0.77444546333664     -1.23982379230375      0.50431396762470
  O   0.93402950650166     -2.36478885136892      0.04784474764949
  O   0.77268718536946     -0.89969710342453      1.68050594124339
  C   1.33590233409375      1.01743675670323     -0.22455803171213
  N   1.98253903133493      1.97719263211730     -0.02475133903086
