12
Coordinates from ORCA-job run
  C   -0.85335942749793      0.62874579215506     -0.08667258998568
  C   0.43564414297637     -0.13148242736029     -0.43683492534237
  F   -1.24451285784953      1.31819536040584     -1.20796888225009
  H   0.24193150816206     -0.86426098438697     -1.22201143062000
  H   -0.65634597249083      1.33938625929695      0.71853557273763
  C   -1.90227507010736     -0.31680824666898      0.31309758859647
  N   -2.73115638485777     -1.08653486310509      0.62731168111157
  N   0.86839917891492     -0.90073485201516      0.79054579558379
  O   0.96793427815209     -2.11491487486827      0.67341013697538
  O   1.05873282426054     -0.22660500969525      1.79702854921009
  C   1.48765705387496      0.79764122483411     -0.82653421513254
  N   2.32635072646250      1.55737262140805     -1.13990728088425
