12
Coordinates from ORCA-job run
  C   -1.01056375680439      0.18609866797708     -0.43322765390552
  C   0.48847473353182     -0.11842389358710     -0.54326434940192
  F   -1.69415847498813     -0.97545164379945     -0.70051132037729
  H   0.69025650204148     -0.52162345442080     -1.53769857804768
  H   -1.26732733117532      0.92543419630572     -1.19849963138413
  C   -1.39749527915307      0.70356365923033      0.88414665924354
  N   -1.75816075117063      1.14810710046887      1.90902412324982
  N   0.84368832745084     -1.22319696136909      0.43115468416842
  O   0.89684983789026     -0.90922095500291      1.61340024551885
  O   1.01455376616003     -2.33160867090021     -0.06008502755303
  C   1.28592215011281      1.06815520227590     -0.27367268191785
  N   1.90796027610430      2.04716675282167     -0.08976646959321
