12
Coordinates from ORCA-job run
  C   -0.99331351840767      0.22454650325546     -0.45510206477571
  C   0.50447457761382     -0.09485570005551     -0.53313776887068
  F   -1.68204077697156     -0.91024010231118     -0.81045924935204
  H   0.73398158434402     -0.44581862958174     -1.54122492947404
  H   -1.21472921872184      1.00939451382710     -1.18534947811381
  C   -1.41841935129645      0.67311355981183      0.87563993768575
  N   -1.80805022560058      1.06465474509843      1.91146458626635
  N   0.81423092332495     -1.25661432252417      0.38937209907567
  O   0.82644458754867     -1.01035901764503      1.58872713842965
  O   0.99384790768370     -2.33733529286484     -0.15732855063438
  C   1.30751645748568      1.06323660667431     -0.17178353248159
  N   1.93605705299726      2.02027713631531      0.08918181224482
