12
Coordinates from ORCA-job run
  C   -0.47639940387810      0.05300395754419     -0.24212805124813
  C   0.74290713155158     -0.72025474680218      0.26034587841873
  F   -0.72522657382353     -0.32556455668303     -1.54226618612886
  H   0.95193934121337     -0.45522491807898      1.30098346071963
  H   0.47840830134936     -1.77974127632665      0.21815620494804
  N   -1.62255109009795     -0.31571981614729      0.53333135593305
  H   -2.44210812330466      0.17870364544740      0.19889963435452
  H   -1.48823722806465     -0.09403653190079      1.51239278839317
  C   -0.20146318911254      1.51351220242086     -0.26574803118498
  N   -0.01925076965487      2.67271407420422     -0.20887927050642
  C   1.92467722169506     -0.46383747719054     -0.55675381121621
  N   2.87830438212694     -0.26255455648720     -1.20933397248255
