12
Coordinates from ORCA-job run
  C   -0.41518984335508      0.20063559068603     -0.31043062378174
  C   1.08747404049259      0.01262349779364     -0.07010233696301
  F   -0.75282200759116     -0.62279619445876     -1.39663711177739
  H   1.61837278195340      0.18352894501668     -1.00890052623409
  H   1.42768462546948      0.74169759873315      0.66836288870227
  N   -1.16096460195327     -0.07912677443804      0.85199750204955
  H   -2.15012790742143      0.08010014010899      0.71015559127042
  H   -1.00560562638504     -1.02955569003767      1.16816509907447
  C   -0.67287896520326      1.58894283761715     -0.74323552906530
  N   -0.85530751350275      2.69392749801569     -1.09364891771610
  C   1.35397000332943     -1.34079130219050      0.40946103296241
  N   1.52639501416710     -2.42818614684634      0.81481293147851
