12
Coordinates from ORCA-job run
  C   -0.46136869115054      0.12264985202799     -0.16916324600227
  C   0.76178579436156     -0.60437155714691      0.39419995034217
  F   -0.73264005954474     -0.44878135591227     -1.42027399690325
  H   0.48290348217476     -1.64890049547034      0.56538932866539
  H   1.02814795941935     -0.15853911952980      1.35472733419097
  N   -1.54351984565976      0.01103314175333      0.73343666617111
  H   -2.35218364621768      0.52703599453236      0.41030698716328
  H   -1.79487678440487     -0.95948568957210      0.87710942450179
  C   -0.16944285287507      1.54942987880776     -0.40901176413505
  N   0.05682259553057      2.68833191224986     -0.57828815342357
  C   1.90031279399326     -0.55784472848921     -0.51827807532062
  N   2.82405925437316     -0.52055783325066     -1.24015445524998
