12
Coordinates from ORCA-job run
  C   -0.48868809430382      0.18364066305807     -0.35791983770176
  C   1.02314040681764     -0.08364610583703     -0.18759247611261
  F   -0.88507610245058     -0.59578429298691     -1.42993826006477
  H   1.52903993908249      0.08076609204438     -1.14230482303210
  H   1.43684273083959      0.61088035987819      0.54843666329844
  N   -1.32530306289464     -0.12482298416956      0.74896075423750
  H   -1.08667083431787     -1.01462374244111      1.16913535458450
  H   -1.35822714008689      0.60889222552921      1.44152310928798
  C   -0.67060107414727      1.60570434734912     -0.71797131391157
  N   -0.76500740969841      2.74558519823457     -0.98010951536516
  C   1.23424054763957     -1.45634287469869      0.26109057394371
  N   1.35531009352022     -2.55824888596025      0.64568977083583
