12
Coordinates from ORCA-job run
  C   -0.39300449652049      0.27077137228931     -0.31396279123662
  C   1.04649062166974     -0.18139793342800     -0.05876942725377
  F   -0.74213909384292     -0.08435945251949     -1.59952065281191
  H   1.68610174518936      0.26848147185420     -0.82221004943752
  H   1.38549479990289      0.18474190057185      0.91503041450945
  N   -1.29634648066373     -0.37939467738750      0.57413512786255
  H   -1.00657386664866     -0.30408125547448      1.54004331686451
  H   -2.23842435847371     -0.02404151343416      0.46979959529862
  C   -0.43980405191470      1.75784324217996     -0.26187564815164
  N   -0.47448840450390      2.92796602619315     -0.16380102501653
  C   1.16777092606050     -1.63589312210985     -0.11624913195963
  N   1.30492265974563     -2.79963605873498     -0.16261972866750
