12
Coordinates from ORCA-job run
  C   -0.47089679305493      0.06157374705477     -0.24967088224455
  C   0.72103545170453     -0.73370497316028      0.28348206007476
  F   -0.70893944346710     -0.32949004822043     -1.54792119293267
  H   0.43116269463664     -1.78695360188982      0.25484573552584
  H   0.92105164003594     -0.45645412484900      1.32269546400335
  N   -1.63771819576217     -0.26788269031869      0.51274903607012
  H   -2.43936482624536      0.24187533036457      0.15864250343603
  H   -1.51300866337785     -0.03568404427528      1.49060321515040
  C   -0.15969021188781      1.51447595068881     -0.28929604970996
  N   0.04945555058015      2.66980959364452     -0.24968665479797
  C   1.92075169090856     -0.52048574040114     -0.51980124623517
  N   2.88616110592940     -0.35707939863804     -1.16564198834020
