12
Coordinates from ORCA-job run
  C   -0.44201424532054      0.21449211397545     -0.22246309782735
  C   0.65337928817543     -0.83919480115719     -0.05836786019185
  F   -0.56280906043597      0.51020609475119     -1.56166165257560
  H   0.32253904260804     -1.72084039155493     -0.61287622920369
  H   0.75641200000181     -1.11054912964768      0.99640898551567
  N   -1.69387165477746     -0.33455999776174      0.20506181688764
  H   -2.43186499498738      0.35065882394613      0.08807442368410
  H   -1.65897741009100     -0.60944224157572      1.17916436965203
  C   -0.06475249663440      1.47747431062047      0.46424563734806
  N   0.20789811918160      2.44554905277794      1.07144456425322
  C   1.93830097267221     -0.37516229436509     -0.57176524558581
  N   2.97576043960769     -0.00663154000878     -0.97626571195643
