12
Coordinates from ORCA-job run
  C   -0.43725011859343      0.20813625540893     -0.14749330670865
  C   0.71316625214412     -0.75318714144908      0.16053237331517
  F   -0.52795782506258      0.29962965217199     -1.54309943075316
  H   0.43409830464207     -1.74371164916658     -0.21244562379752
  H   0.84098014486414     -0.81762479145945      1.24309879515270
  N   -1.62784245682800     -0.26127018639100      0.45251513027745
  H   -1.87669967736300     -1.17557668514037      0.09511678832982
  H   -2.39641546219635      0.38123982490896      0.30755599160947
  C   -0.14229533159726      1.56733698204793      0.34669124762592
  N   0.08619378450790      2.64868991896005      0.74123604894574
  C   1.96197983529886     -0.33971761205407     -0.47221582752640
  N   2.97204255018355     -0.01394456783729     -0.97149218647050
