12
Coordinates from ORCA-job run
  C   -0.38714622730913      0.30838923397452     -0.25377073390175
  C   1.07764054529563     -0.12011196596366     -0.10570423562689
  F   -0.84650206888991     -0.24650031272363     -1.45900233351770
  H   1.61807162987981      0.15069845270663     -1.01505540989874
  H   1.52223764261959      0.40559220641049      0.74205417636358
  N   -1.15189032355056     -0.07993780783714      0.86418762365832
  H   -2.11107886673722      0.23353233528393      0.78998856203005
  H   -1.12549806865300     -1.08432259470163      0.99679658069858
  C   -0.45510976750052      1.77474779659923     -0.41614789815000
  N   -0.48714636667553      2.94005449271045     -0.55048922810487
  C   1.15996118211977     -1.56257209974236      0.10770088585299
  N   1.18646068940103     -2.71956973671683      0.30044201059644
