12
Coordinates from ORCA-job run
  C   -0.35892380627597      0.31648769046165     -0.28332660996136
  C   1.08537216045224     -0.09037972693336      0.03205027399460
  F   -0.63824460578390     -0.16619680182643     -1.57184992249739
  H   1.73255800596622      0.25089416220845     -0.77853071927458
  H   1.39898228947417      0.38753790723283      0.96261818168121
  N   -1.25308298789323     -0.16110893101293      0.69543358498424
  H   -1.21407858671374     -1.17116139816664      0.76821950689002
  H   -2.20296949884483      0.13577089506900      0.51276947518281
  C   -0.44859275071408      1.78868234022957     -0.36016156707221
  N   -0.49832176223390      2.95935058375212     -0.42395763362341
  C   1.18122498094967     -1.54172408810032      0.16362421740472
  N   1.21607656161735     -2.70815263291396      0.28511121229137
