12
Coordinates from ORCA-job run
  C   -0.46724983978379      0.06022135958477     -0.25748267738789
  C   0.72643938871179     -0.72819471011565      0.28157854533972
  F   -0.67037372474306     -0.30175900695343     -1.57013301026099
  H   0.90028339853547     -0.47334918202235      1.33118251903770
  H   0.45493847503799     -1.78498846398994      0.22108537454437
  N   -1.64434393553782     -0.30788936302589      0.47072829028946
  H   -1.54321379999728     -0.10138650040115      1.45704731828556
  H   -2.44628868552427      0.19979866451464      0.11431384640212
  C   -0.18027451963062      1.51869878739590     -0.25583094459912
  N   0.01233816519619      2.67607714072837     -0.19707469902279
  C   1.93938408212204     -0.47565740931909     -0.48993613452605
  N   2.91836099561339     -0.27957131639615     -1.10547842810210
