12
Coordinates from ORCA-job run
  C   -0.46251771933552      0.15363124916763     -0.13939710769999
  C   0.75124611759669     -0.66287335601994      0.31021973961576
  F   -0.79348030786646     -0.28619150589158     -1.42844476620019
  H   0.44137830103577     -1.70936644215382      0.39379177966756
  H   1.06454817787487     -0.31826746548644      1.29791545639418
  N   -1.51882923128039     -0.00842496938300      0.78598150011713
  H   -1.79803158027552     -0.97996102595205      0.84832572437871
  H   -2.31947041067394      0.55979739635419      0.53952778547816
  C   -0.12710372139249      1.58637787782101     -0.25458945784507
  N   0.13997092241842      2.72604139644384     -0.33854629406011
  C   1.86073970147868     -0.56751435255642     -0.63359291174593
  N   2.76054975041990     -0.49324880234341     -1.38219144810021
