12
Coordinates from ORCA-job run
  C   -0.46259003556349      0.11897670764687     -0.24550303431709
  C   0.67491783897938     -0.80322322510989      0.19399196025694
  F   -0.69460760023395     -0.08541480211832     -1.58698024652019
  H   0.32993178010725     -1.82607678692131      0.02384617169624
  H   0.86943606552968     -0.67511614533202      1.26289652304193
  N   -1.66022588524773     -0.24247560146024      0.45128771489961
  H   -1.54300620371138     -0.15294322081420      1.45310474744856
  H   -2.42619319359683      0.35380095129419      0.15902718395150
  C   -0.07392166657738      1.54537449096886     -0.09053535783920
  N   0.19994149332240      2.67265737388515      0.09497806161000
  C   1.89987611123336     -0.55261867849247     -0.55878403662501
  N   2.88844129575871     -0.35194106354659     -1.15732968760331
