12
Coordinates from ORCA-job run
  C   -0.54241431217432      0.09638205282311     -0.29597185756363
  C   0.72159113908269     -0.76298553330264     -0.38258814624056
  F   -1.39601353308109     -0.41759056280538     -1.29110533174935
  H   0.43679911409984     -1.79775756465215     -0.16702970529203
  H   1.09644934803962     -0.73275608184369     -1.40799668561922
  N   -1.10288257252987      0.05291233672320      0.99367930811128
  H   -1.92323990310344      0.63852675432684      1.07813647167990
  H   -1.31341862320444     -0.89461835658957      1.28008112191578
  C   -0.26766925268051      1.49792358754195     -0.66773056320366
  N   -0.06975399524680      2.61695748130371     -0.96091976494199
  C   1.75618971390015     -0.32275653576392      0.54663636188446
  N   2.60636287689817      0.02576242223855      1.27580879101901
