12
Coordinates from ORCA-job run
  C   -0.45669100588628      0.16912705899848     -0.13837199426589
  C   0.74023343148896     -0.69731214377385      0.26019624156604
  F   -0.74982352967068     -0.13335722596006     -1.47528233356251
  H   0.42441946978083     -1.74476516396179      0.22481201991044
  H   1.02407931733665     -0.45904576288020      1.28735753690695
  N   -1.54091820705297     -0.08044940983658      0.73346958006053
  H   -1.82609150831765     -1.05109907920690      0.68684170216032
  H   -2.33131698450512      0.51657852665032      0.52520077564799
  C   -0.11413944506488      1.60417548277177     -0.09364032353876
  N   0.14680388701971      2.74674699232431     -0.03389938729420
  C   1.87828156008051     -0.51088040087280     -0.63474860233705
  N   2.80316301479091     -0.35971887425269     -1.33993521525385
