12
Coordinates from ORCA-job run
  C   -0.46375014666272      0.15841154470557     -0.21856988782119
  C   0.63959733613264     -0.84818389590748      0.10795060264749
  F   -0.75782469859029      0.06066593950408     -1.56001146602525
  H   0.23521162855703     -1.83771678483837     -0.11890854953916
  H   0.88044206278749     -0.80721156852233      1.17430826714093
  N   -1.65085694313699     -0.19125214576457      0.50214135931800
  H   -1.48988945076811     -0.17412706312901      1.50186744311257
  H   -2.39530952959376      0.46108196789246      0.28277293319805
  C   0.00370492755672      1.54949237904201      0.01825114399641
  N   0.33269118945464      2.64490281297991      0.28663684779659
  C   1.84677510564382     -0.60535510181201     -0.67552053982271
  N   2.82020851861951     -0.40970808415023     -1.29991815400169
