12
Coordinates from ORCA-job run
  C   -0.43888647498946      0.20715237511720     -0.14534500748330
  C   0.71682833144049     -0.75035629290001      0.15441103661966
  F   -0.53440591416884      0.30534833852828     -1.54003414037193
  H   0.44013782989148     -1.74079265669554     -0.22064544467840
  H   0.84931023649196     -0.81856183348712      1.23619481107632
  N   -1.62561221538745     -0.27109969863348      0.45579726804682
  H   -2.39660867120962      0.37035342406974      0.31925806783251
  H   -1.87321289567104     -1.18290500307362      0.09116005995707
  C   -0.14842147097275      1.56477586064125      0.35564208753100
  N   0.08087947459319      2.64296017640199      0.75829518952939
  C   1.96141267800825     -0.32939547424045     -0.48167505870305
  N   2.96757909197379      0.00352078427173     -0.98405886935610
