12
Coordinates from ORCA-job run
  C   -0.57946440193575      0.12545709214121     -0.35861521599434
  C   0.60714576158684     -0.82438890611465     -0.54013186603864
  F   -1.46106277258122     -0.13853884683161     -1.38905431917700
  H   0.20472459627223     -1.84002551186947     -0.50680122660303
  H   1.05158870040571     -0.65333019426568     -1.52313783771950
  N   -1.24927561442101     -0.14277682741504      0.87048772362707
  H   -1.98353600465189      0.53411411538650      1.03946974233493
  H   -0.60760532454752     -0.13965389432264      1.65408761721383
  C   -0.14807945216833      1.53757888943746     -0.52945187954476
  N   0.19418947571221      2.65838894958134     -0.61184091042142
  C   1.60261473022898     -0.64021249523039      0.50966801001040
  N   2.36776030609976     -0.47661237049704      1.38432016231248
