12
Coordinates from ORCA-job run
  C   -0.58517038546244      0.01988555735552     -0.36864747038966
  C   0.71007932828979     -0.79035613834077     -0.46056067501832
  F   -1.41613212513760     -0.44370548721751     -1.37056075711357
  H   1.14341688147458     -0.65653804849818     -1.45423505263851
  H   0.43339299981082     -1.84019224008781     -0.33465531124421
  N   -1.23222859784342     -0.21398447142321      0.87954635440829
  H   -0.60653266718395     -0.05674812463501      1.66028924377664
  H   -2.04726085643035      0.37851894263551      0.98233541375686
  C   -0.32764705412362      1.45249373747705     -0.66988731987405
  N   -0.12568621328008      2.59480878061749     -0.85584353819389
  C   1.66218336852713     -0.39106445732717      0.56954196169895
  N   2.39258532135912     -0.05311805055590      1.42367715083146
