12
Coordinates from ORCA-job run
  C   -0.46670607549531      0.21689221749759     -0.36635754394185
  C   0.99630869164750     -0.24609938408443     -0.19239780627789
  F   -0.99934958261576     -0.59558882126497     -1.35137289655219
  H   1.52263368225124      0.44735264226892      0.46896974743161
  H   1.49554037900494     -0.24401061578311     -1.16465843258515
  N   -1.30614061861292      0.13690468086199      0.77776667978278
  H   -1.21786931504430      0.93043326243372      1.39532139687010
  H   -1.18325194715096     -0.73408258401066      1.27911578063222
  C   -0.45795873949727      1.60965644865152     -0.86138918943482
  N   -0.40662610323572      2.72080568886709     -1.23531858444312
  C   1.02469188489258     -1.58771976280269      0.38175976000083
  N   0.99872774385599     -2.65454377263499      0.86956108851746
