12
Coordinates from ORCA-job run
  C   -0.55944454360601      0.02279008415938     -0.40916917880964
  C   0.71804232298085     -0.82042324195166     -0.38672451778497
  F   -1.33058281806178     -0.45190212435478     -1.45278331534809
  H   1.22100540222075     -0.72808377178651     -1.35191402161369
  H   0.40665655680716     -1.85896352632901     -0.24891660820568
  N   -1.29678709332626     -0.15709121722326      0.79714372416040
  H   -2.09994897399327      0.45928844083095      0.82734431343180
  H   -0.72153365977480      0.00684368653114      1.61448075539626
  C   -0.24317696208315      1.43839208813147     -0.73342362132162
  N   0.01382727784521      2.56624116011650     -0.93867736331897
  C   1.60752353126949     -0.41107742885241      0.69409947412186
  N   2.28441895972179     -0.06601414927182      1.58854035929231
