12
Coordinates from ORCA-job run
  C   -0.58065070146017      0.02404001571432     -0.38132083466487
  C   0.72075706026528     -0.77749449522627     -0.46631858215672
  F   -1.38893068263161     -0.42129310714336     -1.40964073955186
  H   1.17260982091180     -0.61860717398628     -1.44797515712095
  H   0.44671784598993     -1.83123717872634     -0.37084144592195
  N   -1.24985068646273     -0.24047696946829      0.84849586326644
  H   -2.06686220981238      0.34905177659750      0.95226949292150
  H   -0.63808170886406     -0.10388657708950      1.64397362024692
  C   -0.32414934596604      1.46478840465462     -0.64320928668383
  N   -0.11533291286702      2.61396248406597     -0.77048650053202
  C   1.65162511975769     -0.39695942476249      0.58990008213835
  N   2.37014840113930     -0.06188775462988      1.45515348805899
