12
Coordinates from ORCA-job run
  C   -0.44347953580638      0.21264838928594     -0.21242822165712
  C   0.65625648681174     -0.83966054567487     -0.07088451091962
  F   -0.58354775255105      0.51796081224120     -1.54775036206822
  H   0.77448594045276     -1.11812994879674      0.98048704627639
  H   0.32019052123424     -1.71847387112024     -0.62663188380591
  N   -1.68811133765275     -0.34280687294120      0.22786330802537
  H   -1.64023346760619     -0.62067620128042      1.20061800213945
  H   -2.42962719470915      0.34068235080915      0.12317914377461
  C   -0.06072023578054      1.47350528770844      0.47526687099310
  N   0.20231505445493      2.45454402801699      1.06560548584543
  C   1.93289711766126     -0.36802682500967     -0.59803435128799
  N   2.96157440349116      0.00843339676147     -1.01729052731552
