12
Coordinates from ORCA-job run
  C   -0.47103894040181      0.11038338139978     -0.23216666577836
  C   0.70451328994427     -0.78808333405505      0.15140833843279
  F   -0.72618331122319     -0.05936068466817     -1.57491280863014
  H   0.38973225684651     -1.81480376443959     -0.05120460046969
  H   0.91551790880033     -0.69468305645773      1.22076794344371
  N   -1.64052233182263     -0.31225933735619      0.47807468147067
  H   -1.50301545720364     -0.24899160954581      1.47943716316412
  H   -2.43124960371265      0.26847198948379      0.22244535897219
  C   -0.12705409856084      1.54355546544778     -0.04071189490448
  N   0.10547022890243      2.67438578211725      0.17670798886718
  C   1.90611539476121     -0.46972297502059     -0.61338732669052
  N   2.87771466367004     -0.20889185690547     -1.21645817787751
