12
Coordinates from ORCA-job run
  C   -0.55211269400847      0.12657036799975     -0.39992638209199
  C   0.61666565344308     -0.85948413893322     -0.47120379242442
  F   -1.37339198738968     -0.15344361422541     -1.47538472619494
  H   0.18493453378181     -1.86262842961755     -0.42701813617983
  H   1.12614560243807     -0.73722434498768     -1.42958335577464
  N   -1.30511002017962     -0.07712661590592      0.79233993726537
  H   -2.02549367470017      0.62749658853629      0.89326584472788
  H   -0.71387742171514     -0.06883748787883      1.61450138957555
  C   -0.07169205637899      1.51988189266154     -0.59278672213584
  N   0.30555432982993      2.62855647774483     -0.68558031182334
  C   1.54889006889699     -0.66117395369515      0.63263633864138
  N   2.25948766598217     -0.48458674169867      1.54973991641484
