12
Coordinates from ORCA-job run
  C   -0.57091182011669      0.04923215174162     -0.38859168287112
  C   0.72715319835527     -0.75583144489644     -0.49111569200584
  F   -1.36174049476725     -0.33446138490493     -1.45427846404876
  H   1.19904067094433     -0.54780643265204     -1.45399134143607
  H   0.44508843886956     -1.81121450537718     -0.45709113102901
  N   -1.26593291746949     -0.27636684503923      0.81221243896953
  H   -2.08384759922348      0.30941412330535      0.92908612684462
  H   -0.67069667634991     -0.18323290705384      1.62624785325689
  C   -0.30094709982402      1.49973588418692     -0.56945813510651
  N   -0.09134187300257      2.65218905416510     -0.65933575963980
  C   1.63834633446825     -0.43884054442160      0.60250027729982
  N   2.33778983811597     -0.16381714905373      1.50381550976623
