12
Coordinates from ORCA-job run
  C   -0.44511179511669      0.14772631249637     -0.26129707946316
  C   0.70430440595700     -0.79626318394405      0.09215620600333
  F   -0.54063471830084      0.22152638947052     -1.63273325113721
  H   0.44288976064996     -1.77370586310708     -0.32068277593537
  H   0.79123165427356     -0.88992735112777      1.17867556935794
  N   -1.67552133848562     -0.40491031679624      0.22019174164222
  H   -2.44827528543157      0.20561314936383     -0.02062472240443
  H   -1.65560807666497     -0.51995232825059      1.22618893567932
  C   -0.16487505175534      1.52495431210838      0.22265810632616
  N   0.01653514523386      2.59960818073984      0.66116080423117
  C   1.97461037095768     -0.33904212718773     -0.46223844997196
  N   2.99845492868296      0.02537282623452     -0.90345508432801
