19
Coordinates from ORCA-job run
  C   0.75491545575824      0.09163428475438     -0.28400473201493
  C   -0.68329499452345      0.01222457780180      0.21822282460905
  F   1.12635778859405     -1.11743322398379     -0.80657452559702
  H   -0.93822478563982      1.01535242802594      0.57450650009419
  N   0.77324609901036      1.08426042313056     -1.44014582062346
  O   1.03845327232412      0.67371898260618     -2.56129554786930
  O   0.49572190065717      2.24049217103731     -1.13162183765995
  C   1.80045568988020      0.53528559773337      0.71127838774979
  H   1.51842499463182      1.48216256824005      1.16946174698872
  H   1.91295565228417     -0.22929527037069      1.47941369441349
  H   2.75924926889373      0.65315822470516      0.20218203703622
  C   -0.78914749580634     -0.97857874914356      1.37666113218296
  H   -0.21353304090955     -0.66117039363291      2.24811109896223
  H   -0.44224760563840     -1.96838940627432      1.07178934100281
  H   -1.83194544319311     -1.06870556587707      1.68840696629813
  C   -1.63345839161603     -0.36750693554976     -0.91719669677501
  H   -2.65264663335266     -0.44723525975692     -0.53327338216390
  H   -1.64057447414360      0.37801582586078     -1.71511156226805
  H   -1.35470725721091     -1.32999027930652     -1.35080962436599
