19
Coordinates from ORCA-job run
  C   0.69510637938617      0.25839056142233     -0.57709228991253
  C   -0.75549833220869     -0.13858035893330     -0.32611717645169
  F   1.03658461958107     -0.13419687210156     -1.85067922479582
  H   -1.29246854858721      0.23341856158705     -1.20659600845606
  N   0.72616277462674      1.78284279145654     -0.60801770323145
  O   1.17897045674442      2.35992649766310      0.37785522706268
  O   0.23087156359010      2.31602271353539     -1.59420894555256
  C   1.73586932708385     -0.26197326794372      0.37784867980464
  H   1.49942919757461     -0.01142131027523      1.40962136957435
  H   1.79606563695361     -1.34489026652782      0.26771682677604
  H   2.70688652592823      0.16806971198894      0.13093980127785
  C   -1.34058125753645      0.52078946691627      0.92034078026635
  H   -2.37175647692664      0.18657351488230      1.05489574415872
  H   -1.35437307505187      1.60970618438515      0.84792446212009
  H   -0.78399236256932      0.24582851501404      1.81971403601738
  C   -0.89109892230399     -1.65862533644813     -0.27269763221541
  H   -0.39740477444080     -2.13370813281215     -1.12230914987096
  H   -0.46980608439854     -2.06372143029878      0.65095459678221
  H   -1.94796664744530     -1.93345154351044     -0.30109339335382
