19
Coordinates from ORCA-job run
  C   0.75236811335526      0.06694813439201     -0.29679412674171
  C   -0.67850320850384      0.03409865384115      0.23168897429901
  F   1.06998020076795     -1.14864994418052     -0.83887829033643
  H   -0.88927459402897      1.04166147803548      0.60405096780855
  N   0.78556063652387      1.07145182454738     -1.44219877162665
  O   1.01620335043502      0.66406126276818     -2.57210011441257
  O   0.55584332744374      2.23342314769236     -1.11672693076082
  C   1.83167162406142      0.46178771889633      0.68295370077997
  H   1.59282475866805      1.41343697020793      1.15561813493203
  H   2.78437188782525      0.55052844380515      0.15676633272789
  H   1.93111438474307     -0.31390333545782      1.44166718012485
  C   -0.79968788249147     -0.96614604839807      1.38030206929037
  H   -1.83765073810468     -1.01501613902143      1.71647267626454
  H   -0.50381598002341     -1.96597459872773      1.05491119391695
  H   -0.18993675905689     -0.68555867461258      2.24106603742437
  C   -1.66236712648448     -0.29626153326743     -0.89046220832448
  H   -1.66241213562020      0.46436439477881     -1.67399704509906
  H   -1.42150447312172     -1.25844209199147     -1.34677761178343
  H   -2.67578538638794     -0.35280966330775     -0.48756216848340
