19
Coordinates from ORCA-job run
  C   0.68333847905788      0.26187633399671     -0.58877225639961
  C   -0.76401776307477     -0.12755332710440     -0.31009282956715
  F   0.99207130644113     -0.11301496757108     -1.87606130880240
  H   -1.31850228685680      0.26329024832190     -1.17133936874960
  N   0.72667057198018      1.78624686176417     -0.59672293956619
  O   0.20943479305796      2.33880083933310     -1.56079967955269
  O   1.21078546748025      2.34449996386195      0.38509413998038
  C   1.74210921966395     -0.28168734827140      0.33293840803902
  H   2.71083149884452      0.14198135484898      0.06671832544725
  H   1.53462875417873     -0.04270463827036      1.37362967792287
  H   1.78851368500268     -1.36353752657635      0.20676700055097
  C   -1.31380265565425      0.51635042133415      0.96034052038787
  H   -0.73984485247172      0.22066438218935      1.84207177492147
  H   -1.31789808565129      1.60643324758147      0.90632040115568
  H   -2.34516638656872      0.19062915476745      1.11296172369638
  C   -0.91176730226866     -1.64692894329271     -0.27819822663786
  H   -0.44402103708998     -2.11168703575972     -1.14798972140223
  H   -0.47092491575995     -2.07148738242272      0.62739593214083
  H   -1.97143849031113     -1.91217163873049     -0.28426157356500
