19
Coordinates from ORCA-job run
  C   0.84664364027128     -0.01152811834175     -0.38530981194500
  C   -0.43060191060071     -0.68191994205061      0.12184093484516
  F   1.38933156050554     -0.81802617495487     -1.35173098555660
  H   -0.09222357381233     -1.69729789766622      0.36644027222314
  N   0.46803366116750      1.28527308168264     -1.09022349229816
  O   0.14646619321702      2.21482028276364     -0.35222792404792
  O   0.46893384533819      1.30157097894962     -2.31364879135943
  C   1.90995523509984      0.28896876966403      0.64057899710110
  H   2.15504539357458     -0.63069663884920      1.17532993596512
  H   2.80621149473214      0.64519555377157      0.12887802497323
  H   1.57630368056474      1.04579896627954      1.34601607151930
  C   -1.47536870973766     -0.78000627776610     -0.98922276866217
  H   -2.28256209576012     -1.44675239322570     -0.67829143954539
  H   -1.04489022969280     -1.16878841742259     -1.91283282976632
  H   -1.91615024448930      0.19832073922527     -1.19997735210042
  C   -1.01171990452603     -0.04951293666700      1.38315531702244
  H   -1.89602630309278     -0.61287318080008      1.69056725490241
  H   -1.31186347944175      0.98412089856095      1.20633677783338
  H   -0.30551825331736     -0.06566729315313      2.21532180889613
