17

C	0.0	0.0	0.0
C	-0.470756	-0.094125	-1.445543
F	1.395035	0.0	0.0
H	-1.55174	-0.265803	-1.437624
N	-0.514694	1.08763	0.685835
H	-0.309541	0.994135	1.673815
H	-1.531952	1.116316	0.541764
N	-0.298588	-1.345222	0.724496
O	-0.930085	-2.225812	0.162691
O	0.136344	-1.385719	1.876243
N	0.26499	-1.079292	-2.157271
H	1.171576	-0.708592	-2.408914
H	-0.238289	-1.355209	-2.987528
N	-0.26531	1.303697	-2.043471
O	0.820529	1.516396	-2.586185
O	-1.179181	2.112934	-1.950941
Br	-3.704545	0.0	0.0
