15

C	-0.441365	0.005968	-1.461503
C	0.0	0.0	0.0
F	-0.086316	1.225129	-2.016347
H	1.095124	0.0	0.0
H	0.068092	-0.780316	-2.017003
C	-1.902828	-0.143695	-1.602758
N	-3.068638	-0.253294	-1.6886
N	-0.403696	-1.305076	0.600433
O	-0.545554	-2.261903	-0.165641
O	-0.529041	-1.364471	1.819812
C	-0.540936	1.160202	0.802391
H	-0.104683	1.14659	1.799265
H	-1.630886	1.124077	0.886924
H	-0.245088	2.086433	0.309386
Cl	3.256648	0.0	0.0
