15

C	-0.527136	0.057774	-1.42065
C	0.0	0.0	0.0
F	0.08752	-0.887674	-2.213938
H	1.090932	0.0	0.0
H	-1.600025	-0.155196	-1.437084
C	-0.306001	1.390365	-2.009065
N	-0.159253	2.456583	-2.477772
N	-0.453195	-1.286463	0.625673
O	-1.287612	-1.976829	0.037771
O	0.020188	-1.552809	1.723212
C	-0.498169	1.142681	0.870877
H	-0.12992	0.991207	1.884844
H	-1.592303	1.20062	0.885647
H	-0.090828	2.084882	0.503204
Cl	3.281117	0.0	0.0
