15

C	-0.526932	0.058335	-1.421417
C	0.0	0.0	0.0
F	0.111846	-0.858102	-2.22753
H	1.090986	0.0	0.0
H	-1.593642	-0.183079	-1.440263
C	-0.345685	1.402049	-1.99705
N	-0.231565	2.470822	-2.467402
N	-0.443286	-1.292679	0.6222
O	-0.025689	-1.523412	1.751811
O	-1.207825	-2.029478	-0.005896
C	-0.500157	1.138975	0.873734
H	-1.594487	1.195879	0.887994
H	-0.094356	2.083068	0.509415
H	-0.133605	0.984676	1.887638
Cl	3.276217	0.0	0.0
