15

C	-0.526179	0.025878	-1.422403
C	0.0	0.0	0.0
F	0.113473	-0.908455	-2.206945
H	1.090919	0.0	0.0
H	-1.592962	-0.216405	-1.436843
C	-0.345681	1.356086	-2.028218
N	-0.240958	2.414425	-2.524067
N	-0.443728	-1.278513	0.651293
O	-0.027899	-1.483514	1.786887
O	-1.206623	-2.029788	0.038184
C	-0.500724	1.158321	0.847876
H	-0.093999	2.093757	0.463069
H	-0.135478	1.026329	1.865184
H	-1.594866	1.215946	0.859624
Cl	3.276099	0.0	0.0
