15

C	-0.533045	0.04241	-1.4171
C	0.0	0.0	0.0
F	0.006005	-0.985255	-2.165803
H	1.090984	0.0	0.0
H	-1.616319	-0.0935	-1.415112
C	-0.213577	1.32534	-2.062492
N	0.00612	2.351563	-2.585781
N	-0.484047	-1.27201	0.633657
O	-1.537241	-1.766015	0.219827
O	0.165844	-1.702162	1.578057
C	-0.505533	1.149064	0.857814
H	-0.103884	2.09053	0.481783
H	-0.135758	1.01259	1.874923
H	-1.599479	1.195791	0.871644
Cl	3.305399	0.0	0.0
