11
Coordinates from ORCA-job run
  C   0.98722182301757     -0.52950437547271     -0.13017897352196
  C   -0.30726833331941     -0.14674400540067      0.06648410033165
  H   1.26766723732213     -1.57524602277495     -0.11194209065954
  C   1.98524144430818      0.44479149017411     -0.37775304472077
  N   2.77705172129549      1.29190324543528     -0.58511841713435
  N   -0.77472442514664      1.13415491279178     -0.15042909712318
  H   -0.05749867731142      1.80696095142997     -0.37927464310440
  H   -1.40815563511787      1.46179788553258      0.56388552199787
  N   -1.29551242136399     -1.01047603318201      0.50671709725046
  H   -2.17039670516853     -0.90646461803244      0.01367976233849
  H   -1.00462602851552     -1.97217343050094      0.58392978434575
