11
Coordinates from ORCA-job run
  C   1.00518416641122     -0.55882688736757     -0.11392871922087
  C   -0.27566968844162     -0.16582567142976      0.15423564502189
  H   1.29452215759536     -1.59825429391387     -0.02623492866982
  C   1.98039973161003      0.40515766673372     -0.46341668374609
  N   2.75764731071018      1.24335941676076     -0.74920401911180
  N   -0.64861169883068      1.15590784318911      0.31642629950358
  H   -1.48807883087550      1.42401052814205     -0.17595020049046
  H   0.10450185295638      1.81455490538144      0.17898342959801
  N   -1.27993812276450     -1.07425099204496      0.39650278545370
  H   -1.25884245235588     -1.93352814631569     -0.12290075329868
  H   -2.19311442601498     -0.71130436913523      0.60648714496054
