11
Coordinates from ORCA-job run
  C   1.03539629733138     -0.50888553404929     -0.07653606661718
  C   -0.26738495403988     -0.17182802100838      0.16101582894586
  H   1.37803914019036     -1.52506596789295      0.07112114118403
  C   1.96017258099374      0.48572274193069     -0.47420995910615
  N   2.69280028674243      1.34842314554986     -0.80186178606580
  N   -0.71255896437554      1.13429182787599      0.25045239456904
  H   0.00553306551856      1.82548125048566      0.08836356207525
  H   -1.55893493684976      1.33103759745216     -0.26304477431061
  N   -1.22408735299804     -1.11942581546592      0.44107840702682
  H   -1.15325715328910     -2.00221019142202     -0.03232009165133
  H   -2.15571800922415     -0.79754103345580      0.63594134395007
