11
Coordinates from ORCA-job run
  C   1.03899257063556      0.40543994457622     -0.17192495999544
  C   -0.25852704591376      0.15754329079192      0.16862017775763
  H   1.52833947318076      1.32291896192763      0.13018851640342
  C   1.77259646121852     -0.55361350308359     -0.91255302544502
  N   2.33897541052115     -1.38574087912713     -1.52438694512995
  N   -1.09625019315319      1.11557327836944      0.71314814721181
  H   -1.66105583934445      0.77151469028806      1.47581371252821
  H   -0.64521754642900      1.99104273270056      0.92688882322428
  N   -0.87758737158246     -1.06665178399196      0.01132117180528
  H   -1.81944408060735     -1.00179629421698     -0.34576059428137
  H   -0.32082183852579     -1.75623043823418     -0.47235502407887
