11
Coordinates from ORCA-job run
  C   0.97125256149001     -0.52861408202579     -0.21988173918676
  C   -0.31004814883702     -0.14679343649593      0.05064018954882
  H   1.22456966981489     -1.57289879727838     -0.35327036540414
  C   1.99115481814568      0.44612477789034     -0.34719967054537
  N   2.80351048633581      1.29311949462820     -0.44893934573368
  N   -1.31379225426171     -1.04030695831048      0.38325418215341
  H   -2.19249650411928     -0.84803160813899     -0.07515448604656
  H   -1.04630981231335     -2.00992967225904      0.32015587196792
  N   -0.74801021134017      1.16237597152245      0.02260297753403
  H   -1.36179891568523      1.40119289473928      0.78746571470906
  H   -0.01703168922963      1.84376141572834     -0.12167332899672
