11
Coordinates from ORCA-job run
  C   1.00317545418359     -0.49323227210844      0.14502658077080
  C   -0.31192456316150     -0.14545086960409      0.04366066423342
  H   1.29332187919175     -1.48735355619125      0.46129692413265
  C   2.01351542310154      0.45521103544113     -0.14855798510597
  N   2.81723729820773      1.27948109277279     -0.39812858022293
  N   -0.75638931537244      1.14835256152693     -0.14349562062115
  H   -1.50909337731481      1.22601346573050     -0.81146200414831
  H   -0.02186254981029      1.82330547892410     -0.29943245904152
  N   -1.34700321809189     -1.06160157684948      0.11974334093265
  H   -1.05757511902585     -1.99924680855709      0.34939397203464
  H   -2.12440191190784     -0.74547855108509      0.68095516703573
