11
Coordinates from ORCA-job run
  C   1.03376934990884     -0.50854452185871      0.08942511768863
  C   -0.29159112746558     -0.20133772915515     -0.03744391686366
  H   1.34791094730835     -1.52640862052647      0.28233921591896
  C   2.01210326482992      0.49987150950992     -0.07866213825465
  N   2.79077731926551      1.37157924952146     -0.22796589553642
  N   -0.75022761950193      1.00342958968173     -0.53777386442096
  H   -1.49259201521967      1.43042121859887     -0.00356236972424
  H   -0.01710733531052      1.65818088382327     -0.76921759057025
  N   -1.27948109883098     -1.12182469379499      0.22413481573573
  H   -1.12140770699751     -1.76890472707733      0.97560872510339
  H   -2.23215397798644     -0.83546215872260      0.08311790092346
