11
Coordinates from ORCA-job run
  C   1.11147282304197      0.11466187296704      0.19836251618596
  C   -0.24360836506471      0.13915682250954      0.19614401160713
  H   1.68755696484471      0.67933676133186      0.94713626146876
  C   1.82248298184318     -0.63362292773448     -0.76808062081130
  N   2.26029631055633     -1.36626867720907     -1.57765224815139
  N   -0.98108746607117      1.01651576279561      0.94846643019792
  H   -1.87087157609666      0.64879641533610      1.32242727296006
  H   -0.47068826736613      1.63190361079149      1.55399161087846
  N   -1.04072229079877     -0.69533393021870     -0.56871231091017
  H   -0.49337723727856     -1.32750373685421     -1.15740520850531
  H   -1.78345387761020     -0.20664197371520     -1.09467771492011
