11
Coordinates from ORCA-job run
  C   1.06376754389265     -0.54196575757368      0.03525087284726
  C   -0.24990826906507     -0.18241394294443      0.02906832269549
  H   1.29994735529386     -1.59564036982842      0.09468101828163
  C   2.07607050651881      0.42754630027071     -0.17474595154225
  N   2.86306377727063      1.27868666169732     -0.38643177740444
  N   -0.67813180536346      1.12679532348510     -0.06065104349088
  H   -1.63615544287410      1.26270507408475     -0.33542906569821
  H   -0.03297395786590      1.77586005871264     -0.48937914931321
  N   -1.21888025685714     -1.17704919511930      0.25447373484955
  H   -1.38326779913274     -1.39912942408444      1.22477369153035
  H   -2.10253165181752     -0.97539472870026     -0.19161065275530
