11
Coordinates from ORCA-job run
  C   1.07374622820514      0.30927006071036     -0.12136244835592
  C   -0.24313874128374      0.15195435386471      0.19682560515937
  H   1.65801575412898      1.11241181989804      0.31010465130237
  C   1.70570905989156     -0.59300723981904     -1.01202173300797
  N   2.20523464216085     -1.34404760390721     -1.76952524184462
  N   -0.97353654595577      1.09907308195368      0.89411959790393
  H   -0.43058033800037      1.87807997966904      1.23178700557373
  H   -1.57137109958569      0.70371860448178      1.60512953023904
  N   -0.99202055033827     -0.95917185649343     -0.13782482593974
  H   -1.91944479675505     -0.73712809357273     -0.46873056019368
  H   -0.51261361246765     -1.62215310678519     -0.72950158083651
