11
Coordinates from ORCA-job run
  C   1.09456180285546      0.20662831852722      0.17412704139228
  C   -0.26820920511956      0.18603622614535      0.11724998996971
  H   1.61732963722812      0.99585191461807      0.69952726327626
  C   1.84743984674545     -0.80456218196025     -0.47160141308324
  N   2.42923844007828     -1.66422626658419     -1.02852576972095
  N   -1.07196579032498      1.01651819771457      0.87963391474115
  H   -0.56880413515789      1.70599563239808      1.41541084196625
  H   -1.84417054958884      1.41297860591690      0.36394073398110
  N   -0.99427445016050     -0.65667797470381     -0.70057735640613
  H   -1.80395438565722     -1.05936167320380     -0.25221157136657
  H   -0.43819121089831     -1.33918079886814     -1.19497367474987
