11
Coordinates from ORCA-job run
  C   1.08339061516340      0.30195300516114     -0.06908395110237
  C   -0.25313002744491      0.16744190972605      0.16791820744775
  H   1.63485493016308      1.14897386319378      0.31968196318788
  C   1.76970528546342     -0.66602521782083     -0.84261245917436
  N   2.29733319560823     -1.49234451560256     -1.49576032642496
  N   -1.05986079312771     -0.75997835629745     -0.46105689827552
  H   -1.71534418428614     -1.21289543639097      0.15869594834891
  H   -0.56497552806082     -1.41037636845092     -1.05378544841508
  N   -0.94614930640673      0.95499731315074      1.07152819745721
  H   -0.40236500645605      1.70143662377569      1.47522529716466
  H   -1.84245918061576      1.26781717955533      0.72824946978588
