11
Coordinates from ORCA-job run
  C   0.97096047973902     -0.53867721925626     -0.19320923844411
  C   -0.29301783875481     -0.13662740103357      0.12506360304003
  H   1.28305954610425     -1.56461647580319     -0.04302571941273
  C   1.90259836031807      0.39243372306363     -0.71433941803790
  N   2.64358046871255      1.20350646416114     -1.13954951207649
  N   -1.31095914973970     -1.01827786219863      0.44705280047486
  H   -1.86635803778319     -0.72135852061783      1.23613216476483
  H   -1.02144030116575     -1.98119438047159      0.51585644828445
  N   -0.69694253894901      1.18277100961858      0.16370788692454
  H   -0.00385228552589      1.84264667181002     -0.15828046428148
  H   -1.60862870295552      1.34039399072770     -0.23940855123601
