11
Coordinates from ORCA-job run
  C   1.13676198832195      0.17631023513983      0.11439154636372
  C   -0.22074810874694      0.11225652953858      0.25632005167899
  H   1.73049306866323      0.80238223665935      0.76792052171261
  C   1.78242404388400     -0.61609041346697     -0.86408098395199
  N   2.27608979161721     -1.29430295606231     -1.69159841006718
  N   -0.90165034129823      0.94427423370705      1.11430705394197
  H   -1.89587630024028      0.82119140188382      1.19101320231323
  H   -0.56660365260541      1.88638246185993      1.20691820142541
  N   -1.00599127516340     -0.84891210373503     -0.35279881831528
  H   -0.49263924035521     -1.48516952166130     -0.94558925387964
  H   -1.84225997407691     -0.49832210386294     -0.79580311122184
