11
Coordinates from ORCA-job run
  C   1.03317370472577     -0.51234943059485     -0.08135323253635
  C   -0.26755676409501     -0.17135045823522      0.16148518505189
  H   1.37225960029925     -1.53030504597662      0.06139171467011
  C   1.96044249616119      0.47973248264091     -0.47899078119753
  N   2.69642008678789      1.33938087198122     -0.80731211412589
  N   -0.70715354329804      1.13587062099404      0.25797780923282
  H   0.01282706507229      1.82551848406949      0.09744706561205
  H   -1.55595849295842      1.33890200232644     -0.24879436217438
  N   -1.22678932791270     -1.11705224110819      0.43982474303051
  H   -1.16089093736665     -1.99670759169430     -0.04002049780042
  H   -2.15677388741558     -0.79263969440293      0.63834447023719
