11
Coordinates from ORCA-job run
  C   0.99714287169948     -0.51703092245979     -0.08463151553619
  C   -0.30708078014893     -0.14736502808716      0.06592970765171
  H   1.29006781029325     -1.55770997029522     -0.02356976368132
  C   1.98810100938483      0.46025315427059     -0.34852690337108
  N   2.77647435682570      1.30570781474097     -0.57466164782871
  N   -0.78893881981822      1.11756912856495     -0.20695352618733
  H   -1.44190863526868      1.45964298934936      0.48264752645288
  H   -0.07651974674221      1.79349306194036     -0.44180141708928
  N   -1.29348207857863     -1.01111036585496      0.51138271404036
  H   -0.98956202687427     -1.96498170176469      0.62794158390314
  H   -2.15529396077233     -0.93846816040442     -0.00975675835420
