11
Coordinates from ORCA-job run
  C   1.10796389855313      0.16144057494642      0.13208072389103
  C   -0.25578744800284      0.16779565485697      0.16269661607168
  H   1.68161754338192      0.81902476369532      0.77308646867813
  C   1.79501698474914     -0.72541283392329     -0.73272262474753
  N   2.32113193462441     -1.48452381682176     -1.46387149714205
  N   -0.99495870114583      1.13100913336979      0.82803728775651
  H   -1.77288542722180      0.75341427432103      1.34908870890497
  H   -0.44365722012156      1.77935022382861      1.36782804543385
  N   -1.04689580500494     -0.77765970620799     -0.45907776176673
  H   -0.53889903765023     -1.43619562312510     -1.03160889563093
  H   -1.85164672216140     -0.38824264494001     -0.92753707144893
