11
Coordinates from ORCA-job run
  C   1.11339690873644      0.20209171870790      0.23510182349784
  C   -0.24203352384217      0.25152888382105      0.06880537793681
  H   1.62550197853903      0.95582928851220      0.81949672399541
  C   1.86592929312457     -0.81567344920220     -0.39761969328880
  N   2.45084937445124     -1.67990087887060     -0.94478002671533
  N   -1.02696606598300      1.14749566360474      0.75413958714709
  H   -0.76427207181346      1.37592186820569      1.69574773783671
  H   -2.01007904164292      1.16450669534246      0.54924129917074
  N   -0.92376898804421     -0.50711817817774     -0.86523783000435
  H   -1.75312464749553     -0.96467476966681     -0.51656073727850
  H   -0.33443321602999     -1.13100684227669     -1.39733426229762
