11
Coordinates from ORCA-job run
  C   1.02468207397860     -0.52026480987864      0.12206853481336
  C   -0.29200242833886     -0.15506116941418      0.13296053561553
  H   1.32117087350487     -1.52226109205326      0.40493184664631
  C   2.01839269509457      0.42928961850341     -0.21446497564103
  N   2.81007627654725      1.25405763538676     -0.49986751290761
  N   -1.29798121556574     -1.06836394235401      0.34542087722839
  H   -1.17504388997627     -1.98976396198397     -0.03446344691644
  H   -2.24173029970104     -0.72489583826984      0.37272241880379
  N   -0.72002186477730      1.15684052958895      0.04386583890235
  H   -1.47619746056503      1.31390518473839     -0.60597963860916
  H   0.02765523979893      1.82651784573638     -0.06619447793549
