11
Coordinates from ORCA-job run
  C   1.00927547515554     -0.49992911379731     -0.04797940036744
  C   -0.30487459505031     -0.15182959454573      0.06372797564700
  H   1.32283034153709     -1.53080673310082      0.05747884131984
  C   1.98561782163551      0.48948342796380     -0.32116130688701
  N   2.75987321567297      1.34612819392165     -0.55420436549378
  N   -0.80471374306797      1.09249700176784     -0.26398324520158
  H   -0.10182879561921      1.77454442678673     -0.50863247527777
  H   -1.48321383747827      1.44441159304863      0.39506525929313
  N   -1.28309808610468     -1.01902637280828      0.52051917717248
  H   -0.96236580745275     -1.96155255279485      0.67749935522812
  H   -2.13550198922792     -0.98392027644166     -0.01932981543297
