11
Coordinates from ORCA-job run
  C   1.09451405211816      0.16140205910420      0.21632337333920
  C   -0.26504288734392      0.19451690234401      0.11060709021765
  H   1.62498875403057      0.89861896047432      0.80589300453410
  C   1.83303731069759     -0.85653150235351     -0.43548998712631
  N   2.40289016064293     -1.72492127828171     -0.99122260148749
  N   -1.02177953395217     -0.82103163752311     -0.43896552360860
  H   -1.76566590732946     -0.49446876978899     -1.03788050667382
  H   -0.48180566425555     -1.56674002746850     -0.85357694570784
  N   -1.03429517077326      1.25913666149086      0.54829448387990
  H   -0.51755917914867      1.97302544087400      1.03722610848398
  H   -1.86928193468622      0.97699319112843      1.04079150414922
