11
Coordinates from ORCA-job run
  C   0.99068346446436     -0.53603104112537      0.02119695238058
  C   -0.31398432111600     -0.13894784939894      0.04905093800562
  H   1.25919391564465     -1.57428132241605      0.17128401930519
  C   2.01726882088973      0.40977582757812     -0.21941417604786
  N   2.83656853200337      1.23013310192901     -0.42807520054551
  N   -1.34702025528266     -0.95782465276633      0.47231945835127
  H   -1.07069374001465     -1.90606825107402      0.67280368161021
  H   -2.16729953382335     -0.90748557849064     -0.11410877722206
  N   -0.74899161109182      1.11260280937356     -0.33907857229563
  H   -0.00824272378533      1.76199287971261     -0.56047686209497
  H   -1.44748254788831      1.50713407667806      0.27349853855317
