11
Coordinates from ORCA-job run
  C   1.12468325705282      0.22498300275465      0.14365688618140
  C   -0.24099383428854      0.24235639809533      0.10228594053299
  H   1.66902244163361      0.96016989631875      0.72261129808119
  C   1.84180117433629     -0.73797478195676     -0.60518407406539
  N   2.39585112537477     -1.55697471807481     -1.24602750090935
  N   -0.98298594198878      1.08133624656895      0.90012592343273
  H   -0.64231706316285      1.26206987976302      1.82720089299639
  H   -1.98155992652773      1.06524708860325      0.79107484212239
  N   -0.98526763727626     -0.48793266107869     -0.80654059996526
  H   -1.76777127184892     -0.98705038778425     -0.40998898420677
  H   -0.43046232330441     -1.06822996320943     -1.41921462420031
