11
Coordinates from ORCA-job run
  C   0.97009553225430     -0.54965784945710     -0.16687401408146
  C   -0.31054715432018     -0.14028302973220      0.06348910276278
  H   1.22714252874451     -1.60151242047373     -0.16257731373381
  C   1.98969604092703      0.40519982560659     -0.40164772055085
  N   2.80356973974680      1.23654682581476     -0.58651287648661
  N   -0.67374189956029      1.17366378264253      0.28255816056119
  H   -1.52035549219015      1.44513524712722     -0.19523017647052
  H   0.07616289197139      1.83934684743387      0.16413515971687
  N   -1.38888119890680     -1.00785738682425      0.10273830713308
  H   -1.14149344495715     -1.98270741378425      0.03923565581255
  H   -2.03064754370948     -0.81787442835344      0.85868571533680
