11
Coordinates from ORCA-job run
  C   1.09431664169405      0.29937577156246     -0.03151126996700
  C   -0.26148272083403      0.18872954159596      0.09790627769044
  H   1.62011732776768      1.15829994111303      0.36484913126933
  C   1.83256188349795     -0.73887454469620     -0.64901848487369
  N   2.40353600815192     -1.63654720836787     -1.15525679343863
  N   -1.07176527989322      1.24135364024609      0.50508739748479
  H   -0.56524114640219      2.09168348016122      0.69584182587670
  H   -1.70813324545105      0.99966586933331      1.25103323034916
  N   -0.95900966636700     -0.94554447110847     -0.19463782478377
  H   -0.46246686923113     -1.78988900446178     -0.41866619719536
  H   -1.92243293293300     -0.86825301537775     -0.46462729241196
