11
Coordinates from ORCA-job run
  C   1.06258971784542      0.33330216201624     -0.13759990751602
  C   -0.26621701922643      0.21956311429776      0.15339793873208
  H   1.62593349096580      1.21047788671465      0.15471413172640
  C   1.72767212961449     -0.67332771805429     -0.87896934254658
  N   2.25223494766391     -1.50389742942351     -1.53037145362541
  N   -0.93842493920015      1.11794198367739      0.92742112680230
  H   -0.45710408784077      1.82034364646584      1.45948232360388
  H   -1.92744957977156      1.00315166602623      1.04379656650775
  N   -1.10399611238463     -0.79614256032725     -0.33793705400939
  H   -0.72611141319174     -1.19488578004033     -1.18872390304554
  H   -1.24912713447434     -1.53752697135274      0.33478957337053
