11
Coordinates from ORCA-job run
  C   1.01825572183570     -0.53882062184891     -0.09044941044791
  C   -0.26108994474798     -0.14979571066444      0.19063781409546
  H   1.34947134136299     -1.54565180425876      0.12987324442560
  C   1.93817563142025      0.39287295088882     -0.62695779539920
  N   2.66876208740723      1.20342634747923     -1.07157852755089
  N   -1.21657570422397     -1.04457187437650      0.61316652702849
  H   -2.13076582760277     -0.68449888962269      0.82350399873040
  H   -1.18895662622521     -1.96847915431657      0.22060475862972
  N   -0.67468864652549      1.16931524036581      0.18502039984699
  H   -1.54900256815940      1.33978957908297     -0.28957718537686
  H   0.04441453545865      1.82541393727105     -0.08324382398181
