11
Coordinates from ORCA-job run
  C   0.99889791023629     -0.55656028370744     -0.16673800135158
  C   -0.26587830538123     -0.16482034368283      0.17040655506007
  H   1.29286094728060     -1.59548284718649     -0.08803902917614
  C   1.95099450345848      0.40595862934955     -0.57792392458031
  N   2.71025634361150      1.24224873444444     -0.91332487623994
  N   -1.25255085628057     -1.07454675379125      0.47187639384491
  H   -2.15241075453004     -0.71461299070241      0.73707236740178
  H   -1.25805319048665     -1.93690107566244     -0.04269547275959
  N   -0.63363358249308      1.15658830593781      0.34564627644502
  H   0.10853270481207      1.81754266250586      0.16697475547119
  H   -1.49901572022737      1.41958596249520     -0.10225504411541
