11
Coordinates from ORCA-job run
  C   1.02981394335323     -0.50807226143355      0.13348438160346
  C   -0.29149492078355     -0.20248788569419     -0.03366622551888
  H   1.33718899258973     -1.51776621787731      0.37415604415890
  C   2.01471246695108      0.48905080190088     -0.06261163634228
  N   2.79786300145057      1.35213721297467     -0.23655807407789
  N   -0.73496017932326      0.97991312386765     -0.59680430360873
  H   0.00516498649840      1.61959138727461     -0.84725393022376
  H   -1.48451447808557      1.43449400519737     -0.09653070678781
  N   -1.28863055660352     -1.10562052274920      0.25202714597141
  H   -2.23708071732715     -0.82312669235963      0.07760236921356
  H   -1.14806253871996     -1.71711295110129      1.03615493561202
