16

C	0.0	0.0	0.0
C	-0.214764	-0.150424	-1.534766
F	1.399123	0.0	0.0
H	0.110547	-1.185462	-1.711389
H	0.550263	0.482442	-1.986104
N	-0.346445	1.420247	0.455314
O	-0.608734	1.611974	1.633313
O	-0.228231	2.304385	-0.390091
N	-0.585237	-0.902731	0.885154
H	-0.425672	-1.830454	0.500544
H	-1.627908	-0.662018	0.718736
C	-1.532941	0.093411	-2.25255
H	-2.340892	-0.505457	-1.848509
H	-1.364968	-0.09869	-3.321982
H	-1.841299	1.130604	-2.129461
F	-2.800233	0.0	0.0
