16

C	0.0	0.0	0.0
C	-0.489447	0.084212	-1.42883
F	1.359161	0.0	0.0
H	-1.551432	0.329047	-1.348162
H	0.063159	0.886616	-1.921451
N	-0.249026	1.412393	0.687947
O	-0.22078	2.42391	-0.006759
O	-0.363248	1.413713	1.91227
N	-0.59433	-1.014011	0.723895
H	-0.385437	-0.884958	1.707689
H	-1.636399	-0.797235	0.546476
C	-0.291788	-1.2474	-2.143884
H	0.74212	-1.597534	-2.06862
H	-0.942672	-2.001435	-1.702042
H	-0.543978	-1.149809	-3.204887
F	-2.83868	0.0	0.0
