16

C	0.0	0.0	0.0
C	-0.476651	0.180994	-1.420442
F	1.399119	0.0	0.0
H	-1.524706	0.473083	-1.327779
H	0.116325	0.978402	-1.870434
N	-0.222898	1.36094	0.777358
O	-0.239746	2.412153	0.144872
O	-0.277668	1.28531	2.003345
N	-0.584932	-1.057634	0.659101
H	-0.377504	-0.984735	1.647746
H	-1.629659	-0.829405	0.492148
C	-0.353802	-1.119822	-2.203616
H	-1.069705	-1.843561	-1.816515
H	0.649361	-1.546925	-2.123838
H	-0.572256	-0.947133	-3.26288
F	-2.820246	0.0	0.0
