16

C	0.0	0.0	0.0
C	-0.469166	-0.038362	-1.446467
F	1.357467	0.0	0.0
H	-1.535922	0.19712	-1.383949
H	0.079961	0.72065	-2.006594
N	-0.318888	1.418453	0.557725
O	-0.057028	2.35419	-0.199533
O	-0.701328	1.543524	1.711138
N	-0.561575	-0.923053	0.896362
H	-0.367844	-1.849771	0.533715
H	-1.599187	-0.713214	0.744662
C	-0.261457	-1.422681	-2.051158
H	-0.967455	-2.13441	-1.617432
H	-0.446319	-1.398338	-3.129061
H	0.758623	-1.791122	-1.896252
F	-2.806165	0.0	0.0
