16

C	0.0	0.0	0.0
C	-0.497646	-0.026347	-1.434199
F	1.363294	0.0	0.0
H	-1.541091	0.292419	-1.373741
H	-0.516441	-1.091004	-1.688717
N	-0.261971	1.427712	0.634473
O	-0.122476	1.494622	1.856723
O	-0.522542	2.387693	-0.083272
N	-0.588965	-0.983882	0.776061
H	-1.630905	-0.78798	0.575262
H	-0.39115	-0.787125	1.751591
C	0.356627	0.729941	-2.44426
H	-0.063564	0.599071	-3.446621
H	1.385149	0.360379	-2.463375
H	0.376283	1.796949	-2.225513
F	-2.828592	0.0	0.0
