16

C	0.0	0.0	0.0
C	-0.485327	0.112747	-1.432387
F	1.389532	0.0	0.0
H	-1.533182	0.409814	-1.346372
H	-0.482631	-0.92046	-1.795215
N	-0.247723	1.356132	0.767608
O	-0.042984	1.316098	1.982156
O	-0.578009	2.367565	0.157099
N	-0.590404	-1.050583	0.674884
H	-1.635716	-0.835136	0.488266
H	-0.390886	-0.955879	1.665311
C	0.360904	0.985494	-2.352206
H	-0.05858	0.962301	-3.36381
H	1.393865	0.631142	-2.410055
H	0.370199	2.022346	-2.018132
F	-2.826875	0.0	0.0
