16

C	-0.557569	-0.040002	-1.419455
C	0.0	0.0	0.0
Cl	0.066817	-1.4539	-2.282459
H	1.094282	0.0	0.0
H	-0.356771	0.92832	0.45358
C	-2.072427	-0.062515	-1.475378
H	-2.40213	-0.946572	-0.931825
H	-2.466576	0.834042	-0.993762
H	-2.422786	-0.109073	-2.509686
N	-0.106699	1.232152	-2.140359
O	-0.470128	2.272311	-1.590294
O	0.510404	1.17165	-3.193399
N	-0.494516	-1.172719	0.737898
H	-0.792694	-0.877001	1.65777
H	0.31069	-1.775158	0.879311
H	2.939325	0.0	0.0
