16

C	-0.568	0.019498	-1.414358
C	0.0	0.0	0.0
Cl	0.005161	-1.391263	-2.321141
H	1.094236	0.0	0.0
H	-0.356121	0.907275	0.494122
C	-2.084539	0.046193	-1.455432
H	-2.442111	0.945973	-0.950702
H	-2.439074	-0.836167	-0.924491
H	-2.446599	0.03434	-2.486495
N	-0.089059	1.29456	-2.109047
O	-0.376037	2.329871	-1.507357
O	0.468355	1.242325	-3.195877
N	-0.510002	-1.194488	0.694878
H	-0.673462	-0.948117	1.66241
H	0.258174	-1.858972	0.705341
H	2.950797	0.0	0.0
