16

C	-0.569546	0.023527	-1.412024
C	0.0	0.0	0.0
Cl	-0.019363	-1.400546	-2.314898
H	1.098414	0.0	0.0
H	-0.35601	0.905982	0.496202
C	-2.084406	0.076714	-1.456955
H	-2.458234	-0.793983	-0.922242
H	-2.424821	0.985091	-0.957623
H	-2.444754	0.066564	-2.488787
N	-0.065889	1.286503	-2.110787
O	-0.333502	2.327049	-1.511302
O	0.487563	1.220843	-3.198702
N	-0.521796	-1.189076	0.697993
H	-0.579569	-0.95798	1.683103
H	0.207322	-1.893265	0.628671
H	2.953531	0.0	0.0
