16

C	-0.403476	0.032561	-1.454652
C	0.0	0.0	0.0
Cl	-2.179259	0.289119	-1.660932
H	1.091448	0.0	0.0
H	-0.315352	0.968119	0.403276
C	0.374452	1.097021	-2.193488
H	1.441754	0.901581	-2.024849
H	0.127025	1.090604	-3.254684
H	0.133308	2.072568	-1.767629
N	-0.100856	-1.292834	-2.148663
O	-0.379355	-1.370158	-3.343199
O	0.439614	-2.177438	-1.49322
N	-0.622877	-1.07528	0.768751
H	-0.765089	-0.748779	1.715953
H	0.046941	-1.832924	0.811298
H	2.966798	0.0	0.0
