16

C	-0.350503	-0.03121	-1.481475
C	0.0	0.0	0.0
Cl	-0.08946	1.595302	-2.183597
H	1.093809	0.0	0.0
H	-0.402295	0.901729	0.462032
C	0.465998	-1.045085	-2.240123
H	1.515337	-0.841412	-1.995755
H	0.285932	-0.989994	-3.312694
H	0.212596	-2.048378	-1.891764
N	-1.84995	-0.289482	-1.676663
O	-2.618348	0.239479	-0.876215
O	-2.202044	-1.008813	-2.611219
N	-0.407402	-1.185636	0.736942
H	-1.335321	-1.511215	0.502387
H	0.271322	-1.92291	0.601856
H	2.938869	0.0	0.0
