19

C	-0.04653	0.00637	-0.027502
C	-0.334674	-0.397062	-1.484764
F	1.379771	0.085842	0.064758
H	0.00456	-1.443158	-1.58319
C	-0.603664	1.366594	0.323924
H	-0.188575	1.687227	1.283099
H	-1.689546	1.302173	0.422312
H	-0.337024	2.093179	-0.445381
C	-0.483682	-1.060292	0.948458
H	-1.571782	-1.165434	0.941517
H	-0.017587	-2.016901	0.694272
H	-0.172448	-0.780949	1.958863
N	0.391644	0.506327	-2.3749
H	1.383269	0.419148	-2.193063
H	0.202229	0.1993	-3.322012
N	-1.719473	-0.349025	-1.898342
H	-2.338696	-0.845979	-1.260399
H	-2.022461	0.618345	-1.870269
Br	-4.262736	-0.720108	0.569119
