19

C	-0.043462	-0.00392	-0.027616
C	-0.327304	0.451641	-1.470283
F	1.382375	-0.091511	0.064389
H	0.016076	1.499247	-1.53118
C	-0.478947	1.029213	0.984495
H	-0.17095	0.713259	1.98506
H	-0.008898	1.992491	0.765183
H	-1.566667	1.13831	0.979078
C	-0.605913	-1.373733	0.274612
H	-0.33991	-2.073768	-0.519134
H	-1.691808	-1.309093	0.372807
H	-0.194197	-1.729226	1.222893
N	-1.711463	0.423503	-1.887802
H	-2.018231	-0.543062	-1.894226
H	-2.329966	0.900106	-1.23385
N	0.397366	-0.422589	-2.390372
H	0.210793	-0.081777	-3.32643
H	1.388969	-0.345521	-2.203913
Br	-4.258306	0.713293	0.587031
