16
Coordinates from ORCA-job run
  C   0.84096932699894     -0.21144539060951      0.18551942194572
  C   -0.65454379506168     -0.41975146087288      0.48886569872408
  F   1.45268347400356      0.17435369970225      1.36978355576641
  H   -0.75562798699303     -1.21423475733540      1.22906436427737
  C   1.14286701397264      0.82874108113026     -0.87467626751294
  H   0.72724625728927      1.79274397025376     -0.58276608491336
  H   0.73648975256692      0.52558061843801     -1.83991319916179
  H   2.22580005308281      0.91958991993360     -0.96761566869159
  C   1.38717700037944     -1.52220614183260     -0.20522601841488
  N   1.83959124423148     -2.56071960527738     -0.51379207988644
  N   -1.36985325993152     -0.71517485967559     -0.69762986842907
  H   -1.50459165929016      0.12015942173387     -1.25393371794326
  H   -2.27032061648790     -1.12836830285656     -0.49650715530674
  N   -1.14708362517572      0.83222873081482      1.21494107453883
  O   -1.17487902954904      0.79786125862853      2.43947692986214
  O   -1.47692415003602      1.78064181782482      0.50340901514552
