16
Coordinates from ORCA-job run
  C   0.58290299408441     -0.08572739940030     -0.46445130067960
  C   -0.64199216104543      0.18654267842462      0.42386450844351
  F   0.43789164156183     -1.37691485284841     -0.96557233714391
  H   -0.57071522666548      1.18859964472259      0.85009472410464
  C   1.87031756597790     -0.01848249927386      0.33341025885332
  H   2.70441688043773     -0.28873708853886     -0.31536444574299
  H   1.80536290465738     -0.71418474891613      1.16808876313359
  H   2.03054920062271      0.99228614185910      0.71334951840897
  C   0.64622995298236      0.83544471819977     -1.61079993401961
  N   0.77482795206916      1.56665315053763     -2.52048344781837
  N   -0.73855073576839     -0.80852623976011      1.42485731188264
  H   -1.46925215128502     -0.59243974271475      2.08948047236931
  H   -0.93055321658340     -1.70823387148268      1.00183078831153
  N   -1.87478089814279      0.25643742720212     -0.48897646771554
  O   -2.49428240811539     -0.78756731535590     -0.66717781660307
  O   -2.13337229478760      1.35484999734517     -0.97315059578443
