16
Coordinates from ORCA-job run
  C   0.70079329222436     -0.35371296817667     -0.03646400109527
  C   -0.70730213341152     -0.16919140534574      0.54320200112228
  F   1.26512025716760     -1.38683009551929      0.71548030600073
  H   -0.59177554045456      0.07461638669909      1.60402934065419
  C   1.57592674395318      0.87478322257907      0.09972087986078
  H   1.56518495588779      1.22244281160924      1.13386824005079
  H   1.22999406163292      1.67686650710833     -0.55282283243614
  H   2.59571967150854      0.60953109915326     -0.18138383967629
  C   0.65370703086431     -0.81799684081122     -1.43331683367561
  N   0.69157554795876     -1.21287151114064     -2.53843322167071
  N   -1.55179786884579     -1.26651805774906      0.24387006759538
  H   -1.04114535093697     -2.11500061426489      0.04786291289470
  H   -2.23875803018648     -1.43450552318069      0.96387181486187
  N   -1.26315102191697      1.11546272526359     -0.06018229875325
  O   -1.59926582906294      1.08923053071121     -1.23702183161177
  O   -1.28382578638223      2.09369373306442      0.68671929587830
