16
Coordinates from ORCA-job run
  C   0.59763129554665     -0.21105181142221     -0.45655728946806
  C   -0.72107873479930      0.16682793137259      0.22400743557726
  F   0.58061722912033     -1.54400201036430     -0.80573355683367
  H   -0.68255388509554      1.23769800994419      0.47126755638827
  C   1.78732541978825      0.01736140235287      0.46867422869207
  H   2.70597469186935     -0.18106178345085     -0.08405016260637
  H   1.81141818928452      1.04547625183631      0.83387236558959
  H   1.74899552256569     -0.67276886966307      1.31243391409506
  C   0.78302224356990      0.61627882144956     -1.66320381707145
  N   1.01466451990720      1.33794753944139     -2.55968022144900
  N   -1.04445356576373     -0.70998627220356      1.31180627041355
  H   -0.23626053503641     -0.95468214458560      1.86297306744926
  H   -1.74847886140142     -0.29167219602029      1.90407301285359
  N   -1.90016166896422      0.07077017722817     -0.72717805739898
  O   -2.95892909362677      0.45534235093221     -0.23956169300652
  O   -1.73773276696449     -0.38247739684741     -1.85314305322458
