16
Coordinates from ORCA-job run
  C   0.82940972630697     -0.19237410957625      0.25899298571354
  C   -0.68369926576243     -0.40036228463433      0.45641176324287
  F   1.34906202723514      0.28941329954803      1.45510583523148
  H   -0.84856704331466     -1.18185941943531      1.20160622697750
  C   1.18345142524260      0.77309518973049     -0.85602383000018
  H   0.69067222079499      1.73432086041438     -0.69944913382591
  H   2.26513842192970      0.90961710360118     -0.84830894981536
  H   0.88690647746353      0.35877585367748     -1.82133518141110
  C   1.40949027931457     -1.51658671260311     -0.01276551490046
  N   1.90958666377621     -2.54594278196696     -0.27655888558167
  N   -1.31279066916653     -0.69401366893798     -0.78000318735989
  H   -1.46024790194889      0.15830363784708     -1.31537545421763
  H   -2.17254418426589     -1.21425323567619     -0.66835922968691
  N   -1.21318658774104      0.86424523218121      1.14172070293174
  O   -1.36828593709986      0.83581236773375      2.35804976980638
  O   -1.46539565276441      1.82180866809652      0.40629208289558
