16
Coordinates from ORCA-job run
  C   0.61965338883794     -0.11714706205999     -0.40731072088380
  C   -0.68407169879052      0.20170473837925      0.34291535181420
  F   0.62123812711964     -1.48860436577440     -0.64727148077586
  H   -0.72966120066205      1.26989589410472      0.56152135484240
  C   1.83662851134196      0.22935774896443      0.42766256718738
  H   1.77184199749259     -0.29311827090986      1.38036356315918
  H   2.73472127237702     -0.07967180892406     -0.10857910941526
  H   1.88289133854224      1.30549681571009      0.60474063353464
  C   0.68481767263283      0.56620851980492     -1.70943433972025
  N   0.81294478798635      1.11753297798543     -2.73824983335518
  N   -0.76478385291133     -0.58190097412218      1.51808178869264
  H   -1.55381235933936     -0.31017267825588      2.08893127777130
  H   -0.85137913787140     -1.56145580207296      1.27694470118590
  N   -1.85048461201109     -0.03095552514235     -0.62792695539043
  O   -2.36322522492183     -1.14566207055195     -0.62419578237965
  O   -2.16831900982298      0.92049186286479     -1.33619301626721
