12

C	0.0	0.0	0.0
C	-0.512177	-0.151142	-1.440305
Cl	1.776074	0.0	0.0
H	0.248035	0.277864	-2.101382
H	-0.335947	0.968655	0.364737
H	-0.354912	-0.793494	0.654234
N	-1.725406	0.613959	-1.618415
H	-2.066183	0.505519	-2.566516
H	-2.494191	0.31657	-1.002056
C	-0.571984	-1.592377	-1.797674
N	-0.589173	-2.71817	-2.132849
Cl	-4.396154	0.0	0.0
