12

C	0.0	0.0	0.0
C	-0.307818	0.095489	-1.513817
Cl	1.783581	0.0	0.0
H	0.458727	-0.528778	-1.998516
H	-0.383356	0.868117	0.523046
H	-0.361754	-0.921649	0.444482
N	-0.184308	1.499133	-1.929237
H	-0.52905	1.592729	-2.877218
H	0.799131	1.744033	-1.927883
C	-1.541482	-0.469944	-2.091008
N	-2.150852	-0.962277	-2.972429
Cl	-3.1485	0.0	0.0
