12

C	0.0	0.0	0.0
C	-0.615507	0.282985	-1.376178
Cl	1.771051	0.0	0.0
H	-1.550643	0.817088	-1.167662
H	-0.323973	0.759288	0.708946
H	-0.354005	-0.971378	0.334192
N	-0.887671	-0.990941	-2.056597
H	-1.756513	-1.304724	-1.62349
H	-1.122403	-0.793827	-3.024476
C	0.220654	1.142011	-2.216249
N	0.836602	1.83842	-2.933399
Cl	-3.477812	0.0	0.0
