12

C	0.0	0.0	0.0
C	-0.431329	-0.339669	-1.438776
Cl	1.777916	0.0	0.0
H	0.200484	0.275486	-2.09319
H	-0.350677	0.997389	0.261723
H	-0.368425	-0.73084	0.71656
N	-1.830839	-0.082666	-1.723581
H	-2.402166	0.157197	-0.909218
H	-2.286043	-0.899073	-2.104361
C	-0.048363	-1.734377	-1.726921
N	0.249463	-2.837552	-1.999129
Cl	-4.464153	0.0	0.0
