12

C	0.0	0.0	0.0
C	-0.555108	-0.145859	-1.401075
Cl	1.784161	0.0	0.0
H	-1.647499	-0.122027	-1.246047
H	-0.342572	0.927239	0.454695
H	-0.34366	-0.850064	0.583806
N	-0.180343	-1.430997	-1.97937
H	0.771422	-1.395154	-2.326318
H	-0.79619	-1.636722	-2.756072
C	-0.174953	0.997831	-2.252756
N	0.130825	1.862086	-2.988484
Cl	-3.537921	0.0	0.0
