18

C	-0.425737	-0.034859	-1.476816
C	0.0	0.0	0.0
Cl	-2.375929	-0.099772	-1.436429
H	1.094247	0.0	0.0
N	0.035992	1.030525	-2.230095
H	-0.282651	1.026429	-3.18632
H	-0.018922	1.930842	-1.779549
C	-0.012048	-1.348338	-2.108363
H	1.075419	-1.42017	-2.014256
H	-0.288061	-1.350581	-3.165752
H	-0.487299	-2.198876	-1.62525
N	-0.4132	-1.097891	0.793757
H	0.303772	-1.805982	0.821118
H	-1.321002	-1.464143	0.550104
N	-0.488714	1.289647	0.642247
O	-0.065041	2.34625	0.165335
O	-1.272624	1.22348	1.579289
Cl	3.296693	0.0	0.0
