18

C	-0.574159	0.121319	-1.434865
C	0.0	0.0	0.0
Cl	-0.223786	-1.49823	-2.192425
H	1.093437	0.0	0.0
N	-2.004913	0.29509	-1.447996
H	-2.391614	-0.291077	-0.712338
H	-2.216052	1.265612	-1.243998
C	0.127675	1.145751	-2.305225
H	1.207741	1.010229	-2.227974
H	-0.117663	2.157126	-1.983215
H	-0.198213	1.003791	-3.336773
N	-0.601857	-1.137526	0.674721
H	-0.035555	-1.943761	0.43579
H	-0.514682	-0.989694	1.673672
N	-0.404204	1.23542	0.763013
O	-0.043124	2.31938	0.310069
O	-1.067522	1.108245	1.795211
Cl	3.331002	0.0	0.0
