18

C	-0.522996	0.009032	-1.447017
C	0.0	0.0	0.0
Cl	-0.061624	-1.565862	-2.180416
H	1.090807	0.0	0.0
N	-1.979929	0.043099	-1.434622
H	-2.28656	0.931347	-1.050284
H	-2.315233	-0.021043	-2.389798
C	0.15321	1.089083	-2.281603
H	-0.117943	0.95499	-3.331732
H	-0.173121	2.079647	-1.958054
H	1.238282	1.024988	-2.167696
N	-0.525151	-1.062104	0.762622
H	-1.523842	-0.971823	0.883342
H	-0.04779	-1.131617	1.650248
N	-0.401296	1.378687	0.580331
O	-1.476161	1.446639	1.189726
O	0.350196	2.330504	0.397784
Cl	3.378261	0.0	0.0
