18

C	-0.538779	0.011215	-1.439354
C	0.0	0.0	0.0
Cl	0.086389	-1.470283	-2.236835
H	1.090825	0.0	0.0
N	-1.989821	-0.11475	-1.418148
H	-2.38688	0.731868	-1.024279
H	-2.323463	-0.216837	-2.369563
C	0.000539	1.199639	-2.224879
H	-0.266986	1.087046	-3.27834
H	-0.437947	2.128648	-1.852731
H	1.086278	1.256819	-2.124396
N	-0.511785	-1.081158	0.746283
H	-1.517527	-1.042296	0.818519
H	-0.068264	-1.136072	1.651264
N	-0.414227	1.363454	0.599919
O	-1.55103	1.444561	1.085244
O	0.385824	2.293539	0.551005
Cl	3.40267	0.0	0.0
