16
Coordinates from ORCA-job run
  C   0.72472542634477     -0.12597456586990     -0.32242184919072
  C   -0.79129379474996      0.20567380526780     -0.41639113022594
  Cl  1.61599922728793      0.98680278724666     -1.40437627008424
  H   -1.06214126676195      0.10138572268818     -1.46927712667380
  N   1.23488491344615      0.08039225179229      1.11778400895814
  O   1.99569772595779      1.00356847055579      1.35412692891007
  O   0.79618734587620     -0.73250962061679      1.92563875060206
  N   0.88976323006407     -1.49974471122046     -0.62781454315421
  H   0.67202865985724     -1.66587035548394     -1.60338353902297
  H   1.83782547080223     -1.81067847437526     -0.45004713269711
  N   -1.00010791698849      1.65568303474159     -0.09060819834866
  O   -0.79502032795403      1.96221247288976      1.08167499956855
  O   -1.37682444517762      2.39851399992392     -0.98871834529511
  N   -1.68284154565080     -0.54455768876667      0.40302114073120
  H   -1.66612214201889     -1.51508503024601      0.11743460364919
  H   -1.39176056033466     -0.49981209852695      1.37235770227356
