16
Coordinates from ORCA-job run
  C   0.62711007413027     -0.26461795542684     -0.41000201510335
  C   -0.71670713951065      0.47440738883952     -0.31722067846331
  Cl  1.08710081772011     -0.32268126159993     -2.12614535975114
  H   -0.65876067628206      1.41173924881637     -0.86527272916814
  N   1.71835437367078      0.62366141745420      0.25265493439922
  O   1.57029783006375      1.83578375986911      0.15480355923043
  O   2.64437504659911      0.03470794766987      0.79179276231715
  N   0.57525550118327     -1.57122622766920      0.10137376346852
  H   1.43472185267118     -2.07276944583407     -0.08167025220775
  H   0.39462939526407     -1.53553901075248      1.09844421760051
  N   -0.94532702415353      0.91669159422305      1.12554537587175
  O   -0.47595052984055      0.21482757493544      2.02307736996979
  O   -1.63493731587871      1.91287444157650      1.27917021669487
  N   -1.81600492783688     -0.32721374601729     -0.71324413238237
  H   -2.22959567441500     -0.02359782975658     -1.57939352938732
  H   -1.57556160338515     -1.30904789632766     -0.73291350308886
