16
Coordinates from ORCA-job run
  C   0.74588277462130      0.10556874094441     -0.01179331017250
  C   -0.79919045040603      0.00835140630370     -0.02497135807830
  Cl  1.32205943802856      1.58791970942289      0.73476845495793
  H   -1.05405314918389     -0.98272316961545     -0.40393096594922
  N   1.12827483671077     -1.09151963516794      0.94460034193899
  O   1.04422292166700     -2.18695482379605      0.39412318381252
  O   1.40897516078219     -0.88427239810966      2.11492230095456
  N   1.28676859785494     -0.03042918054326     -1.29590707501330
  H   2.29707693591762      0.01047305917725     -1.30382241230502
  H   0.94675289630915     -0.85517758642290     -1.77228853213152
  N   -1.28914001287876      0.96225283941131     -1.08890876071358
  O   -1.45499171985746      2.12708192105932     -0.75060548997909
  O   -1.47130197438261      0.48527672096073     -2.20572560142198
  N   -1.47655024760573      0.25947680147463      1.19174468184039
  H   -1.09591889198051      1.04439274815864      1.70101407171458
  H   -1.53886711559654     -0.55971715325761      1.77678047054554
