16
Coordinates from ORCA-job run
  C   0.82466311713372     -0.08790997086623     -0.38449415159214
  C   -0.70408662096930      0.11092435360821     -0.43619579342105
  Cl  1.61747701090535      0.85575930522690     -1.67576154828125
  H   -0.97755846151607      0.21552336487435     -1.48902782497944
  N   1.35692017972697      0.42935562977052      0.97872454766173
  O   0.58106631600915      0.23754431456338      1.91043533025258
  O   2.49569466106907      0.85161455814529      1.05095830554875
  N   1.13904042400506     -1.45529239762680     -0.42460294936943
  H   0.36109097810277     -2.03765504414197     -0.69589058109281
  H   2.00765483210218     -1.66339100704416     -0.89179621216195
  N   -1.09769165327624      1.47879458959899      0.16101778831164
  O   -0.28215373827939      2.38952756128775      0.11410859066883
  O   -2.24812475310439      1.55287336123609      0.57697342930886
  N   -1.41500061282377     -0.97461134167624      0.12895059162570
  H   -1.25462980289781     -1.01868841415674      1.12788225082886
  H   -2.40536187618730     -0.88536886279933     -0.05128177330886
