16
Coordinates from ORCA-job run
  C   0.80092383722247     -0.06615033080436     -0.37104702586369
  C   -0.73444585001014      0.19945816274114     -0.40581574184921
  Cl  1.58038485990251      0.99925092859425     -1.52815603576320
  H   -1.03307029867619      0.11108486196716     -1.45103284381405
  N   1.32892537493805      0.21517117025453      1.04534046881100
  O   2.02707592235678      1.18757070108565      1.26041998879993
  O   0.96231704469536     -0.62470043144380      1.86599065381635
  N   1.17059210186394     -1.41683376524212     -0.64689327022460
  H   1.01164275526926     -1.64437323021807     -1.61938738195762
  H   0.67639073568549     -2.05352022017050     -0.03538321851284
  N   -1.00065232478798      1.63921501747587     -0.03975204608484
  O   -0.81492944204570      1.92435346595310      1.14028721884721
  O   -1.39511431830865      2.39118560345654     -0.92408051751388
  N   -1.56273701474062     -0.61313020590352      0.41398697076329
  H   -1.84294486893175     -1.46875421656036     -0.03819215997952
  H   -1.17635851443281     -0.77782751118550      1.33271494052567
