16
Coordinates from ORCA-job run
  C   0.76309445588879     -0.17595608322278     -0.23146487273665
  C   -0.66535322103436      0.36039786283091     -0.35884098257876
  Cl  1.34142526442655     -0.44912983938381     -1.96054281151158
  H   -0.64261707420432      1.32983156472058     -0.86657110112787
  N   1.73358388245020      0.88876901646845      0.27108888195840
  O   1.58493394427142      2.01364194867316     -0.18051853394160
  O   2.60727664054053      0.50992070477644      1.03812785340494
  N   0.78902428248872     -1.28554862822635      0.59319888973477
  H   0.13187205319617     -1.98198875981592      0.26428227462315
  H   1.71569336948564     -1.65395189946535      0.75297086879848
  N   -1.17857598075196      0.66051180482363      1.04165033685061
  O   -0.41827357468830      1.27816795932098      1.77358450890152
  O   -2.31876834551219      0.30551776346233      1.32108420936494
  N   -1.49439393351165     -0.66125168733613     -0.94011977150609
  H   -1.51416494262516     -0.56407515619838     -1.94602692538667
  H   -2.43375682042009     -0.57485657142777     -0.57190282484758
