16
Coordinates from ORCA-job run
  C   0.78520353271846     -0.03183550924652     -0.04738141626957
  C   -0.74480484174878     -0.11105884458320      0.05853030936245
  Cl  1.27133751431078      1.69642056742516      0.11577308650605
  H   -1.02910770391882     -1.14888758448130     -0.11822133601754
  N   1.29768054832999     -0.79241801989367      1.21186091202117
  O   2.10395518306496     -0.25276135364419      1.94992576348696
  O   0.84640036560916     -1.92326779321842      1.30966789639248
  N   1.31174600602496     -0.69695285455926     -1.15823216292705
  H   0.77706220745093     -0.52314989142691     -1.99853836711398
  H   2.29451020928131     -0.50133052209573     -1.29624633878827
  N   -1.34795887799091      0.66745685036474     -1.12945511100069
  O   -1.13805221221024      0.21040377129837     -2.25273042336330
  O   -2.00956586001085      1.66470611012767     -0.87478009264578
  N   -1.18700577096459      0.33683657660233      1.31570480765966
  H   -2.14361059294989      0.06869407131530      1.49570148737215
  H   -1.08878970699649      1.33814442601563      1.41842098532525
