16
Coordinates from ORCA-job run
  C   0.69163937510828     -0.08738127269666     -0.08832619419052
  C   -0.84104914440256      0.00104603128832      0.12716553584333
  Cl  1.32232291869782      1.58812585488540     -0.39468700002082
  H   -1.19000487043359     -1.01551733455037      0.30953734124183
  N   1.35963521538533     -0.53668407913625      1.22599887800213
  O   2.58041249183552     -0.55077966370829      1.21733775568768
  O   0.63282108947879     -0.92716100871012      2.13344777520868
  N   1.07490923102225     -1.05878476133146     -1.01360893365749
  H   0.51263751624255     -1.06616483870346     -1.85304467839089
  H   2.06758839550865     -1.04132653122930     -1.20685634507787
  N   -1.43689261606505      0.40249728767187     -1.21213475463698
  O   -1.47700960101212     -0.47387660084850     -2.07763204319334
  O   -1.81921962043130      1.55598327682020     -1.34080122520254
  N   -1.34178610456629      0.88104038886462      1.11587904670572
  H   -0.97293562997880      1.81697961615623      1.02100148018294
  H   -1.16006864638949      0.51100363522775      2.03672336149814
