16
Coordinates from ORCA-job run
  C   0.73847493017787     -0.27223029238304     -0.36195071730096
  C   -0.64180383298933      0.45495472380881     -0.40073947818482
  Cl  1.19928088444311     -0.56715070774106     -2.04220722834474
  H   -0.54356410167915      1.35670911710460     -1.00379131900300
  N   1.70971792662004      0.75999423216624      0.24563772764847
  O   1.99607057610251      1.72595076738759     -0.44742871408623
  O   2.02530950008596      0.56612679815351      1.41331718142247
  N   0.85384610502756     -1.47682181108708      0.36613538890252
  H   0.44466061618254     -2.25631471952374     -0.12725499773559
  H   0.48632474080430     -1.39252277825609      1.30490927277807
  N   -0.92547661000275      0.92399415669363      1.00252372798384
  O   -1.27538146492572      0.05382536225112      1.79920594627234
  O   -0.76879785938975      2.11518238362750      1.24799024683860
  N   -1.75278351380460     -0.32483825643250     -0.82505384364381
  H   -1.75039431216559     -0.45524266386693     -1.82645228162319
  H   -1.79548358448702     -1.21361631190256     -0.34484091192397
