16
Coordinates from ORCA-job run
  C   0.76295552775530      0.16344358063203      0.09325237223325
  C   -0.73597032460238     -0.12909714728593     -0.05833979433740
  Cl  1.05985920082326      1.64004103478118      0.99907569250591
  H   -0.83447561257365     -1.09002593603262     -0.56462091783959
  N   1.26172082903839     -1.05371507946396      0.96150045607989
  O   1.68745531551584     -0.88347959161646      2.08907538523512
  O   1.18116208697464     -2.11956725283452      0.35621398394494
  N   1.41152079896794      0.22907286793257     -1.15158712209330
  H   1.25348668590553     -0.60541470467580     -1.70172947723527
  H   2.39955887450314      0.42526635606649     -1.05949638297867
  N   -1.30560851318937      0.87568886535071     -1.05990955498303
  O   -1.27649341147301      0.54394447293292     -2.24110961826036
  O   -1.75868712939821      1.92065498076012     -0.60315350810918
  N   -1.37862365708852     -0.15224399468522      1.19600975159291
  H   -2.31137577851723     -0.53539494397811      1.13148918397468
  H   -1.41548489264167      0.76982649211658      1.61132955027013
