16
Coordinates from ORCA-job run
  C   0.82321870256551     -0.19291339979876     -0.34824504403570
  C   -0.67512133046502      0.15210340780611     -0.46623893146885
  Cl  1.74503831607701      0.58844954160220     -1.66112514706860
  H   -0.90556926447882      0.21364781025028     -1.53265970110703
  N   1.36362435263594      0.35007524151892      1.00217482132420
  O   2.53683291683250      0.65940935145074      1.09151588439474
  O   0.54402495271674      0.29499842766731      1.91423091736934
  N   0.99997715461838     -1.58493462883832     -0.29925453240330
  H   0.17405717689745     -2.10278814706882     -0.55957921699946
  H   1.85315742809761     -1.90518381180008     -0.73008640565340
  N   -0.94755206870245      1.58828999380210      0.03055525830217
  O   -2.10083617488862      1.80408551110461      0.38479066036798
  O   -0.04040664478517      2.40690206951083     -0.02781739763489
  N   -1.50842580727155     -0.81919364754538      0.13932936042867
  H   -1.38329877432001     -0.81184943238709      1.14428784119895
  H   -2.47872093552951     -0.64309828727465     -0.08187836701481
