16
Coordinates from ORCA-job run
  C   0.73365873053291     -0.13986016320868     -0.29873693099620
  C   -0.77620976287902      0.21630338875567     -0.40113704139162
  Cl  1.80676786457549      1.02704385949617     -1.14800891487160
  H   -1.05360112900125     -0.01682501027892     -1.43196509822337
  N   1.18432913753814     -0.09090717899752      1.15972438444358
  O   0.83888834568525      0.89824967182421      1.78992315353430
  O   1.86792260792171     -1.02043852193009      1.57094388168591
  N   0.85855509650811     -1.47669734595738     -0.74034685348624
  H   0.77853732743999     -1.52439560140092     -1.74853455428304
  H   1.73996189679398     -1.87715873629080     -0.44228377797832
  N   -1.07891247988040      1.68727296010311     -0.26948649491460
  O   -1.49516902046174      2.09169085840539      0.80915032416772
  O   -0.91103622170678      2.35785566444340     -1.28370460633518
  N   -1.60501754784414     -0.50172197227364      0.51087234153130
  H   -1.50398704484423     -0.14398427604987      1.45221199823145
  H   -1.38568780037802     -1.48842759664015      0.47037818888591
