16
Coordinates from ORCA-job run
  C   0.75822521414804     -0.23970702604885     -0.27055053461331
  C   -0.59314021986025      0.44333449876269     -0.48093799999932
  Cl  1.58226216182704     -0.26073232126233     -1.88401657869467
  H   -0.48509072550357      1.33011755615781     -1.10182829447636
  N   1.66019197150821      0.64666122146207      0.58848924851409
  O   1.55906798407823      1.84820828035881      0.38967492822077
  O   2.43749661138758      0.08853826713882      1.34910254536279
  N   0.62452276280496     -1.50886702133844      0.32287134892937
  H   0.48520458112016     -2.21681545040412     -0.38585752016746
  H   1.44224120901988     -1.72551580695987      0.88074154439112
  N   -1.14543627147445      0.98010626533114      0.84624085486156
  O   -2.17292564863908      1.64115574495219      0.72508637933156
  O   -0.59273156796472      0.68598341601001      1.90100518406832
  N   -1.49131898607246     -0.48591224798433     -1.07065934088048
  H   -2.32487908651238     -0.02132414503976     -1.40356112005346
  H   -1.74368998986718     -1.20523123113585     -0.40380064479452
