16
Coordinates from ORCA-job run
  C   0.63061877639185     -0.22599959693557     -0.42749502867130
  C   -0.73444472987988      0.46498809076687     -0.28902066201844
  Cl  1.07269489478952     -0.19476250396353     -2.14916147181382
  H   -0.71206289055702      1.42720067785708     -0.79497914391581
  N   1.70073394731491      0.66650876181060      0.26248152857886
  O   2.64963948228334      0.08458658158885      0.76832933692477
  O   1.51486655082138      1.87648891862063      0.21647454046649
  N   0.62516335873639     -1.55491630271707      0.02632504105560
  H   1.49760293184425     -2.02050242648328     -0.18775397492757
  H   0.45655826133671     -1.56799563579553      1.02608188698676
  N   -0.96085665760047      0.83550881827393      1.17441357385075
  O   -1.68474750733747      1.79772584036257      1.37853305070743
  O   -0.45509160997667      0.11344931003016      2.03537377927142
  N   -1.81204251504368     -0.35325372162487     -0.70948006903176
  H   -2.24788904072407     -0.02324260222866     -1.55476995228579
  H   -1.54074325239911     -1.32478420956218     -0.77735243517759
