16
Coordinates from ORCA-job run
  C   0.78420558097891      0.02363019898185     -0.10364806280103
  C   -0.76847185473522     -0.01086181138866      0.04469822308685
  Cl  1.30471101851778      1.65089846729675     -0.50301139179366
  H   -1.04445274943359     -1.05344601542880      0.20838078610721
  N   1.25652814209381     -0.35291375706092      1.31445404950569
  O   0.98458761637838     -1.51454910242514      1.61014112808366
  O   1.79969728937745      0.47325108371264      2.02675555162299
  N   1.41145113743759     -0.90985066437148     -0.97414396709268
  H   1.23046036824809     -0.66944043159591     -1.94012782911844
  H   1.05790809875197     -1.84201432647556     -0.79255521666194
  N   -1.33485664547706      0.34248808008159     -1.31246745448787
  O   -1.24987042696576     -0.53692192072146     -2.17068546443853
  O   -1.79113429527419      1.46666063747718     -1.46809262080491
  N   -1.34421959103349      0.81018238260280      1.04045088095310
  H   -0.96076543220198      1.74406852889821      1.06765405209096
  H   -1.33477825666269      0.37681865041691      1.95119733574861
