16
Coordinates from ORCA-job run
  C   0.62087573641403     -0.16955702779986     -0.46621366882675
  C   -0.77047465286409      0.43819931112386     -0.23163425261796
  Cl  0.97977991841838     -0.02822007771344     -2.20158427290633
  H   -0.82272835345008      1.42362023906962     -0.68824734532533
  N   1.67448949020212      0.74373479725761      0.22160944252081
  O   1.42134703840190      1.94194621280910      0.25438087845354
  O   2.67857511949615      0.19007667039392      0.64632732938086
  N   0.70596437614648     -1.51780212562681     -0.08301777523056
  H   1.59195234971817     -1.92293516158295     -0.35627867055686
  H   0.58104154884732     -1.59079948776658      0.92056743279536
  N   -0.94651459949076      0.72367820629904      1.25749682637856
  O   -1.70231350268817      1.63941484328022      1.54341910337838
  O   -0.37080826083172     -0.01713874658728      2.05637705198026
  N   -1.82220851312371     -0.41624208756672     -0.64559594374691
  H   -1.50417367694925     -1.36715576614393     -0.77476266440193
  H   -2.31380401824677     -0.06981979944579     -1.45284347127514
