16
Coordinates from ORCA-job run
  C   0.79443856873198     -0.19907082053128     -0.33972983536694
  C   -0.63126727807946      0.39208116723593     -0.27607050425002
  Cl  1.19588672107556     -0.33777657899945     -2.06488056923271
  H   -0.63041823821358      1.37865814270755     -0.74938629882987
  N   1.78365518883120      0.84897954633726      0.24179236568546
  O   1.29508306622439      1.65412971962420      1.03129898041822
  O   2.95589568054820      0.75024473216399     -0.06951423267500
  N   1.03828272623240     -1.42023313855648      0.32407743668988
  H   0.39816787986789     -1.53008802973944      1.10093082022583
  H   0.98412633693714     -2.20963125850925     -0.30092183621542
  N   -1.10260855815297      0.66695732955575      1.13403997458209
  O   -1.73723133197232      1.70415209175858      1.28417252158425
  O   -0.89616178995751     -0.18277068374788      1.99394983899096
  N   -1.57038150840573     -0.57204725738381     -0.79673724046488
  H   -2.50814198711677     -0.18964725127739     -0.74118607721225
  H   -1.36932547655044     -0.75393771063829     -1.77183534392960
