16
Coordinates from ORCA-job run
  C   0.75893938306953     -0.04353791747488     -0.51446564424385
  C   -0.76227215138025      0.10201871666803     -0.37398926602836
  Cl  1.38300161107152      1.04389521829635     -1.76000781499571
  H   -1.15754036622335      0.05556465970035     -1.39039016564680
  N   1.46435171042016      0.31801338344103      0.82433546940449
  O   0.78533027428080      0.16231048964939      1.83708356373905
  O   2.65522738501425      0.57944015198208      0.78791165198422
  N   1.03750650964653     -1.37550948599928     -0.87515378734930
  H   0.54610286912340     -2.02593016019254     -0.27504645091089
  H   2.02960445641552     -1.55844712846933     -0.94863233768413
  N   -1.17203557477021      1.49631429784930      0.11290827439394
  O   -2.38627216485723      1.64733506384308      0.21315352149161
  O   -0.31460319319522      2.33622498853315      0.35726508534619
  N   -1.34481267439262     -0.93966266427619      0.40100982935172
  H   -1.18628768427322     -0.78660048748918      1.38793565567970
  H   -2.33524038994961     -1.01042912606136      0.21408241546814
