16
Coordinates from ORCA-job run
  C   0.87109557973887     -0.05893925527740     -0.34748683691625
  C   -0.67226600143808      0.03352853724902     -0.45820341379472
  Cl  1.61156230596632      1.00063211071732     -1.53307667548383
  H   -0.92275169073989     -0.09367756214185     -1.51192789503591
  N   1.26278327861696      0.40955902274354      1.07660223660734
  O   1.78840807165111      1.49636984095863      1.23960030744680
  O   0.96584746467162     -0.40395949157568      1.94548304297806
  N   1.36976793945122     -1.38347299291140     -0.48585371350123
  H   1.53486592983910     -1.60314091267994     -1.45822497787500
  H   0.70751894367755     -2.03551705414086     -0.08093206885106
  N   -1.12203129432986      1.45646871782312     -0.13220869665819
  O   -1.22260956912449      1.73080304613855      1.06191299567427
  O   -1.36443650400492      2.20163143114482     -1.07660614449078
  N   -1.31159679804557     -0.95293977838324      0.33512070556511
  H   -2.29203447756731     -1.03215729981508      0.10082823102993
  H   -1.20312317836263     -0.76518835984956      1.32397290330546
