16
Coordinates from ORCA-job run
  C   0.71171840811475     -0.21311757410478     -0.43523151543694
  C   -0.67838561776049      0.42814284149051     -0.41780572784013
  Cl  1.30525380715127     -0.21004004336083     -2.10253693267777
  H   -0.65161750372230      1.40150629241724     -0.90315381043705
  N   1.68408607811105      0.74259527745269      0.31972141338259
  O   1.44927646461715      1.94187514780360      0.24103251195717
  O   2.61941286593135      0.21212910682331      0.90092106396366
  N   0.71544120677622     -1.52593604891490      0.07183544653569
  H   1.58493787967162     -1.99674377213428     -0.14126020367416
  H   0.57570471980956     -1.50045737352680      1.07520399628267
  N   -1.06503656368289      0.76759047637528      1.03310501554983
  O   -0.47706775188876      0.20712321626546      1.95931805027271
  O   -2.00843733123363      1.54084278216937      1.14861728300482
  N   -1.61382114225567     -0.42614225448177     -1.03755494561888
  H   -2.53684007003241     -0.01896145922833     -1.08151641238095
  H   -1.61662544960683     -1.35140661504577     -0.63069523288325
