16
Coordinates from ORCA-job run
  C   0.72354194913575     -0.07206991650864     -0.45015864237640
  C   -0.80046549143787      0.21841345150003     -0.44725792260807
  Cl  1.54234017516867      0.97213190879046     -1.59758515998878
  H   -1.10304671213470      0.20723689486592     -1.49370904040314
  N   1.28166838783106      0.22286970936303      0.97825828145067
  O   1.88523293881253      1.25676332447248      1.20309489215492
  O   1.00932615087218     -0.66017201290315      1.79184780880489
  N   0.90496439511053     -1.43446672470206     -0.80654608842385
  H   0.66299791446893     -2.02147371694751     -0.01691608224018
  H   1.86651285810179     -1.61048152320234     -1.07227488663654
  N   -1.03771297249528      1.62378995139649      0.03809974945120
  O   -0.97489758534903      1.78296281800977      1.25461928340275
  O   -1.28140253914075      2.48315129530598     -0.80212200855440
  N   -1.62585110606418     -0.65103828090487      0.31766770523919
  H   -1.77486896491953     -1.52911403782917     -0.15722051623538
  H   -1.27933939796010     -0.79150314070641      1.25720262696313
