16
Coordinates from ORCA-job run
  C   0.80263631246572     -0.05423350966166     -0.41598374956235
  C   -0.71971908989554      0.13756905924818     -0.45418751751351
  Cl  1.55384650973195      1.12724861353954     -1.48824238947020
  H   -0.99548952911176      0.10616104412362     -1.50788831535329
  N   1.36862773815733      0.17748303925567      1.02427502653071
  O   0.76915784561135     -0.45666992950676      1.88931798404370
  O   2.37830010863944      0.83762758437708      1.18406395692509
  N   1.07910809996341     -1.36416396977918     -0.85320147793030
  H   0.52534738427281     -2.03523362347448     -0.33521923427392
  H   2.06736544844174     -1.57970416895795     -0.84339369305211
  N   -1.10463252236188      1.54559154874194     -0.01968399163605
  O   -2.11778992774550      1.99451542054398     -0.54974793424596
  O   -0.44792065689165      2.08569484574694      0.86621661500859
  N   -1.43512836910784     -0.86909004571679      0.25076922659931
  H   -2.41513545722244     -0.85706295987889      0.00183307431374
  H   -1.30757389494714     -0.79573294860124      1.25107241961654
