16
Coordinates from ORCA-job run
  C   0.75687564677290     -0.03351945893042     -0.20838139088997
  C   -0.71784314708264      0.07351136268339      0.20180677583172
  Cl  1.42383132936277      1.52002969486235     -0.68932149003235
  H   -1.03502175256641     -0.90966519932998      0.55142562851386
  N   1.45378147560859     -0.47139377708123      1.13603582981653
  O   2.24469795650092      0.26363402206174      1.69782984072992
  O   1.11506284226821     -1.59827669207093      1.48856091544329
  N   0.94698069209351     -0.97306056594452     -1.23582259569898
  H   1.91722725518918     -1.04844650130544     -1.51187357099402
  H   0.56466928369990     -1.87771784479610     -0.99186753332988
  N   -1.53800512655078      0.29486312349792     -1.06915092080691
  O   -1.75200055404155      1.45750559496156     -1.39799721147038
  O   -1.93010336307477     -0.71437811967112     -1.64692975063228
  N   -0.89688303275732      1.04691219049195      1.20564781225469
  H   -1.81652817187814      0.99117673283221      1.62064292954635
  H   -0.73874133354437      1.98082543773863      0.84939473171841
