16
Coordinates from ORCA-job run
  C   0.76590809530943     -0.20449899302235     -0.19760169074347
  C   -0.65742283332090      0.31911296094733     -0.40957364573131
  Cl  1.37092159533771     -0.67910556103170     -1.87186383411323
  H   -0.62102190714644      1.22362623473915     -1.02481834333840
  N   1.73389647690254      0.90807391023264      0.19471606883341
  O   2.59230090850579      0.61784765244585      1.01578416572473
  O   1.59988245225737      1.97314807865252     -0.38761594221316
  N   0.77139753895873     -1.21058497718706      0.75155276631730
  H   0.11479636133413     -1.93704973207760      0.49374305681474
  H   1.69297048358057     -1.56383339777504      0.96600614752352
  N   -1.19044850928166      0.78018811188251      0.93902360122404
  O   -2.33489667949303      0.45967474681589      1.24156792117689
  O   -0.43975265251064      1.47945010201983      1.60441120369660
  N   -1.48275502160058     -0.75945374230679     -0.88318588840291
  H   -1.48931028611334     -0.77611831931333     -1.89381005326248
  H   -2.42646602271970     -0.63047707502185     -0.53933553350625
