16
Coordinates from ORCA-job run
  C   0.62106278957409     -0.35619247793778     -0.34449945676736
  C   -0.70709575653844      0.41348757053281     -0.41062851947958
  Cl  1.07888878969311     -0.77521779315472     -2.01032749622934
  H   -0.63035285565466      1.21640634706047     -1.13982996823565
  N   1.73090998888958      0.62754297277401      0.12517578534982
  O   2.64476598254383      0.14358355247389      0.77769510180909
  O   1.60796886326688      1.79618823560178     -0.22103581436382
  N   0.54277360447359     -1.52808012505015      0.42452070008108
  H   1.39108685510212     -2.07453076192534      0.35085220167893
  H   0.36372913181233     -1.28481732409912      1.39236600547699
  N   -0.92498155279873      1.14797014979469      0.90909683418038
  O   -0.47191337309166      0.63503490663236      1.93389073517699
  O   -1.59094872873001      2.17019363580182      0.85179618545777
  N   -1.82320141600324     -0.42978317771020     -0.63688090471660
  H   -1.60341826060276     -1.39923509665968     -0.45225828933494
  H   -2.23027406193601     -0.30355061413483     -1.54893310008377
