16
Coordinates from ORCA-job run
  C   0.80900010830155     -0.03805199597558     -0.35616802861487
  C   -0.73321588903980      0.17586467473014     -0.41825877784770
  Cl  1.57154614395697      1.05830244554835     -1.49577584743447
  H   -1.00960827359197      0.07857050034817     -1.46881683555226
  N   1.30364691280420      0.25439724432265      1.07036098888541
  O   1.97262957089761      1.24372214574958      1.29962781156647
  O   0.94593478473723     -0.59761681283504      1.88240415393614
  N   1.22917225133071     -1.37434931581017     -0.62996179884309
  H   1.09177160592009     -1.60473999023973     -1.60509057230142
  H   0.74849248147492     -2.02919260795540     -0.02680717285943
  N   -1.05435304194581      1.60532655913438     -0.05648376041019
  O   -0.88818018941952      1.89798070217002      1.12468330619800
  O   -1.47054484186635      2.34117876138688     -0.94430498208319
  N   -1.54897304194950     -0.66469719578870      0.38573976980906
  H   -1.79450219148196     -1.52792955188532     -0.07208160324867
  H   -1.17381639012837     -0.81876556290023      1.31093334880021
