16
Coordinates from ORCA-job run
  C   0.70529841077789     -0.03191910922355     -0.13502765908684
  C   -0.80780951827377      0.10722973484932      0.19731641363748
  Cl  1.51580072464684      1.54367383379585     -0.22187560928572
  H   -1.15219645123444     -0.87004623198003      0.53942488879160
  N   1.37788180574466     -0.72532613283289      1.10545721999653
  O   2.43015712199343     -1.30489579575196      0.87597220747889
  O   0.82033952131472     -0.64001220840251      2.19530564446194
  N   0.92792733834382     -0.74669551519162     -1.31358563101977
  H   0.35306163256203     -1.57608614098238     -1.39284191403700
  H   1.90755379310829     -0.95307224239925     -1.45608948627619
  N   -1.50150134157698      0.33235001528902     -1.12138899549237
  O   -1.92016120443915     -0.66626738808548     -1.70157480055209
  O   -1.57777974533655      1.49047976641838     -1.51059166215692
  N   -1.24388630647649      1.11283698002441      1.09968461015443
  H   -0.92031090954264      2.02608781847719      0.80918658087115
  H   -0.91237487161167      0.90366261599549      2.03062819251489
