16

C	-0.45266	0.039552	-1.444832
C	0.0	0.0	0.0
Cl	-0.122462	-1.585243	-2.103646
H	1.088477	0.0	0.0
H	-0.370411	-0.878631	0.520864
N	-1.974372	0.185463	-1.525241
O	-2.437939	0.747546	-2.512408
O	-2.626629	-0.312242	-0.611645
C	0.244342	1.065187	-2.299749
H	-0.048711	2.059922	-1.97722
H	-0.019054	0.928814	-3.347368
H	1.318679	0.937763	-2.156715
N	-0.476416	1.167218	0.786501
O	-0.315359	1.100071	1.998183
O	-1.006358	2.109381	0.194398
Br	3.443997	0.0	0.0
