16

C	-0.434556	-0.143098	-1.448777
C	0.0	0.0	0.0
Cl	-2.205851	-0.426704	-1.567406
H	1.088777	0.0	0.0
H	-0.405176	0.902022	0.443931
N	-0.235968	1.247433	-2.091259
O	-0.536569	2.226133	-1.417335
O	0.160688	1.276839	-3.249674
C	0.327796	-1.172682	-2.238305
H	0.142084	-2.150387	-1.801857
H	1.39414	-0.948515	-2.14776
H	0.021411	-1.158399	-3.282149
N	-0.465917	-1.122752	0.84967
O	-1.022769	-0.818937	1.905143
O	-0.251601	-2.274337	0.479064
Br	3.434604	0.0	0.0
