16
Coordinates from ORCA-job run
  C   -0.29380520274437     -0.08533625303588      0.53604077660453
  C   1.01152423555128      0.61892533845119      0.07762316826169
  H   -0.18383521056085     -0.22822253370328      1.61797196454667
  H   1.08449408735531      1.59032370940016      0.58313283157451
  C   -0.45212753982024     -1.44574140940191     -0.13311807818043
  H   -1.34754568056212     -1.94409763731274      0.24555298909056
  H   -0.56167987707819     -1.33669428702345     -1.21575768959633
  H   0.40273205708869     -2.09682434268372      0.06418461978509
  C   -1.49060375160858      0.82280495241925      0.27180892076768
  H   -1.63030003256606      0.98512990629609     -0.80038797651657
  H   -2.40192562336042      0.36383741688304      0.66167279756302
  H   -1.37326217413467      1.79676895130613      0.75521969893870
  C   0.99523222462189      0.86908769621753     -1.36879000258292
  N   0.92939155750296      1.06532792189298     -2.52442502919502
  C   2.19558781042040     -0.16523575880609      0.44628146686527
  N   3.11612311989497     -0.81105367089928      0.78398954207355
