16
Coordinates from ORCA-job run
  C   -0.27364944455614     -0.08000687653321      0.54963468624791
  C   0.99557303444103      0.64755278113143      0.03085161818390
  H   -0.12481947651572     -0.19287270307705      1.63042557562639
  H   1.06240619329294      1.63012686878750      0.51503518678425
  C   -0.41572192427695     -1.46057644199345     -0.08080759327218
  H   -1.28859547135711     -1.97048578175661      0.33344706409216
  H   0.45956068616037     -2.08585356684738      0.11023154868512
  H   -0.55548290138573     -1.38200519478468     -1.16259559241231
  C   -1.50319978338312      0.78845463620809      0.30353835934931
  H   -1.68186123105407      0.92114918597247     -0.76691000587168
  H   -2.38825179058715      0.31402564451891      0.73324201642222
  H   -1.39791803118503      1.77666145014230      0.75987164907210
  C   0.92098575390590      0.86876025987036     -1.41878038011120
  N   0.81350645369384      1.04245311314334     -2.57491915414462
  C   2.21282819543932     -0.10020847562882      0.36638543594358
  N   3.16363973736764     -0.71717489915322      0.67234958540505
