16
Coordinates from ORCA-job run
  C   -0.19132760082430     -0.37493032087371      0.45311946507432
  C   1.17885370270875      0.13095282749834     -0.07239673455552
  H   0.00346956944300     -0.74794872402742      1.46599533707713
  H   1.87896661152068     -0.71356409533972     -0.10250319869621
  C   -0.68418266552700     -1.52710059022586     -0.41661767989371
  H   -0.90172194486490     -1.18582164399903     -1.43249016069069
  H   0.05244570314594     -2.33360085050251     -0.47459124474866
  H   -1.60407500816633     -1.94372443070034      0.00048697025542
  C   -1.20788084643255      0.75854859045704      0.52644694223030
  H   -0.85927784045742      1.57559360362567      1.16233589855063
  H   -1.41597999134875      1.15958986324771     -0.46941289598778
  H   -2.14822115864829      0.38858487340350      0.94147291509958
  C   1.74648498391156      1.15027663899529      0.81762614651408
  N   2.17560614864467      1.94343848077787      1.56939965057988
  C   1.05731402486807      0.65964732594369     -1.43670018909870
  N   0.92052631202686      1.05905845171948     -2.53217122171006
