18

C	-0.487316	0.039793	-1.452751
C	0.0	0.0	0.0
F	0.051144	-1.060136	-2.15595
H	1.090897	0.0	0.0
C	-1.991088	-0.075419	-1.602753
H	-2.263806	0.024147	-2.657777
H	-2.323897	-1.055261	-1.252182
H	-2.479246	0.719032	-1.038116
N	0.009584	1.25097	-2.027147
H	0.978616	1.356987	-1.735198
H	0.000796	1.13257	-3.034585
N	-0.429102	-1.253819	0.697749
O	-0.86232	-1.151481	1.856229
O	-0.27742	-2.334921	0.127441
N	-0.38599	1.170866	0.729927
H	-1.22598	0.992068	1.263881
H	0.36029	1.367389	1.389416
H	2.676676	0.0	0.0
