18

C	-0.323276	0.011577	-1.504311
C	0.0	0.0	0.0
F	-1.722124	-0.100693	-1.658701
H	1.090671	0.0	0.0
C	0.121691	1.334711	-2.091372
H	-0.465434	2.160577	-1.689067
H	1.178191	1.489269	-1.849186
H	-0.010569	1.286943	-3.173655
N	0.282688	-1.049612	-2.263996
H	1.290027	-0.927353	-2.145843
H	0.075824	-1.925803	-1.795065
N	-0.527305	-1.261551	0.60819
O	-0.010448	-2.325044	0.244818
O	-1.453297	-1.196556	1.414991
N	-0.451449	1.114596	0.768485
H	0.278757	1.814797	0.782285
H	-1.322829	1.499502	0.431195
H	2.748992	0.0	0.0
