18

C	-0.405427	-0.016637	-1.477074
C	0.0	0.0	0.0
F	-1.795892	-0.266055	-1.54107
H	1.091518	0.0	0.0
C	-0.137251	1.341949	-2.083564
H	0.912495	1.601263	-1.922997
H	-0.34928	1.281936	-3.152715
H	-0.755175	2.098523	-1.607118
N	0.241763	-1.022387	-2.276502
H	0.142079	-1.906388	-1.793066
H	1.236158	-0.810547	-2.234957
N	-0.425603	-1.265206	0.690696
O	-1.031634	-1.171345	1.764316
O	-0.105235	-2.349294	0.194076
N	-0.450158	1.15844	0.703133
H	0.155939	1.289711	1.505188
H	-1.393147	1.018821	1.044402
H	2.697894	0.0	0.0
