18

C	-0.476711	0.038154	-1.461715
C	0.0	0.0	0.0
F	-0.18927	-1.183417	-2.059353
H	1.093823	0.0	0.0
C	-1.969237	0.262329	-1.598826
H	-2.259784	1.208049	-1.138164
H	-2.515697	-0.553242	-1.117555
H	-2.216112	0.285983	-2.661734
N	0.274694	1.040444	-2.17653
H	0.088904	1.921911	-1.708538
H	1.260437	0.838974	-1.989742
N	-0.491981	-1.23026	0.694648
O	0.043277	-2.298095	0.411842
O	-1.423351	-1.115367	1.5086
N	-0.407907	1.207329	0.670119
H	0.327988	1.447437	1.327645
H	-1.262059	1.03829	1.18854
H	2.757943	0.0	0.0
