18

C	-0.457913	0.079128	-1.449816
C	0.0	0.0	0.0
F	-1.858147	0.471265	-1.448357
H	1.097096	0.0	0.0
C	0.297144	1.209652	-2.122037
H	0.014305	2.172603	-1.697457
H	0.064756	1.221607	-3.191562
H	1.367929	1.046191	-1.965808
N	-0.279487	-1.110794	-2.189461
H	-0.784321	-1.869317	-1.755104
H	-0.581117	-0.968965	-3.143774
N	-0.443018	-1.216931	0.751427
O	-0.081806	-1.282184	1.921781
O	-1.093258	-2.11453	0.190679
N	-0.378444	1.149454	0.774194
H	-1.104961	1.681654	0.320095
H	0.443733	1.7157	0.942672
H	2.681147	0.0	0.0
