18

C	-0.370599	-0.122345	-1.482162
C	0.0	0.0	0.0
F	-1.757099	-0.376111	-1.569815
H	1.091124	0.0	0.0
C	-0.075428	1.190754	-2.172226
H	-0.246428	1.055446	-3.241477
H	0.970691	1.456131	-1.991989
H	-0.705489	1.981682	-1.772536
N	0.303947	-1.180153	-2.18959
H	0.178839	-2.031581	-1.653667
H	1.298514	-0.966657	-2.111892
N	-0.430759	-1.213989	0.771917
O	-1.046912	-1.044187	1.829619
O	-0.105187	-2.330974	0.358391
N	-0.46203	1.205009	0.609638
H	0.131052	1.399346	1.408468
H	-1.410152	1.089126	0.944159
H	2.697577	0.0	0.0
