18

C	-0.326313	-0.037013	-1.502629
C	0.0	0.0	0.0
F	-1.732118	-0.079885	-1.644017
H	1.090728	0.0	0.0
C	0.186861	1.236729	-2.140601
H	-0.353922	2.10706	-1.770743
H	0.053498	1.155595	-3.220331
H	1.249821	1.34361	-1.900705
N	0.21455	-1.15742	-2.225313
H	-0.002899	-2.002657	-1.70944
H	1.228526	-1.065184	-2.154752
N	-0.533242	-1.234034	0.657399
O	-1.466917	-1.134958	1.451172
O	-0.013549	-2.311582	0.345181
N	-0.449643	1.147582	0.719845
H	-1.31493	1.524515	0.359832
H	0.285181	1.84145	0.716271
H	2.753606	0.0	0.0
