17

C	-0.433781	0.015107	-1.463797
C	0.0	0.0	0.0
F	0.049485	-1.097927	-2.128557
H	1.097108	0.0	0.0
C	-1.912554	-0.020997	-1.574997
N	-3.085877	-0.054983	-1.616408
C	0.038907	1.217048	-2.180103
N	0.374821	2.164351	-2.787504
C	-0.487521	-1.273468	0.680551
H	-0.046537	-1.323275	1.678688
H	-0.159547	-2.158453	0.13351
H	-1.578827	-1.296893	0.781451
C	-0.486847	1.25512	0.715549
H	-0.094818	2.161568	0.24817
H	-0.11362	1.235634	1.741627
H	-1.580842	1.314407	0.748757
Cl	3.389901	0.0	0.0
