17

C	-0.450653	-0.000937	-1.455015
C	0.0	0.0	0.0
F	-1.854325	9.3e-05	-1.526268
H	1.097264	0.0	0.0
C	-0.000286	1.197661	-2.187233
N	0.339418	2.139463	-2.800394
C	-0.002111	-1.201483	-2.185227
N	0.336005	-2.144826	-2.797012
C	-0.483689	-1.263914	0.703903
H	-0.119337	-1.250184	1.733405
H	-0.08031	-2.162776	0.231832
H	-1.575983	-1.327816	0.719964
C	-0.483582	1.264818	0.702352
H	-1.575867	1.328328	0.719225
H	-0.118328	1.252801	1.731525
H	-0.08098	2.163139	0.228608
Cl	3.368022	0.0	0.0
