17

C	-0.451211	-0.004154	-1.45412
C	0.0	0.0	0.0
F	-1.854694	-0.004565	-1.524046
H	1.097261	0.0	0.0
C	-0.002192	1.193732	-2.189083
N	0.338281	2.137007	-2.799773
C	-0.002129	-1.205671	-2.183837
N	0.336554	-2.150605	-2.793259
C	-0.483163	-1.26275	0.7065
H	-1.575335	-1.324331	0.727045
H	-0.083691	-2.162769	0.233278
H	-0.114227	-1.249009	1.733987
C	-0.483129	1.266643	0.699797
H	-1.575274	1.32821	0.720747
H	-0.084321	2.164147	0.221398
H	-0.113442	1.258759	1.727077
Cl	3.366737	0.0	0.0
