17

C	-0.435373	0.006788	-1.463116
C	0.0	0.0	0.0
F	0.047039	-1.10997	-2.122435
H	1.097089	0.0	0.0
C	-1.914466	-0.030339	-1.572427
N	-3.087914	-0.064696	-1.613758
C	0.036161	1.204535	-2.186999
N	0.377585	2.146453	-2.799575
C	-0.486216	-1.271071	0.68622
H	-0.159837	-2.157997	0.141355
H	-0.042545	-1.31744	1.683283
H	-1.577244	-1.293905	0.789873
C	-0.486521	1.257499	0.71167
H	-0.112548	1.241779	1.737529
H	-1.580541	1.316535	0.745548
H	-0.095273	2.162605	0.241069
Cl	3.390168	0.0	0.0
