17

C	-0.433777	0.015278	-1.463795
C	0.0	0.0	0.0
F	0.049475	-1.097732	-2.128645
H	1.097095	0.0	0.0
C	-1.912568	-0.020465	-1.574984
N	-3.086001	-0.050546	-1.616365
C	0.038992	1.217281	-2.179978
N	0.374723	2.164824	-2.78712
C	-0.487596	-1.273566	0.680293
H	-1.578946	-1.297075	0.780859
H	-0.046947	-1.32342	1.678592
H	-0.159364	-2.158479	0.133282
C	-0.486783	1.255034	0.715759
H	-0.113245	1.235506	1.741713
H	-1.580755	1.314253	0.749264
H	-0.094946	2.161522	0.248333
Cl	3.389978	0.0	0.0
