17

C	-0.441244	-0.249303	-1.436791
C	0.0	0.0	0.0
F	-1.841798	-0.206646	-1.529561
H	1.107793	0.0	0.0
C	0.064895	0.7831	-2.361026
N	0.409326	1.629619	-3.09712
C	-0.044797	-1.582845	-1.925999
N	0.173905	-2.668633	-2.316584
C	-0.493269	-1.117344	0.913042
H	-0.074613	-2.08396	0.624296
H	-0.156631	-0.910442	1.931282
H	-1.585883	-1.187707	0.914836
C	-0.478179	1.371365	0.466343
H	-0.105934	1.542891	1.478629
H	-0.078075	2.169854	-0.162904
H	-1.570424	1.438803	0.478808
Cl	3.370019	0.0	0.0
