17

C	-0.450232	-0.131543	-1.448925
C	0.0	0.0	0.0
F	-1.853333	-0.119625	-1.522944
H	1.105491	0.0	0.0
C	0.013179	0.990247	-2.287541
N	0.309028	1.900978	-2.967022
C	-0.020209	-1.4033	-2.060694
N	0.248422	-2.434279	-2.554262
C	-0.485632	-1.193087	0.816842
H	-0.077257	-2.131586	0.435171
H	-0.129534	-1.080637	1.843062
H	-1.577968	-1.258111	0.831013
C	-0.480354	1.324817	0.58445
H	-0.085287	2.175648	0.024618
H	-1.572557	1.387687	0.606331
H	-0.104644	1.409896	1.606323
Cl	3.366843	0.0	0.0
