17

C	-0.429996	0.064638	-1.464055
C	0.0	0.0	0.0
F	0.004422	1.239096	-2.051501
H	1.106843	0.0	0.0
C	0.095802	-1.070234	-2.247313
N	0.454063	-2.00418	-2.861263
C	-1.909497	0.037284	-1.57886
N	-3.082902	-0.002201	-1.618459
C	-0.473199	-1.301567	0.63839
H	-0.09131	-1.343918	1.66083
H	-0.077635	-2.17405	0.112554
H	-1.56665	-1.372068	0.675742
C	-0.501868	1.22427	0.754287
H	-1.594802	1.236652	0.838941
H	-0.169581	2.14485	0.273245
H	-0.078035	1.208162	1.76085
Cl	3.392761	0.0	0.0
