17

C	-0.436158	-0.103989	-1.458827
C	0.0	0.0	0.0
F	0.015845	-1.284932	-2.022445
H	1.1072	0.0	0.0
C	-1.915905	-0.110468	-1.567675
N	-3.089767	-0.117452	-1.612537
C	0.065694	1.017645	-2.277718
N	0.403984	1.923662	-2.943752
C	-0.493901	-1.208923	0.784795
H	-0.162896	-2.138558	0.320077
H	-1.5861	-1.222449	0.878133
H	-0.061887	-1.171087	1.787222
C	-0.477435	1.313725	0.609866
H	-0.091797	2.175641	0.060162
H	-0.089207	1.383377	1.628173
H	-1.570819	1.377546	0.652735
Cl	3.387908	0.0	0.0
