17
Coordinates from ORCA-job run
  C   -0.79781790264343     -0.09122086553008      0.49038745277967
  C   0.71616780092292     -0.20501342467097      0.31057125336887
  H   -1.09444255509024     -0.66376025282548      1.36924342534673
  H   1.19473915141806      0.08473243453541      1.24842995514375
  N   -1.50977253873329     -0.51364429085959     -0.65296475072255
  H   -2.49041233966410     -0.65114157713192     -0.45117171562452
  H   -1.42548704339823      0.14548965967575     -1.41522727386581
  N   -1.04330353486083      1.37396024503022      0.89126294622750
  O   -1.61193276457537      2.09948362857507      0.08018704945222
  O   -0.61800363372098      1.71071011637064      1.99209119252517
  C   1.26571563061399      0.56768555515953     -0.86656251372370
  H   1.04783079249471      1.63119918208760     -0.74650502023025
  H   2.34680265669569      0.44568663580744     -0.92690176823109
  H   0.84211274372652      0.21241715170166     -1.80519998639357
  N   0.99378181240837     -1.68312902902178      0.18249716653053
  O   1.53051141935359     -2.09209985656557     -0.84062252600966
  O   0.65351030505264     -2.37235531233793      1.14048511342671
