17
Coordinates from ORCA-job run
  C   -0.85579356157320      0.01614438797281      0.51775588364246
  C   0.67020648530283     -0.17641780676499      0.36259422791499
  H   -1.16685628854256     -0.44354057822315      1.45593317460778
  H   1.14077418980757      0.03180238259195      1.32564920892297
  N   -1.69529192260392     -0.42861025282220     -0.53473335250077
  H   -1.35392522914662     -0.20427915762165     -1.45755313370790
  H   -1.90974408431039     -1.41141902376446     -0.45604818832572
  N   -1.02089499360154      1.50671518263382      0.72098197022578
  O   -0.67542831981164      1.93522474306030      1.81993126399065
  O   -1.40365998066461      2.17306047122986     -0.23301148481515
  C   1.30752926724358      0.61710661879823     -0.75463747922053
  H   1.28353057832579      1.67961953318680     -0.50750089915431
  H   2.34877340974264      0.31945615686774     -0.88038683031591
  H   0.80179482526956      0.46491487655189     -1.70781471098542
  N   0.82728177785150     -1.65502975076656      0.15764843940415
  O   0.56573895026791     -2.36140575363246      1.13005278787141
  O   1.13496489644310     -2.06134202929792     -0.95986087755449
