17
Coordinates from ORCA-job run
  C   -0.64669704543691      0.51073353489580      0.09862127826828
  C   0.52027215047908     -0.45444486510353      0.01438104498241
  H   -0.40891947530061      1.46381932563711     -0.37088284996940
  H   0.25382050161374     -1.40954116173800      0.46852953022697
  N   -1.02440655926764      0.70236697029636      1.46196802212300
  H   -1.71492773604388      1.43650542948275      1.55232073223959
  H   -1.38838321473429     -0.15368237012995      1.86388178760396
  N   -1.80852978295279     -0.03127257903343     -0.72559954011875
  O   -1.99707013332892     -1.24709442059213     -0.68718325036005
  O   -2.52221757443392      0.79594719588916     -1.28402680655474
  C   1.78506437411397      0.12802044534310      0.62170036258600
  H   2.07713077941982      1.03429511624710      0.08623884388628
  H   1.60390129136738      0.37857626529421      1.66589498841086
  H   2.59682357180423     -0.59835950784785      0.55910704000336
  N   0.80231175717422     -0.77891378315107     -1.42138421591377
  O   1.28043119497992     -1.88400133030032     -1.65373714773254
  O   0.59039590054660      0.10704573481068     -2.24882981968146
