13

C	-0.558501	-0.053854	-1.411177
C	0.0	0.0	0.0
Cl	-0.072481	1.382734	-2.380399
H	1.093176	0.0	0.0
H	-1.654065	-0.022856	-1.397284
H	-0.342814	0.942502	0.445991
C	-0.179474	-1.265594	-2.135932
N	0.114142	-2.244739	-2.712839
C	-0.487431	-1.190521	0.817624
H	-0.109684	-1.097748	1.838587
H	-0.086831	-2.125628	0.41528
H	-1.581096	-1.26783	0.865815
H	2.973915	0.0	0.0
