13

C	-0.371743	-0.076025	-1.462835
C	0.0	0.0	0.0
Cl	-2.147974	-0.372743	-1.764872
H	1.095197	0.0	0.0
H	0.140621	-0.925708	-1.921307
H	-0.363815	0.935944	0.433499
C	-0.01742	1.138065	-2.19824
N	0.211995	2.110448	-2.815417
C	-0.457717	-1.210135	0.798742
H	0.000315	-1.170282	1.790095
H	-0.106805	-2.130612	0.32235
H	-1.543174	-1.271254	0.912047
H	2.899341	0.0	0.0
