13

C	-0.425478	0.044715	-1.4589
C	0.0	0.0	0.0
Cl	-0.109318	-1.522239	-2.282138
H	1.093396	0.0	0.0
H	0.190738	0.783184	-1.981089
H	-0.379909	-0.914236	0.46502
C	-1.839371	0.372666	-1.650621
N	-2.974464	0.653908	-1.769585
C	-0.456718	1.243757	0.754204
H	-1.544261	1.325488	0.848029
H	-0.081316	2.146773	0.262417
H	-0.017006	1.226557	1.754469
H	2.937882	0.0	0.0
