14

C	0.0	0.0	0.0
C	-0.449767	-0.133066	-1.498938
Cl	1.776195	0.0	0.0
H	0.44584	-0.333082	-2.096595
H	-0.265927	1.00463	0.339392
N	-0.530251	-1.040569	0.824583
H	-1.552324	-0.879487	0.702363
H	-0.302555	-0.796271	1.784879
C	-0.91979	1.203858	-1.934483
N	-1.238067	2.251593	-2.360592
N	-1.394637	-1.206118	-1.744077
H	-1.620438	-1.199943	-2.732011
H	-2.229915	-0.91881	-1.197171
F	-2.841796	0.0	0.0
