14

C	0.0	0.0	0.0
C	-0.29448	0.162299	-1.54732
Cl	1.818036	0.0	0.0
H	0.516274	-0.380154	-2.044099
H	-0.283184	0.901698	0.549297
N	-0.586744	-1.214291	0.461832
H	-0.382688	-1.309586	1.451648
H	-1.607232	-0.969709	0.381143
C	-0.097692	1.582064	-1.894749
N	0.078208	2.707784	-2.178064
N	-1.542989	-0.312754	-2.10143
H	-1.489784	-1.324708	-2.060835
H	-2.286564	-0.064131	-1.407427
F	-2.927965	0.0	0.0
