14

C	0.0	0.0	0.0
C	-0.311874	0.103631	-1.55255
Cl	1.785215	0.0	0.0
H	0.505085	-0.440267	-2.037327
H	-0.300757	0.91865	0.512173
N	-0.589162	-1.199009	0.505798
H	-1.608511	-0.957258	0.424794
H	-0.374881	-1.266185	1.496148
C	-0.147471	1.515817	-1.94528
N	-0.035263	2.640918	-2.261919
N	-1.551882	-0.41418	-2.083116
H	-2.300061	-0.153731	-1.398029
H	-1.478069	-1.423916	-2.021982
F	-2.937806	0.0	0.0
