16

C	0.0	0.0	0.0
C	-0.351811	-0.023501	-1.495943
Br	1.948247	0.0	0.0
H	0.170661	-0.865793	-1.951129
H	-0.270819	0.966178	0.433847
N	-0.551926	-1.161634	0.640991
H	-0.305948	-1.148331	1.624213
H	-1.569575	-1.077832	0.587754
N	0.232343	1.188708	-2.158274
O	0.815162	1.020221	-3.228653
O	0.041645	2.27841	-1.622722
C	-1.825451	-0.039679	-1.845432
H	-2.373837	0.776907	-1.381572
H	-1.925094	0.017687	-2.933471
H	-2.303527	-0.956348	-1.508334
Cl	-4.482041	0.0	0.0
