16

C	-0.161159	-0.062402	-1.522311
C	0.0	0.0	0.0
Cl	-0.126897	1.731007	-2.164286
H	1.093334	0.0	0.0
H	-0.327625	-0.99018	0.345752
N	0.972209	-0.697662	-2.138723
H	0.833582	-1.69377	-1.996775
H	1.803878	-0.431606	-1.570274
N	-1.357766	-0.689401	-1.982923
H	-2.164558	-0.209054	-1.606342
H	-1.38299	-0.624241	-2.994071
C	-0.673091	1.104415	0.789365
H	-0.220288	2.070252	0.564212
H	-1.751558	1.182017	0.594158
H	-0.543722	0.916843	1.86055
F	2.758304	0.0	0.0
