16

C	-0.076309	-0.027161	-1.515066
C	0.0	0.0	0.0
Cl	-1.735779	-0.978808	-2.037215
H	1.096052	0.0	0.0
H	-0.33432	-0.967914	0.382385
N	-0.083818	1.246612	-2.093291
H	0.022146	1.163452	-3.094193
H	-0.898597	1.788077	-1.844612
N	0.999102	-0.784437	-2.110194
H	1.831525	-0.506943	-1.538401
H	0.838337	-1.762222	-1.894053
C	-0.673059	1.161636	0.697193
H	-0.200439	2.101896	0.40549
H	-0.565703	1.066248	1.780751
H	-1.74625	1.218242	0.474971
F	2.74732	0.0	0.0
