16

C	-0.065086	0.094466	-1.518969
C	0.0	0.0	0.0
Cl	-1.676239	1.081418	-2.077917
H	1.095808	0.0	0.0
H	-0.427382	-0.938834	0.363655
N	1.037914	0.830606	-2.092988
H	0.893096	1.815312	-1.903942
H	1.85578	0.539735	-1.506399
N	-0.083878	-1.175848	-2.10924
H	0.021817	-1.09374	-3.110348
H	-0.90032	-1.713291	-1.8556
C	-0.488163	1.206209	0.77757
H	-1.575954	1.316629	0.763978
H	-0.150781	1.129633	1.81556
H	-0.053383	2.12061	0.366001
F	2.750272	0.0	0.0
