16

C	-0.134123	0.318503	-1.499747
C	0.0	0.0	0.0
Cl	-0.380768	-1.456134	-2.367364
H	1.09245	0.0	0.0
H	-0.436281	-0.962823	0.259527
N	-1.285057	1.019306	-2.031225
H	-2.129685	0.52991	-1.76039
H	-1.285582	1.937499	-1.599296
N	1.029961	0.94257	-1.889111
H	1.877348	0.605745	-1.370733
H	1.115865	1.077196	-2.884834
C	-0.514813	1.133508	0.87499
H	-0.283655	0.923842	1.923597
H	-1.59848	1.289815	0.796075
H	-0.005253	2.064768	0.612167
F	2.783406	0.0	0.0
