16

C	-0.102878	-0.4307	-1.473734
C	0.0	0.0	0.0
Cl	-0.606209	1.377191	-2.466154
H	1.094745	0.0	0.0
H	-0.433432	0.980629	0.174772
N	1.0983	-0.907014	-1.857406
H	1.940617	-0.561334	-1.313597
H	1.18113	-1.192344	-2.820153
N	-1.190614	-1.223372	-1.993852
H	-1.175909	-2.105112	-1.489725
H	-2.065814	-0.749707	-1.811492
C	-0.535696	-1.064859	0.944048
H	-0.015631	-2.01302	0.774893
H	-0.340246	-0.771839	1.979912
H	-1.615201	-1.232836	0.842061
F	2.800446	0.0	0.0
