15

C	-0.469432	-0.037163	-1.460873
C	0.0	0.0	0.0
F	0.016979	1.016253	-2.166766
H	1.093977	0.0	0.0
N	0.036933	-1.288773	-2.188183
O	0.956279	-1.909805	-1.678116
O	-0.500284	-1.512298	-3.270928
C	-1.938654	-0.058379	-1.557067
N	-3.113607	-0.067738	-1.544702
N	-0.457699	-1.110112	0.800584
H	0.120011	-1.918536	0.623666
H	-1.438567	-1.318746	0.675694
C	-0.477341	1.268531	0.564099
N	-0.897292	2.27083	1.009662
Br	3.447649	0.0	0.0
