15

C	-0.539463	0.021296	-1.433505
C	0.0	0.0	0.0
F	-0.128826	1.140068	-2.07745
H	1.094233	0.0	0.0
N	0.001797	-1.183052	-2.206465
O	-0.690225	-2.194868	-2.191293
O	1.078397	-1.01736	-2.756902
C	-2.00788	-0.050367	-1.46341
N	-3.18227	-0.045617	-1.428732
N	-0.418096	-1.221815	0.658774
H	-1.246414	-1.096433	1.224617
H	0.345198	-1.55616	1.233232
C	-0.456755	1.227482	0.665555
N	-0.864137	2.168945	1.239464
Br	3.359864	0.0	0.0
