15

C	-0.420344	-0.010975	-1.469776
C	0.0	0.0	0.0
F	0.298022	-0.920489	-2.148222
H	1.095841	0.0	0.0
N	-1.891368	-0.460176	-1.556686
O	-2.162419	-1.363778	-2.329573
O	-2.664288	0.148654	-0.827855
C	-0.349967	1.295659	-2.135523
N	-0.327072	2.337928	-2.676369
N	-0.430593	-1.252175	0.600775
H	-1.230865	-1.11886	1.204689
H	0.340613	-1.632031	1.135976
C	-0.461842	1.198186	0.701866
N	-0.807437	2.130752	1.328018
Br	3.356805	0.0	0.0
