15

C	0.0	0.0	0.0
C	-0.208681	0.363749	-1.499424
F	1.358777	0.0	0.0
H	0.280014	1.340742	-1.598603
H	0.436832	-0.358895	-2.003331
C	-0.482846	0.995606	0.957301
N	-0.543842	1.905553	1.708752
N	-0.555028	-1.319248	0.351891
O	-0.568188	-1.607181	1.570123
O	-0.528863	-2.182184	-0.561546
C	-1.55257	0.380621	-2.205746
H	-2.21203	1.160546	-1.828184
H	-2.051015	-0.580281	-2.085262
H	-1.365289	0.558095	-3.277039
H	-2.039097	0.0	0.0
