16

C	-0.3367	0.059041	-1.501426
C	0.0	0.0	0.0
Cl	-2.107968	0.381294	-1.723429
H	1.100735	0.0	0.0
N	0.404082	1.099918	-2.173008
H	1.392037	0.853663	-2.079015
H	0.268721	1.924665	-1.590415
C	-0.071441	-1.23452	-2.144186
N	0.125861	-2.288762	-2.623117
N	-0.609996	-1.150042	0.661143
H	-0.198505	-1.196648	1.588882
H	-0.31169	-1.999556	0.190152
N	-0.40352	1.251646	0.60271
H	0.252167	1.492699	1.334602
H	-1.33347	1.147548	0.992615
Cl	3.384889	0.0	0.0
