16

C	-0.413648	-0.019269	-1.480966
C	0.0	0.0	0.0
Cl	0.005218	1.555301	-2.248914
H	1.102079	0.0	0.0
N	0.270056	-1.060939	-2.219208
H	0.095639	-1.909263	-1.683732
H	1.267556	-0.865788	-2.117449
C	-1.869735	-0.1934	-1.600738
N	-3.028088	-0.368681	-1.673815
N	-0.431656	-1.27288	0.552607
H	-1.333169	-1.150732	1.001116
H	0.24707	-1.592383	1.231908
N	-0.606722	1.115881	0.722141
H	-0.285413	1.982641	0.303204
H	-0.209889	1.097478	1.656813
Cl	3.405628	0.0	0.0
