16

C	-0.462938	-0.010956	-1.471597
C	0.0	0.0	0.0
Cl	0.405035	1.338127	-2.3437
H	1.094347	0.0	0.0
N	-0.24571	-1.287138	-2.066237
H	0.608846	-1.682991	-1.690371
H	-0.176935	-1.204051	-3.071772
C	-1.8922	0.341121	-1.554951
N	-3.040303	0.59024	-1.582662
N	-0.430642	-1.243418	0.624406
H	-0.018025	-1.285491	1.550023
H	-1.442826	-1.265576	0.718497
N	-0.433831	1.247224	0.609591
H	-1.348651	1.141071	1.034527
H	0.235749	1.521448	1.31788
Cl	3.407294	0.0	0.0
