16

C	-0.30734	0.083252	-1.497765
C	0.0	0.0	0.0
Cl	-2.067287	0.429137	-1.799898
H	1.104672	0.0	0.0
N	0.472766	1.16094	-2.049043
H	1.438625	1.032124	-1.739563
H	0.443494	1.143551	-3.060903
C	-0.061368	-1.217798	-2.144161
N	0.187873	-2.198068	-2.742547
N	-0.518444	-1.214926	0.574077
H	0.154884	-1.593753	1.227003
H	-1.37289	-0.98608	1.067897
N	-0.507593	1.202036	0.669865
H	0.144999	1.403914	1.420678
H	-0.431765	1.978256	0.018452
Cl	3.375417	0.0	0.0
