16

C	-0.586903	0.008668	-1.42411
C	0.0	0.0	0.0
Cl	-0.035078	-1.411332	-2.350059
H	1.097835	0.0	0.0
N	-2.031111	-0.022093	-1.318907
H	-2.449184	0.127865	-2.229422
H	-2.27657	0.746092	-0.699524
C	-0.119205	1.202936	-2.156048
N	0.182066	2.205541	-2.690938
N	-0.442327	-1.180331	0.684274
H	0.207443	-1.411679	1.421476
H	-1.381652	-1.075331	1.040066
N	-0.510898	1.24595	0.63276
H	0.07397	2.014788	0.312718
H	-0.310618	1.153152	1.62274
Cl	3.421708	0.0	0.0
