16

C	-0.608642	0.004964	-1.42266
C	0.0	0.0	0.0
Cl	0.175441	-1.28646	-2.374234
H	1.098622	0.0	0.0
N	-2.041951	-0.237522	-1.42715
H	-2.441021	0.479757	-0.823782
H	-2.144606	-1.120659	-0.92987
C	-0.355457	1.285707	-2.095742
N	-0.173431	2.336851	-2.587337
N	-0.466177	-1.206572	0.667715
H	-1.115675	-0.955479	1.40177
H	0.327357	-1.688052	1.068832
N	-0.542521	1.179749	0.696573
H	-0.10459	1.180405	1.613451
H	-0.179543	2.012701	0.23938
Cl	3.414891	0.0	0.0
