16

C	-0.338602	0.016199	-1.501383
C	0.0	0.0	0.0
Cl	-2.11396	0.316921	-1.730194
H	1.102973	0.0	0.0
N	0.392118	1.04486	-2.201471
H	0.245311	1.884309	-1.643353
H	1.381351	0.811942	-2.095623
C	-0.064338	-1.290061	-2.113729
N	0.157925	-2.34448	-2.581505
N	-0.60755	-1.129868	0.697608
H	-0.155404	-1.179299	1.605672
H	-0.352887	-1.991182	0.222043
N	-0.402293	1.268671	0.567783
H	0.263638	1.538014	1.279942
H	-1.323709	1.169707	0.977503
Cl	3.381134	0.0	0.0
