16

C	-0.399877	0.046998	-1.476906
C	0.0	0.0	0.0
Cl	-2.227265	0.20907	-1.55857
H	1.098701	0.0	0.0
N	0.183013	1.155066	-2.183855
H	0.082213	1.944628	-1.548534
H	1.182016	0.95958	-2.240391
C	-0.080512	-1.209854	-2.159114
N	0.173865	-2.205921	-2.726127
N	-0.470541	-1.215835	0.622483
H	-1.43061	-1.121135	0.931998
H	0.120021	-1.439083	1.412956
N	-0.364335	1.283434	0.598782
H	-1.279816	1.237746	1.027503
H	0.323893	1.513287	1.305537
Cl	3.33735	0.0	0.0
