14

C	-0.513028	-0.07368	-1.435907
C	0.0	0.0	0.0
Br	0.287096	-1.578505	-2.409717
H	1.103028	0.0	0.0
H	-1.589503	-0.267887	-1.483117
C	-0.255246	1.151583	-2.18586
N	-0.136928	2.159285	-2.779444
C	-0.536696	-1.127656	0.737965
N	-1.001403	-2.021447	1.345851
C	-0.391486	1.320456	0.670303
H	-1.469395	1.524929	0.656612
H	0.141599	2.135765	0.178116
H	-0.052718	1.289773	1.707855
F	2.526102	0.0	0.0
