14

C	-0.440125	0.072335	-1.459074
C	0.0	0.0	0.0
Br	-0.056524	-1.586932	-2.431517
H	1.105362	0.0	0.0
H	-1.521741	0.207218	-1.570773
C	0.23713	1.164304	-2.154652
N	0.727101	2.065365	-2.728038
C	-0.576262	-1.147836	0.664184
N	-1.025627	-2.062242	1.253194
C	-0.368664	1.300519	0.721991
H	0.222007	2.115875	0.297137
H	-0.084131	1.208552	1.772063
H	-1.436968	1.549825	0.665742
F	2.518784	0.0	0.0
