14

C	-0.47893	0.067336	-1.446601
C	0.0	0.0	0.0
Br	0.126936	-1.485579	-2.48374
H	1.098537	0.0	0.0
H	-1.570554	0.038797	-1.531111
C	-0.007285	1.274213	-2.120339
N	0.299673	2.263176	-2.675576
C	-0.561092	-1.170077	0.644516
N	-1.029343	-2.097498	1.197798
C	-0.385428	1.274627	0.757406
H	-0.071594	1.166021	1.797544
H	-1.460046	1.496184	0.73435
H	0.171493	2.114189	0.337285
F	2.523049	0.0	0.0
