14

C	-0.221293	0.267972	-1.462628
C	0.0	0.0	0.0
Br	-2.08442	0.818879	-1.969161
H	1.107114	0.0	0.0
H	0.39432	1.122595	-1.745063
C	0.119302	-0.864454	-2.312928
N	0.369822	-1.773807	-3.013158
C	-0.59135	-1.237701	0.451239
N	-1.072112	-2.231245	0.861045
C	-0.361336	1.179963	0.892576
H	0.189317	2.058341	0.546065
H	-0.022294	0.965269	1.907139
H	-1.432717	1.402475	0.909448
F	2.499669	0.0	0.0
