15
Coordinates from ORCA-job run
  C   -0.48405755198926      0.18016786844022     -0.10254601035415
  C   0.85351295164796     -0.46641838111198     -0.44187562518094
  Br  -1.02260229062808      1.34898648538551     -1.55684098487500
  H   1.08221045269694     -1.15476412378726      0.37499652758079
  H   0.70809896193347     -1.05692287245880     -1.35709402341077
  C   -1.58557498693263     -0.82359464123521      0.17535071813683
  H   -1.75854990087103     -1.43221984304418     -0.71315098850448
  H   -2.51532511292661     -0.31363089142272      0.43256481971368
  H   -1.28614285532012     -1.46626301187129      1.00476194913235
  N   -0.25676308581218      1.00150926786188      1.16623350359167
  O   -0.43893126520922      2.20687673676783      1.17108063228912
  O   0.10298673337163      0.31825147635023      2.12164682010820
  N   1.89874931204872      0.53791340431847     -0.50533257862943
  H   2.80573140573785      0.11390432309496     -0.36854178867679
  H   1.89565723225255      1.00520420271234     -1.40225297092108
