15
Coordinates from ORCA-job run
  C   -0.51049565730149      0.11310677310705     -0.06202031535461
  C   0.86652693266375     -0.36301491419084     -0.50874124182435
  Br  -1.32095447524114      1.16352633302549     -1.47989565080095
  H   0.72190481354782     -0.99159625426686     -1.39842555779388
  H   1.25307065611689     -0.99397295184064      0.29493583228187
  C   -1.44206955386081     -1.01769574705660      0.32721422390775
  H   -2.40462622843779     -0.62628247454902      0.66034636265901
  H   -0.98959130132076     -1.59530155955434      1.13482245982892
  H   -1.61082226629351     -1.66549792157869     -0.53397120717429
  N   -0.28525950763394      0.98996216662944      1.16971854106620
  O   -0.62401518853956      2.16097546503526      1.17292909043117
  O   0.24178676735896      0.38431550937408      2.09939767383884
  N   1.76114016717729      0.76612709574565     -0.67959925631067
  H   2.72448560061019      0.46744497199921     -0.61808433256349
  H   1.61891924115398      1.20690350812088     -1.57862662219156
