15
Coordinates from ORCA-job run
  C   -0.55045784262766      0.28283426784614     -0.19892418765783
  C   0.74888424796727      0.11414772185421     -0.99649309445094
  Br  -1.86251758044538      1.17680932620112     -1.33242504778991
  H   0.51840145635300     -0.54574314355678     -1.83760916052796
  H   1.03398537497936      1.08143426526674     -1.40812638250408
  C   -1.13047009457920     -1.00788901948559      0.33001102191757
  H   -1.29224014306895     -1.69120144085458     -0.50548615335996
  H   -0.43765728053943     -1.46214968157991      1.04175692762562
  H   -2.07487787228529     -0.83744995287968      0.84141964741767
  N   -0.29195728249050      1.24099608500992      0.96067625858454
  O   0.53180051642314      2.13168710310951      0.77243130472660
  O   -0.92661188665174      1.06349011187977      1.99526496730897
  N   1.87032782808104     -0.42227512570470     -0.25922348293884
  H   1.68690710315186     -1.33545842580237      0.13070055551657
  H   2.17648345573247      0.20976790869618      0.46702682613198
