15
Coordinates from ORCA-job run
  C   -0.48707881644706      0.16813992394271     -0.09613522906521
  C   0.85788246475766     -0.45693150022860     -0.44493161058935
  Br  -1.07268304856374      1.30737273928942     -1.55653600204792
  H   1.10845737979682     -1.12969946866123      0.37887627340781
  H   0.71203436788147     -1.06241284753570     -1.35073947387896
  C   -1.56362724499545     -0.85454849163590      0.20867521711743
  H   -2.49819621239838     -0.36069258772790      0.47959035599251
  H   -1.23805076556729     -1.48589983287755      1.03660490506320
  H   -1.74097373430096     -1.47158206242943     -0.67309551548477
  N   -0.25548875677560      1.01118038425033      1.15826491373737
  O   -0.42764839326109      2.21778503340414      1.14010050897184
  O   0.09522709135725      0.34209443150366      2.12680042266437
  N   1.88465068245213      0.56439678234419     -0.53037012099506
  H   2.80287141737415      0.14627842585052     -0.46835952844873
  H   1.82062356869009      1.06251907051129     -1.40874511644452
