15
Coordinates from ORCA-job run
  C   -0.41008378098077      0.32797506151672     -0.01097457768005
  C   1.10296010614918      0.25286891472416     -0.29761391658111
  Br  -1.35553717933356      0.89902815904028     -1.61889821123982
  H   1.59132934871834      0.08109249490377      0.66953782497314
  H   1.42594939172140      1.23057797180587     -0.65621921275721
  C   -1.00799938897708     -0.96239956423218      0.49235622064077
  H   -0.91767582528862     -1.72465739210423     -0.28145072174231
  H   -2.06118240080564     -0.83908270252846      0.73767683396614
  H   -0.47814133929441     -1.29014709730476      1.38977735352263
  N   -0.59498301962395      1.43793377990052      1.01655329148742
  O   -1.16493192491971      1.15088231841536      2.06630969394419
  O   -0.11309430708122      2.53038926474580      0.73807397452706
  N   1.53779730487713     -0.76392332570221     -1.22318999842853
  H   1.11312940703071     -0.63611227082943     -2.13221113862552
  H   1.33246360780823     -1.69542561235118     -0.88972741600679
