15
Coordinates from ORCA-job run
  C   -0.42445623104369      0.15216443646935     -0.02079979297939
  C   0.87427661265261     -0.36390705682898     -0.65520806787618
  Br  -1.08230771216672      1.68530307564495     -1.02760390821715
  H   1.20692760339193     -1.20902520239279     -0.04567299031923
  H   0.58644672295567     -0.76224999175765     -1.63264305804414
  C   -1.50176922566562     -0.91064486966480      0.05422855571225
  H   -1.14394378674030     -1.74099132114482      0.67115893742777
  H   -2.41220845878658     -0.50629717009520      0.49456474132211
  H   -1.72111977723874     -1.28227118987046     -0.94746770450005
  N   -0.18500364042173      0.63191268884229      1.40912446569167
  O   -1.13547333086991      1.12460756901351      2.00189614400809
  O   0.93139831922981      0.43349809036614      1.88691810163841
  N   1.98355162132442      0.53983130166015     -0.83275754012290
  H   2.29832161373918      0.88700265512937      0.06201322826900
  H   1.72235966963967      1.32206698462891     -1.41775111201027
