15
Coordinates from ORCA-job run
  C   -0.49592488341951      0.33668789638469     -0.25231664225570
  C   0.85011492825865      0.02420955076303     -0.91817818395317
  Br  -1.58996259046878      1.34998220765477     -1.50983908261356
  H   1.27360384179635      0.95157183604202     -1.30161318028275
  H   0.63523197692620     -0.61843988872165     -1.77660167935534
  C   -1.25723961936999     -0.88037842796226      0.21827359502651
  H   -1.40872926530478     -1.55181815162029     -0.62870990802563
  H   -2.22348048614250     -0.60615154707419      0.63502633939379
  H   -0.68824713253178     -1.39723330609931      0.99414288913347
  N   -0.25168864074901      1.27520484555750      0.92634882286745
  O   0.67300083127376      2.07533600723225      0.81684733473909
  O   -0.99604447153137      1.17362569981405      1.89598238820743
  N   1.83177415588914     -0.61707989392613     -0.07327997320126
  H   1.51727021924346     -1.50220456208361      0.29705640010720
  H   2.13032113613015     -0.01231226596088      0.67886088021246
