15
Coordinates from ORCA-job run
  C   -0.55456282537165      0.27860542905240     -0.19367027059008
  C   0.74097764875847      0.12617753276302     -1.00075593802422
  Br  -1.88237217714557      1.16635346029965     -1.31365424201190
  H   1.01389770356768      1.09816242243610     -1.40960322632931
  H   0.51121664919215     -0.53183313094062     -1.84353735012119
  C   -1.11911577648697     -1.02013427628830      0.33223373007277
  H   -2.06065066104153     -0.86076062765702      0.85243363092526
  H   -1.28202063889540     -1.69979691311776     -0.50600646807737
  H   -0.41644093397090     -1.47261733651124      1.03539447576446
  N   -0.29683399550308      1.23315803981906      0.96917464693488
  O   -0.92134499845027      1.04343126911158      2.00772089038124
  O   0.51602322638865      2.13336948223054      0.77919637531279
  N   1.87232688727503     -0.40282226515079     -0.27360167467022
  H   2.17741376540523      0.22807282418751      0.45402521712303
  H   1.70148612627814     -1.32036591023410      0.11165020330990
