17
Coordinates from ORCA-job run
  C   0.72660078418959     -0.19147271955637      0.32993254606491
  C   -0.76629535710024      0.05072718923420      0.61346398299953
  F   1.39105099421413      0.17630552010347      1.52541995031463
  H   -1.02777513368005     -0.60005555923794      1.45784596017493
  N   0.92570300950518     -1.57013786923354      0.04645357088901
  H   0.68912094864413     -2.13462429964728      0.85446056586386
  H   1.89346631847022     -1.74596309719991     -0.19446231555607
  C   1.29859134354854      0.67781273248517     -0.76706378007162
  H   1.11124344097315      1.73038028307898     -0.55248140415711
  H   0.87133304751946      0.41693954185954     -1.73495614106604
  H   2.38022422716273      0.52949570110236     -0.80781888132786
  C   -1.67042021099361     -0.27057591399715     -0.57944113108371
  H   -1.46445541087283     -1.28047924254495     -0.93202231401691
  H   -1.50066031952239      0.43206566635603     -1.39646827755198
  H   -2.71914109173812     -0.19721740136524     -0.28648521042191
  C   -0.97323036988301      1.43119618573788      1.05644867338825
  N   -1.16435622043688      2.54660328282474      1.36817420555807
