17
Coordinates from ORCA-job run
  C   0.73634520397823     -0.19123745445796      0.30774647997230
  C   -0.74635132557198      0.05553879553461      0.63707938923641
  F   1.43874932978245      0.18031147472600      1.48012140784916
  H   -0.98176328609484     -0.58923533481186      1.49365894009836
  N   0.92343444331535     -1.57161379216819      0.02435202668883
  H   1.88263531286169     -1.75067304936244     -0.24657533398766
  H   0.71162538759150     -2.13191012152242      0.84208784663376
  C   1.27556153413373      0.67183380375324     -0.81048208275539
  H   0.81651530634720      0.40890546515652     -1.76309914166081
  H   1.09872033429435      1.72578461523188     -0.59403212382268
  H   2.35480168377806      0.51964948223014     -0.88558284980722
  C   -1.68884009900276     -0.27192622502292     -0.52407329985352
  H   -1.54199466920198      0.42312759279772     -1.35199964765892
  H   -2.72744956699251     -0.19141282468045     -0.19870417356270
  H   -1.49833507789477     -1.28562355147526     -0.87447737406511
  C   -0.93709080588212      1.43925231223146      1.07728348234524
  N   -1.11656370544160      2.55722881183992      1.38669645434994
