17
Coordinates from ORCA-job run
  C   0.74067409010341     -0.21444729380892      0.14957791706009
  C   -0.68226244091926      0.35075586921808      0.40784847568685
  F   1.04735919487252     -0.90761090049251      1.32271687430191
  H   -0.60546698657569      1.02973643964033      1.26484360018498
  N   0.84909806968245     -1.15413328246670     -0.92422755484233
  H   0.81896304638515     -0.69379311791314     -1.82390295868600
  H   0.13027226235901     -1.86438900331461     -0.88198920229813
  C   1.76628657927561      0.88500349152996     -0.02055054274028
  H   2.75082767168318      0.42519897117348     -0.10864860576746
  H   1.56674324042866      1.48102987125179     -0.91334060746102
  H   1.75598526524609      1.54241992734336      0.85032466229845
  C   -1.71394436736268     -0.73425917485682      0.72807479836435
  H   -2.66530972170484     -0.27959338977322      1.00850564595562
  H   -1.35778044198677     -1.34355492640336      1.55850436845257
  H   -1.89827243550227     -1.37585643761079     -0.13564975170187
  C   -1.09473755117485      1.13105932772364     -0.75838925546151
  N   -1.40943547480959      1.72143362875943     -1.72369786334622
