17
Coordinates from ORCA-job run
  C   0.71378439603141      0.05422851666859      0.21515540594004
  C   -0.80305920804557     -0.20799299049511      0.24713933430847
  F   0.89777105930544      1.38022732928933      0.63938931646916
  H   -0.96720031182542     -1.22042608407548     -0.14312096826790
  N   1.36672872036313     -0.80228797866496      1.14566013780197
  H   0.85953734748059     -1.64044763902318      1.38159704481326
  H   2.32247812961037     -1.01053089817202      0.89878560645402
  C   1.29194323489969     -0.00934967098370     -1.18812777057162
  H   2.36886359463997      0.16723671250773     -1.12693674273616
  H   0.86899582980810      0.75935532841796     -1.83455153896045
  H   1.12428197783592     -0.99373617659813     -1.63067763386599
  C   -1.60915785332037      0.79165997016886     -0.58756349821410
  H   -1.37446142581107      1.80925509026490     -0.27658508934035
  H   -2.67770827847622      0.62140854432229     -0.44845881146692
  H   -1.38373475725603      0.68084777958309     -1.64875655367450
  C   -1.28270246848659     -0.19328348188100      1.63366228228238
  N   -1.71635998675334     -0.18716435132918      2.72438947902871
