17
Coordinates from ORCA-job run
  C   0.61765209870317     -0.22949910096914      0.30417761706521
  C   -0.77890134795650      0.41933129994150      0.21656258234269
  F   0.69829065279406     -0.80022613146638      1.57486964021155
  H   -0.80430539329925      1.20705335553259      0.97819081014544
  N   0.70138573218176     -1.31699975312567     -0.63313690574481
  H   1.62644678437390     -1.72954426936005     -0.59776225714013
  H   0.53552863956987     -0.98831425602518     -1.57734821340227
  C   1.73854397714973      0.79240168925195      0.22795862866122
  H   1.62727738621603      1.54920399896768      1.00787545411729
  H   2.69399171855660      0.28399879056287      0.37761931548460
  H   1.75073979160568      1.28292377335738     -0.74710616266686
  C   -1.90890010059896     -0.57952226376371      0.47846634692747
  H   -1.75899143492213     -1.03844021210354      1.45523290844760
  H   -1.90882144438903     -1.36471475723094     -0.27572147883439
  H   -2.87357033795925     -0.06888796536252      0.46909055165502
  C   -0.92768471464566      1.05630541208824     -1.09225403173435
  N   -1.02868200738004      1.52493038970492     -2.16471480553527
