17
Coordinates from ORCA-job run
  C   0.69542963441496      0.02472063844252      0.23476769028608
  C   -0.82809516489309     -0.17309483938988      0.30404380830011
  F   0.96831658879091      1.32896154844476      0.63581615225526
  H   -1.03412174637627     -1.22616489062906      0.07186355929695
  N   1.30963100583535     -0.82638720684453      1.22262143588758
  H   2.30852800478684     -0.65457719408681      1.24588685511127
  H   1.15778108050513     -1.80220924737367      0.99796825086804
  C   1.24633483620445     -0.11531057614805     -1.17530441586338
  H   0.85962620507150      0.66099552867971     -1.83615568023490
  H   0.99907016398827     -1.09557608460436     -1.59095724937872
  H   2.33359495953331     -0.01824795788282     -1.13861574512032
  C   -1.60222371988590      0.72135937349862     -0.66917555842972
  H   -1.41233967759405      0.43026441152180     -1.70300593285124
  H   -2.67422271130670      0.63909946181273     -0.48524466389479
  H   -1.30851587327157      1.76269386569804     -0.53109705638731
  C   -1.28796379522289      0.06767525468185      1.67562045228530
  N   -1.73082979058025      0.27679791417916      2.74196809786978
