17
Coordinates from ORCA-job run
  C   0.68428612102565     -0.18928687173264      0.13240979285808
  C   -0.73251770089160      0.35885021021474      0.37882664732315
  F   0.98325280322150     -0.92148896488534      1.31564105339507
  H   -0.68610767921525      0.90084929047968      1.32989068706453
  N   0.70980900001333     -1.02628122887946     -1.00933500975030
  H   0.14243932395629     -1.85302660288672     -0.87509199940235
  H   1.65573136501003     -1.31286546437812     -1.22693541319822
  C   1.72746271311492      0.90085772239787      0.02853563140638
  H   1.56986580479269      1.50198931677933     -0.86667996002806
  H   2.71987637109177      0.44571587793351     -0.01364648846259
  H   1.68779061563939      1.54220520910565      0.91018978562682
  C   -1.79245942973275     -0.74165192886339      0.48798793314019
  H   -1.96461077477280     -1.21755627154333     -0.47878444553001
  H   -2.74089244804516     -0.31798393263809      0.82158141485003
  H   -1.47132290436723     -1.48902472132113      1.21457760067702
  C   -1.08994118648261      1.31880031168045     -0.66591927452131
  N   -1.40366199435820      2.10089804853697     -1.48324795544843
