17
Coordinates from ORCA-job run
  C   0.80546147370984     -0.13977296465483      0.37697580619985
  C   -0.69940663354489      0.07341767744658      0.66826890511276
  F   1.43959306988900      0.26592787678487      1.55549140193967
  H   -0.91125915059443     -0.52215740503039      1.56580245054457
  N   1.15525586769272     -1.50848035640339      0.16395396598176
  H   0.63064263639461     -2.14524255782749      0.74919042803767
  H   1.08827063972490     -1.78407486838026     -0.80420495406867
  C   1.34181864070430      0.72138894587889     -0.74529058551426
  H   2.41562416712688      0.54749634388923     -0.82371850722226
  H   0.87201125338743      0.48029552712339     -1.70099462711758
  H   1.17186451291654      1.77497788272591     -0.52297022783420
  C   -1.61524229962216     -0.37525875515313     -0.47237203707178
  H   -1.42074555274014     -1.41834206925431     -0.72638607880668
  H   -2.66131951796300     -0.28625811250617     -0.17534476301108
  H   -1.46652771112017      0.23983416361083     -1.36121956047162
  C   -0.96191541201098      1.47280057969922      1.00885436405841
  N   -1.18512598395044      2.60144809205103      1.24296401924342
