17
Coordinates from ORCA-job run
  C   0.69803706035363     -0.06656236582665      0.13989832591972
  C   -0.83116661825529     -0.23941081349639      0.21379500547674
  F   0.97374448840744      1.20788248949813      0.69849907385766
  H   -1.05806233683893     -1.21623537186561     -0.22675850331514
  N   1.32945771955465     -1.10082588275835      0.87665422856091
  H   1.05279283476925     -1.07845513447010      1.85154311111028
  H   2.33646029362902     -1.01179563130400      0.82341110670625
  C   1.21893570895298     -0.03508081203291     -1.28138030185784
  H   0.93615068203533     -0.94380811357620     -1.81445325041748
  H   2.30903186001998      0.03429626377312     -1.26229899032868
  H   0.84137521927387      0.83797005748274     -1.81150089075747
  C   -1.60987243577565      0.86095005105187     -0.51183102768228
  H   -2.68112116772454      0.73655085685602     -0.34632321759662
  H   -1.31046771353899      1.84063407801363     -0.13979427455840
  H   -1.42796252083065      0.81628511608997     -1.58615496076277
  C   -1.23380427544745     -0.29533788328812      1.62231662734044
  N   -1.54052879858467     -0.34805690414717      2.75437793830470
