17
Coordinates from ORCA-job run
  C   0.74108080685496     -0.17860756293400      0.30355729829402
  C   -0.73811526521974      0.07230536035576      0.64650933836306
  F   1.45941389392777      0.23478913875609      1.45147454556260
  H   -0.95917994193862     -0.54870747410808      1.52417614037819
  N   0.93047599674109     -1.56750440293224      0.06426501469761
  H   1.88705550284991     -1.75035757980876     -0.21369248527359
  H   0.73516449713819     -2.09895442220859      0.90519841355635
  C   1.25797830969168      0.64797057683234     -0.85205555780690
  H   0.78674626669777      0.34792834952176     -1.78764806110788
  H   1.07673160903960      1.70786104902229     -0.67074015653935
  H   2.33705122458652      0.50019891998361     -0.93793082284439
  C   -1.69439763997530     -0.29132966754030     -0.49244779509198
  H   -1.57071461835144      0.38877238439694     -1.33635800501340
  H   -2.72871400449978     -0.21868004907048     -0.15179141731476
  H   -1.49581168908819     -1.30950812392508     -0.82506048684391
  C   -0.92748994833830      1.46739322017996      1.04938278838499
  N   -1.09727500011609      2.59543028347877      1.32616124859936
