13
Coordinates from ORCA-job run
  C   0.96934682472471     -0.20866502974616      0.16361453713122
  C   -0.35395244342986     -0.73267123681106     -0.42195639304337
  Br  2.37162007089945     -1.56680655976794     -0.07358355331418
  H   -0.16985307216564     -0.97062072756078     -1.47306842370690
  H   -0.58562873301055     -1.66818584186063      0.09440807745714
  C   0.83601321151624      0.05354266830968      1.59664618736403
  N   0.67678396762331      0.25416379493927      2.74391341359154
  C   1.40052772931614      1.00765276109760     -0.52511046822151
  N   1.69993975426193      1.98647525314054     -1.10310859289784
  C   -1.48883707037887      0.27497937105858     -0.27451033296836
  H   -2.40224255888740     -0.14188948306505     -0.70326145183801
  H   -1.68621393417306      0.50458737644219      0.77460905556443
  H   -1.26750374629639      1.20643765382374     -0.79959205511819
