13
Coordinates from ORCA-job run
  C   0.88136163412543     -0.08431438925852      0.25581556210981
  C   -0.64224934776558     -0.27504307564834      0.38562015004546
  Br  1.66389401922382     -1.51921765974573     -0.84505451333676
  H   -0.80339763089372     -1.26147900864146      0.82887950578269
  H   -0.98179934912657      0.47147078242393      1.11227099059545
  C   1.51404071514453     -0.15420847718669      1.57230212379112
  N   1.97510629950279     -0.21283906261389      2.65204377123502
  C   1.19977414195082      1.19173279905598     -0.38367816229132
  N   1.40626791425704      2.22759154683112     -0.89943689766453
  C   -1.40054516867092     -0.12377717810991     -0.92492334305425
  H   -1.08785356665815     -0.86948217967362     -1.65635172593078
  H   -1.25735122594971      0.86910719339354     -1.35586195656261
  H   -2.46824843513977     -0.25854129082640     -0.74162550471930
