13

C	0.0	0.0	0.0
C	-0.261877	-0.250794	-1.537588
Cl	1.788181	0.0	0.0
H	0.478425	0.352219	-2.074009
H	-0.324045	-0.860108	0.584111
H	0.008886	-1.297462	-1.729797
N	-0.607188	1.163328	0.557991
H	-1.621263	0.899676	0.517988
H	-0.47302	1.932842	-0.092159
N	-1.56384	0.036647	-2.098561
H	-1.62778	1.041851	-2.205901
H	-2.282706	-0.168279	-1.371613
F	-3.02184	0.0	0.0
