13

C	0.0	0.0	0.0
C	-0.55908	0.03941	-1.392786
Cl	1.872911	0.0	0.0
H	-0.218655	-0.850811	-1.942769
H	-0.249474	-0.93815	0.490378
H	-1.661594	-0.00208	-1.146325
N	-0.431578	1.10725	0.740546
H	-0.478728	1.919789	0.143548
H	0.093025	1.267168	1.585104
N	-0.188044	1.303526	-2.038919
H	0.755629	1.241625	-2.404667
H	-0.817336	1.481394	-2.809627
F	-2.953982	0.0	0.0
