13

C	0.0	0.0	0.0
C	-0.274614	0.151632	-1.533033
Cl	1.804031	0.0	0.0
H	-0.032674	1.20204	-1.763731
H	-0.294016	-1.001319	0.317681
H	0.464711	-0.452892	-2.070356
N	-0.642757	0.938464	0.855575
H	-1.652004	0.672306	0.750033
H	-0.538623	1.862214	0.444331
N	-1.585521	-0.179275	-2.048839
H	-1.653113	-1.190255	-2.058474
H	-2.305296	0.086654	-1.340352
F	-3.096368	0.0	0.0
