14

C	0.0	0.0	0.0
C	-0.513142	-0.24375	-1.412034
Br	2.042942	0.0	0.0
H	-1.605735	-0.258487	-1.283838
H	-0.24488	0.637964	-2.014048
N	-0.519678	1.173307	0.521563
H	-0.318001	1.372524	1.486765
H	-0.478441	1.975631	-0.085372
C	-0.286555	-1.138701	0.880007
N	-0.470741	-2.05131	1.59571
N	-0.03996	-1.504056	-1.94574
H	-0.761328	-1.932432	-2.507224
H	0.794575	-1.383223	-2.50176
Br	-3.970871	0.0	0.0
