14

C	0.0	0.0	0.0
C	-0.474333	0.295392	-1.424906
Br	1.953491	0.0	0.0
H	-1.559286	0.131332	-1.409677
H	-0.010437	-0.429831	-2.099814
N	-0.539467	0.981129	0.898649
H	-1.563606	0.885384	0.817587
H	-0.277622	0.761239	1.853476
C	-0.33337	-1.396222	0.349508
N	-0.556716	-2.516739	0.628564
N	-0.080659	1.651923	-1.809378
H	-0.349171	2.261704	-1.043233
H	-0.650835	1.918655	-2.603749
Br	-3.754957	0.0	0.0
