14

C	0.0	0.0	0.0
C	-0.617752	0.23174	-1.39452
Br	2.043722	0.0	0.0
H	-1.461533	-0.463093	-1.444024
H	0.116013	-0.017337	-2.160065
N	-0.500495	0.910746	0.911049
H	-0.164801	0.826011	1.855535
H	-0.534449	1.846349	0.528797
C	-0.237637	-1.383322	0.441144
N	-0.391566	-2.499358	0.774416
N	-1.073851	1.610212	-1.510048
H	-1.031804	1.901715	-2.474211
H	-2.051527	1.599153	-1.218151
Br	-3.915878	0.0	0.0
