14

C	0.0	0.0	0.0
C	-0.462202	0.291151	-1.430308
Br	1.954019	0.0	0.0
H	-1.543072	0.119049	-1.425327
H	0.019279	-0.424354	-2.101619
N	-0.545973	0.983014	0.890339
H	-1.567695	0.88476	0.80508
H	-0.281509	0.779009	1.848779
C	-0.335475	-1.39551	0.3513
N	-0.573655	-2.513569	0.628645
N	-0.080592	1.655733	-1.807406
H	-0.650916	1.915477	-2.605383
H	-0.364007	2.253674	-1.037513
Br	-3.761654	0.0	0.0
