14

C	0.0	0.0	0.0
C	-0.400977	0.094378	-1.475303
Br	2.067397	0.0	0.0
H	-1.48739	-0.048827	-1.460305
H	0.069172	-0.71818	-2.041358
N	-0.485874	1.034226	0.829769
H	-0.472706	1.87834	0.259728
H	-1.471411	0.811451	1.017629
C	-0.301582	-1.327021	0.541674
N	-0.492896	-2.404561	0.969798
N	-0.100463	1.43137	-1.968934
H	0.811527	1.455533	-2.40676
H	-0.801382	1.711793	-2.641949
Br	-3.702041	0.0	0.0
