14

C	0.0	0.0	0.0
C	-0.400322	0.10984	-1.473055
Br	2.086359	0.0	0.0
H	0.07693	-0.690186	-2.0503
H	-1.484945	-0.046466	-1.453872
N	-0.478829	1.026158	0.837813
H	-0.472352	1.872466	0.273108
H	-1.45679	0.802509	1.051651
C	-0.297609	-1.331834	0.528429
N	-0.482573	-2.418395	0.935587
N	-0.115034	1.454887	-1.951123
H	0.76872	1.486204	-2.439432
H	-0.85099	1.760938	-2.571275
Br	-3.688906	0.0	0.0
