14

C	0.0	0.0	0.0
C	-0.469227	0.28996	-1.426872
Br	1.954046	0.0	0.0
H	-1.553673	0.12296	-1.419167
H	0.001111	-0.433858	-2.098439
N	-0.538013	0.988947	0.891498
H	-0.273444	0.778233	1.847561
H	-1.562767	0.893607	0.81375
C	-0.337038	-1.392161	0.358414
N	-0.558643	-2.511402	0.643235
N	-0.075862	1.646258	-1.811674
H	-0.347252	2.257417	-1.046314
H	-0.643092	1.913289	-2.609963
Br	-3.755937	0.0	0.0
