14

C	0.0	0.0	0.0
C	-0.313708	-0.143224	-1.530251
Br	1.969697	0.0	0.0
H	0.041388	0.792876	-1.98196
H	0.317984	-0.946226	-1.921183
N	-0.57224	1.126561	0.664624
H	-0.510474	1.938056	0.058705
H	-1.562631	0.931573	0.834097
C	-0.373154	-1.23657	0.695171
N	-0.635662	-2.261019	1.206922
N	-1.669493	-0.389851	-1.914813
H	-2.332258	0.275136	-1.527681
H	-1.993241	-1.285535	-1.569341
Br	-4.284983	0.0	0.0
