17

C	0.0	0.0	0.0
C	-0.506222	0.001012	-1.484382
Cl	1.782986	0.0	0.0
H	-0.296531	-1.004114	-1.870338
N	-0.507506	1.087952	0.701981
H	-0.498541	0.935853	1.701488
H	-1.444865	1.288313	0.35342
N	-0.344305	-1.367807	0.670861
O	-0.682915	-1.327777	1.84872
O	-0.219413	-2.380741	-0.008302
N	0.174757	0.950045	-2.344964
H	1.165099	0.750604	-2.386757
H	0.045168	1.873313	-1.943943
N	-1.876934	0.421322	-1.46585
H	-2.55959	-0.110152	-0.920546
H	-2.225272	0.507477	-2.409844
Cl	-4.630659	0.0	0.0
