17

C	0.0	0.0	0.0
C	-0.406016	-0.110021	-1.5253
Cl	1.810655	0.0	0.0
H	0.354543	0.537549	-1.992568
N	-0.53866	1.161515	0.559221
H	-1.556826	1.089703	0.492081
H	-0.296216	1.232645	1.539727
N	-0.327801	-1.274368	0.854699
O	0.197044	-2.334827	0.543415
O	-1.07377	-1.097042	1.811411
N	-1.673448	0.41754	-1.910548
H	-1.707978	1.418189	-1.770441
H	-2.460862	0.005009	-1.403088
N	-0.363188	-1.487202	-1.964388
H	-0.593996	-1.484494	-2.949275
H	0.545004	-1.905621	-1.817564
Cl	-4.147761	0.0	0.0
