17

C	0.0	0.0	0.0
C	-0.577363	0.0269	-1.440844
Cl	1.739161	0.0	0.0
H	-1.619145	-0.276613	-1.287548
N	-0.509893	1.030848	0.827808
H	-0.424178	1.871953	0.26331
H	-1.513627	0.850178	0.935986
N	-0.387208	-1.343305	0.66156
O	-0.23769	-2.352375	-0.025896
O	-0.76883	-1.330527	1.819817
N	0.15252	-0.798359	-2.399594
H	0.412365	-1.663897	-1.944883
H	-0.50479	-1.043052	-3.131167
N	-0.562195	1.414042	-1.889064
H	-1.502864	1.706054	-2.121173
H	0.03973	1.47208	-2.69976
Cl	-3.675378	0.0	0.0
