17

C	0.0	0.0	0.0
C	-0.403173	-0.053476	-1.507654
Cl	1.836912	0.0	0.0
H	0.318729	-0.72258	-1.987464
N	-0.573525	1.034879	0.707108
H	-1.172393	1.584742	0.101488
H	-1.03357	0.734063	1.55494
N	-0.301553	-1.362688	0.639224
O	-0.045141	-2.355084	-0.031942
O	-0.746604	-1.367566	1.781102
N	-0.336777	1.325101	-1.977027
H	-0.812244	1.345867	-2.870522
H	0.625725	1.620979	-2.090318
N	-1.712479	-0.545005	-1.797299
H	-2.468944	-0.145449	-1.232426
H	-1.752228	-1.549529	-1.691664
Cl	-4.309013	0.0	0.0
