17

C	0.0	0.0	0.0
C	-0.4141	0.047708	-1.554334
Cl	1.763891	0.0	0.0
H	0.455989	-0.37651	-2.060992
N	-0.601446	0.989443	0.774307
H	-1.610699	0.955425	0.589389
H	-0.45647	0.813967	1.761985
N	-0.29146	-1.436003	0.554867
O	-0.70559	-1.51263	1.705645
O	-0.035724	-2.3887	-0.174343
N	-0.587042	1.435044	-1.9661
H	-0.149368	2.053887	-1.294988
H	-1.581798	1.633816	-1.952509
N	-1.552081	-0.706433	-1.977624
H	-1.361597	-1.693172	-1.887302
H	-2.386505	-0.487236	-1.431134
Cl	-3.893173	0.0	0.0
