13
Coordinates from ORCA-job run
  C   -0.22964657081013      0.19040217279203      0.57928474571843
  C   0.78951923900851     -0.74166393084875     -0.08382603560446
  F   -0.20970841148736     -0.07247857416041      1.94143698031056
  H   0.79815325238700     -0.57129507870468     -1.16409328485264
  H   0.46954675111139     -1.77203444307505      0.09641162840975
  C   0.16248802306138      1.59733052455971      0.37995307147852
  N   0.45218689872546      2.71769586263555      0.18135113367688
  C   -1.63634773839389     -0.05168160589937      0.06592442003613
  H   -1.70566788972167      0.17171419434396     -1.00011757571142
  H   -1.90707620862573     -1.09534824586534      0.23786948040449
  H   -2.33482816292243      0.58706717313270      0.60744748343744
  C   2.13523506849958     -0.55470138963987      0.45312718868812
  N   3.21614574916789     -0.40500665927049      0.88323076400821
