13
Coordinates from ORCA-job run
  C   -0.20355093189899      0.29179322457501      0.69683743788437
  C   1.19626203819157     -0.07616999703016      0.18578255071660
  F   -0.35650933662361     -0.29126655804026      1.94681840261766
  H   1.93438750921116      0.24606600014406      0.92509303963362
  H   1.40129164366270      0.45376428402930     -0.74873495418009
  C   -0.25925097753441      1.75577020885677      0.87005379860101
  N   -0.29567032768862      2.92419726081291      0.97842385385393
  C   -1.32684004832630     -0.18900069891532     -0.19953530749328
  H   -1.24409388437903      0.25315311910629     -1.19419073740261
  H   -2.28516201821157      0.09468527921779      0.23653706025185
  H   -1.28157074210699     -1.27600791935815     -0.28063333948410
  C   1.31941195046038     -1.51600329484042     -0.02782527047336
  N   1.40229512524371     -2.67198090855781     -0.20962653452559
