13
Coordinates from ORCA-job run
  C   -0.23907537167560      0.21665381522931      0.55710337150304
  C   0.79457673848871     -0.76711555220905     -0.00048571089499
  F   -0.26296881926001      0.05909315712718      1.93542907425343
  H   0.46377428220291     -1.77924401523736      0.25002767298958
  H   0.83571715396972     -0.68169450291809     -1.08997792306952
  C   0.16707864759193      1.60285403425742      0.26310574961822
  N   0.46925009664074      2.70367594970780     -0.01127094240448
  C   -1.63036821692389     -0.06019477181173      0.01980307642233
  H   -2.34210106181037      0.62328171224535      0.48402869406380
  H   -1.91298259514385     -1.08511290559485      0.26790000092741
  H   -1.66401808531207      0.07516042095336     -1.06262878174647
  C   2.12505910329458     -0.54352664765336      0.55964664434108
  N   3.19505812793720     -0.36583069409598      1.00631907399657
