13
Coordinates from ORCA-job run
  C   -0.23488970715394      0.23881422603200      0.54341038360556
  C   0.80002839080873     -0.77427196355687      0.04382317948804
  F   -0.22402021271403      0.19618184704891      1.93025944466244
  H   0.48999894185697     -1.76670584766123      0.38360446895909
  H   0.81552198291764     -0.77767212199805     -1.04970740375782
  C   0.14343808088049      1.60093662358172      0.12574976104386
  N   0.42319678617296      2.67911659981928     -0.24518640853534
  C   -1.63422604905595     -0.09973608374940      0.06563483419790
  H   -2.34462445378217      0.61125080958232      0.48863108036211
  H   -1.69554735812395     -0.05607903636282     -1.02313721733067
  H   -1.89580883838933     -1.10372623101010      0.40531915290910
  C   2.13943051850421     -0.48822755961016      0.55170464433541
  N   3.21650191807839     -0.26088126211561      0.95689408006031
