13
Coordinates from ORCA-job run
  C   -0.18323202722608      0.28415700273087      0.71028864391077
  C   1.18072889491125     -0.21398092260927      0.21271925635220
  F   -0.44676141230705     -0.35644499082084      1.91261183947546
  H   1.92631759067161     -0.02794738686588      0.99047363269194
  H   1.47706386961290      0.34515145933044     -0.67941613936224
  C   -0.07346975658515      1.72998031629704      0.98119666608810
  N   0.02143897664501      2.88569041536563      1.16415010029784
  C   -1.32311039452858     -0.00022807740610     -0.24697232886914
  H   -1.15432084631808      0.49233794559597     -1.20647270686710
  H   -1.40253799323712     -1.07741605396841     -0.40099899832282
  H   -2.25632647250120      0.36689056486348      0.18135373137929
  C   1.14209552141608     -1.64214201362118     -0.09220505221431
  N   1.09411404944642     -2.78604825889175     -0.34772864455999
