13
Coordinates from ORCA-job run
  C   -0.23739304042775      0.27481764786718      0.69082663970619
  C   1.17060074483151     -0.23895895690947      0.35988633560715
  F   -0.66725338189213     -0.39412289190483      1.82816895612144
  H   1.81167734035390     -0.09130451444361      1.23314929537523
  H   1.59113272534566      0.33826137790044     -0.46872343808825
  C   -0.13833541654110      1.70940648142100      1.01912364856574
  N   -0.04465011065896      2.85658018519773      1.25022919846911
  C   -1.24752507316703      0.04296344369645     -0.41485258347403
  H   -0.94836292247554      0.56234566352463     -1.32712281552788
  H   -2.22249931341842      0.41474350777680     -0.09839290187684
  H   -1.32310113889164     -1.02685600225721     -0.61443269644884
  C   1.14578363842866     -1.65656626255693      0.00792211363514
  N   1.11092594851284     -2.79130967931216     -0.28778175206415
