13
Coordinates from ORCA-job run
  C   -0.31363196866480      0.19875738479692      0.78198238863660
  C   0.91408646730798     -0.71699744480283      0.68768405296260
  F   -0.87893882905401     -0.05418794169924      2.02694342696323
  H   0.57107494626067     -1.74857670834489      0.80918710527420
  H   1.59359759070530     -0.48771663105923      1.51268880695109
  C   0.10671579181018      1.61128324227600      0.75768945661872
  N   0.44314122389188      2.73568466857264      0.72550113372989
  C   -1.35101610664026     -0.07940112443834     -0.28618561117741
  H   -2.22595433504760      0.54867776809865     -0.11495284025573
  H   -0.95123000578059      0.12855192813058     -1.27967954070515
  H   -1.65048191400914     -1.12792595962989     -0.22820035924406
  C   1.60398543490892     -0.56817042079585     -0.58897194262760
  N   2.13665170431146     -0.44097876110452     -1.62668607712638
