13
Coordinates from ORCA-job run
  C   -0.29821088855165      0.22790613946436      0.77899238272462
  C   0.93476728324043     -0.68186303654604      0.69996280365936
  F   -0.81992173444406      0.04830038720527      2.05521506317343
  H   0.60645365038160     -1.70817901903663      0.88872369366785
  H   1.63602407480334     -0.40053767950978      1.48987236911102
  C   0.10653123324992      1.63945300069561      0.65305981066782
  N   0.42934577768592      2.76251921412479      0.53910499989588
  C   -1.36756330608367     -0.12439908260295     -0.23456847224430
  H   -1.00266228411835      0.02282650782552     -1.25196517670691
  H   -2.24190971038414      0.50729599665375     -0.07413226408922
  H   -1.65552674791053     -1.16897782671923     -0.10019599778921
  C   1.58511039897950     -0.59920809003778     -0.60342413843709
  N   2.08656225315168     -0.52513651151689     -1.66164507363325
