13
Coordinates from ORCA-job run
  C   -0.23022573996876      0.23364862741570      0.54965665952903
  C   0.80679497453790     -0.75760613377632      0.01256986965620
  F   -0.18172867770802      0.17892117103861      1.93514722947505
  H   0.51907316209569     -1.75908905993697      0.34563143348912
  H   0.79684844833905     -0.74616160605432     -1.08089133270156
  C   0.11490630421769      1.60574637592256      0.13541066244476
  N   0.36903671455243      2.69263844335781     -0.22851962811538
  C   -1.63630223812624     -0.12385848927163      0.10648261905259
  H   -1.72512636451831     -0.08168464175088     -0.98053910040693
  H   -1.87449584738950     -1.13150820167222      0.45276053588550
  H   -2.34642715063945      0.57677013204967      0.54703650294988
  C   2.15314156142008     -0.46071103704830      0.49596043116889
  N   3.23450485318747     -0.22810558027371      0.88629411757284
