13
Coordinates from ORCA-job run
  C   -0.26195567632501     -0.18621091314093     -0.22847262290361
  C   0.78047534723027     -0.65124323059074      0.49439262075501
  H   0.92083578547291     -1.72499017759816      0.55199216227293
  C   -0.63872117583960      1.23677638187901     -0.47384886045404
  H   0.13201623406271      1.91195932085120     -0.09615116692290
  H   -1.58885507266656      1.48783766181046      0.00280517121777
  H   -0.75372530140965      1.42556866758670     -1.54226499985388
  N   -1.13790822860499     -1.18414429404222     -0.82484083781710
  O   -2.12852815635199     -0.75054339854383     -1.42094879624639
  O   -0.86911401888970     -2.38071060235534     -0.71136079130660
  N   1.74373287447767      0.10549417052647      1.10824591438698
  H   1.52483129615125      1.06519040547592      1.31762111915239
  H   2.27791609269270     -0.35598399185852      1.82383108771945
