13
Coordinates from ORCA-job run
  C   -0.28603137989535     -0.17516140757959     -0.20780127123668
  C   0.83608330409276     -0.67040468455898      0.35874309975457
  H   1.08105398822394     -1.71090149751215      0.17618863716785
  C   -0.83905683750239      1.20469893516692     -0.07760250444213
  H   -0.78853786462667      1.74914808116489     -1.02325088879198
  H   -0.29451519223508      1.76964875104965      0.68192349360720
  H   -1.88820946966342      1.17147280431967      0.21968528175552
  N   -1.03797677175112     -1.08053714702176     -1.06456357088550
  O   -2.01973831870845     -0.59743394499617     -1.63665521906861
  O   -0.67519411135944     -2.25125057510580     -1.18569252864558
  N   1.66940549231409     -0.00702332516722      1.22116037088754
  H   2.58809221934289     -0.39942314129222      1.33328870938476
  H   1.65662494176824      0.99916715153275      1.20457639051305
