13
Coordinates from ORCA-job run
  C   -0.23740225349545      0.12866945415507     -0.15541779279594
  C   1.00240688889193      0.10360460713129      0.41060003086095
  H   1.51558325208315      1.05969811918178      0.47405289338352
  C   -0.89174156674845      1.37274413056118     -0.66540719471771
  H   -0.22415608732012      2.22585276983783     -0.53035929590705
  H   -1.82785702646646      1.57230653356030     -0.13963179378422
  H   -1.13301000970381      1.28393130921254     -1.72687515457705
  N   -1.01556648436896     -1.07226779292926     -0.27147917123345
  O   -0.53505731137435     -2.14621265081532      0.13054410859500
  O   -2.14037901417145     -0.97649057460804     -0.77040270187315
  N   1.72560021154831     -0.95211519634929      0.85300826957374
  H   1.24408956611493     -1.83190477350256      0.94908080652886
  H   2.51648983501072     -0.76781593543553      1.44328699594651
