13
Coordinates from ORCA-job run
  C   -0.28611680142652     -0.19300325810316     -0.19085924539951
  C   0.71881878543626     -0.63755795952957      0.59527554680543
  H   0.74593816639190     -1.69447341035721      0.83635407708789
  C   -0.51494471518751      1.19914352667625     -0.67716257801106
  H   -0.63771547995366      1.21223097349921     -1.76116972430680
  H   0.33322289344605      1.84068352508032     -0.42904176500865
  H   -1.41985169844973      1.63156743756711     -0.24438624253261
  N   -1.27680659212931     -1.17707926238607     -0.60125425558511
  O   -1.13694621201999     -2.35759912686314     -0.27902468274158
  O   -2.22652532496478     -0.74840063632041     -1.26378522302754
  N   1.77093863606848      0.10484543915771      1.06355642614823
  H   2.27208203489689     -0.28414088118721      1.84325410085650
  H   1.65790630789191      1.10378363276618      1.10924356571480
