13
Coordinates from ORCA-job run
  C   -0.28774865398787     -0.19383968308184     -0.18748033270694
  C   0.69493901649892     -0.62889490149752      0.63131695083234
  H   0.69701294059802     -1.67672724673487      0.91071020996172
  C   -0.47828235376380      1.18325319340178     -0.72995810717162
  H   -0.57885314664725      1.15799822778669     -1.81606159735219
  H   0.37806554469465      1.81627962825038     -0.48825533817863
  H   -1.38244650081390      1.65008449824831     -0.33292471452332
  N   -1.29050842344608     -1.17314347640558     -0.58062038147133
  O   -1.18194816442754     -2.34264023976881     -0.20987347212579
  O   -2.21759988243437     -0.75151468058565     -1.27870036555045
  N   1.75532051778166      0.10877424620424      1.08948838699397
  H   1.66101751009574      1.11073222341883      1.09784681550416
  H   2.23103159585182     -0.26036178923595      1.89451194578808
