13
Coordinates from ORCA-job run
  C   -0.34059097758842     -0.16160792464242     -0.11646186659619
  C   0.55943578837555     -0.55042770299562      0.81329489750191
  H   0.40450219528109     -1.50605511256639      1.30191675228425
  C   -0.35387395860266      1.11104202952035     -0.89565632494088
  H   0.41056210533802      1.79881999426224     -0.52800525112083
  H   -1.32120769397096      1.60755924103234     -0.80564030949854
  H   -0.18059408129932      0.93157046140762     -1.95909315712720
  N   -1.41520444084992     -1.09669030498176     -0.41441425572597
  O   -2.19173273744973     -0.76320098122684     -1.31469350887272
  O   -1.50311301345720     -2.14994433176111      0.21802969097441
  N   1.62224221003568      0.18330078012687      1.27005601563242
  H   2.34368171987469     -0.33164424520377      1.74396262709452
  H   1.96689288431318      0.92727809702849      0.68670469039482
