13
Coordinates from ORCA-job run
  C   -0.34282910629227     -0.15775292023971     -0.11551816164736
  C   0.57312009580152     -0.57631092124874      0.78527193493550
  H   0.42553641312840     -1.54658266297853      1.24651477948985
  C   -0.36836729431075      1.13919096945369     -0.85330689629490
  H   0.40104899067861      1.81559817385254     -0.47515197626264
  H   -0.21276937736078      0.99481349080918     -1.92474562991984
  H   -1.33444272627644      1.63139800289430     -0.73120447674600
  N   -1.42394693625227     -1.08205737989881     -0.42335647065702
  O   -1.50069976197858     -2.15557176216375      0.17562267294379
  O   -2.21757558944579     -0.71867421032106     -1.29673712193055
  N   1.64558383970192      0.14144687181353      1.24440843081434
  H   1.98143183187064      0.90250188833900      0.67825930425153
  H   2.37390962073580     -0.38799954031166      1.69094361102331
