13
Coordinates from ORCA-job run
  C   -0.34002147526720     -0.16745393711279     -0.10894509700867
  C   0.68918074328786     -0.63707097727040      0.62966301432433
  H   0.65982000840629     -1.67565567799019      0.94015406200250
  C   -0.53420307024377      1.21999083827906     -0.62282636567824
  H   -0.47442664708173      1.25673548990725     -1.71284453693076
  H   0.21685945170183      1.89531382411572     -0.20760064786485
  H   -1.51721762251064      1.60013474904047     -0.34075632204313
  N   -1.37636712577295     -1.12522072002991     -0.46604144976996
  O   -1.31491421874098     -2.27993355353522     -0.04206105305150
  O   -2.27644336713245     -0.70388484801482     -1.19879753802110
  N   1.74613218321139      0.09432476225177      1.10496201346284
  H   2.55314865779222     -0.43308267152716      1.38969396355803
  H   1.96845248235013      0.95680272188622      0.63639995702051
