13
Coordinates from ORCA-job run
  C   -0.18077137736045      0.15200729400526     -0.22087968795311
  C   0.76025128595148      0.10123120360625      0.75968420250576
  H   1.11180327451614      1.05738622371758      1.13983420446324
  C   -0.82857250154739      1.41524676823187     -0.69516713520075
  H   -0.22145059768426      2.27892559753857     -0.41616717574014
  H   -0.92951202140825      1.40920267127738     -1.78000085996074
  H   -1.82555667906825      1.53852327516173     -0.26280765843258
  N   -0.63707157045699     -1.07208714663522     -0.83277987183244
  O   -1.20939758805626     -0.99583836819746     -1.92240080313363
  O   -0.43695379304984     -2.14290668125382     -0.23775608277844
  N   1.33871345253139     -0.97971498930620      1.33143224682135
  H   0.96558083552915     -1.89633764072092      1.15782982456867
  H   2.09393728010354     -0.86663820742503      1.97917879667281
