13
Coordinates from ORCA-job run
  C   -0.23369389197087      0.13184421134500     -0.15512162277426
  C   0.91063554147075      0.10594447691396      0.57774937645176
  H   1.37163056125922      1.07173562387130      0.76887150504198
  C   -0.84769422595614      1.38091252685906     -0.70816516203151
  H   -0.96104937811138      1.30625720441630     -1.79243147770607
  H   -0.20682362124371      2.23780267098275     -0.49149810358268
  H   -1.83751607371533      1.56746268688110     -0.28975115735297
  N   -0.97541749551375     -1.08017662027602     -0.39057274276822
  O   -0.42563167385229     -2.16507123109478     -0.14722991271213
  O   -2.11704586882897     -0.98013999061947     -0.84493092205524
  N   1.52743989239927     -0.94016444650360      1.19694019651571
  H   2.48830939946641     -0.78690583695780      1.45289170248827
  H   1.30785683459679     -1.85050127581780      0.82224832048538
