13
Coordinates from ORCA-job run
  C   -0.25403466862880     -0.16756751970154     -0.25133333377235
  C   0.80381532029242     -0.67559641398953      0.41819180501217
  H   0.98456990204198     -1.74258699744712      0.34914063379401
  C   -0.68337217803281      1.25949969570248     -0.32838368616946
  H   -1.64103963838218      1.41826617801480      0.17238759411143
  H   0.06310268553370      1.91370894718940      0.12693906506214
  H   -0.80770735013894      1.56806677006807     -1.36745422132997
  N   -1.09081060319727     -1.11940099490329     -0.96691221608146
  O   -2.09397119577480     -0.65482200756982     -1.51688207651460
  O   -0.77942231587122     -2.31077656675643     -0.99144344342301
  N   1.73466502349269      0.03896307785914      1.12529288123598
  H   2.28600311404223     -0.48473644944345      1.78260062144429
  H   1.47820190462300      0.95698228097727      1.44785637663083
