13
Coordinates from ORCA-job run
  C   -0.27387905963436     -0.20167953622385     -0.20005698593493
  C   0.63004487186370     -0.59862923376511      0.72244468615756
  H   0.58709482100784     -1.62594789473523      1.06695243689721
  C   -0.39607937870824      1.14222841390373     -0.83721782807145
  H   -1.32029491560028      1.64365994488541     -0.54155439864015
  H   0.44961371029005      1.77781393216595     -0.56628381000767
  H   -0.41119194071130      1.05235751207156     -1.92446262015721
  N   -1.26242021116304     -1.18805245929055     -0.60992154992241
  O   -2.12705591473244     -0.79543933543443     -1.39925716912317
  O   -1.20275522083820     -2.33558243794142     -0.16633940802844
  N   1.66254932530477      0.15098047757940      1.22080861199648
  H   2.06927394012809     -0.17331715378071      2.08081760104420
  H   1.59409997279341      1.15260777056524      1.15307043378999
