13
Coordinates from ORCA-job run
  C   -0.28296717610636     -0.20962947504787     -0.17824494668786
  C   0.59674891622717     -0.54215693936963      0.79190096926429
  H   0.50371652808769     -1.52160785603846      1.24793890091187
  C   -0.33638883309243      1.05812952824247     -0.96365476494380
  H   -1.23520833428861      1.63499920414686     -0.73464962951628
  H   -0.35285722800930      0.84660528211204     -2.03386321461776
  H   0.53937523277057      1.67753045743609     -0.75897563925391
  N   -1.31540082157043     -1.18833745836475     -0.48566336729076
  O   -2.15189119367207     -0.84936119531919     -1.32825166235213
  O   -1.31690731893419     -2.27750147465631      0.08940701004206
  N   1.66152311698605      0.20965921126140      1.21309836537169
  H   1.63999068451300      1.19992114744221      1.03593993382610
  H   2.05126642708890     -0.03725043184486      2.10601804524648
