13
Coordinates from ORCA-job run
  C   -0.22178909173178      0.13391899473559     -0.17355103853854
  C   0.77946477510360      0.11050104098211      0.75110946162505
  H   1.14583860966191      1.07922486189712      1.08092619500072
  C   -0.80293349032708      1.39153898476992     -0.73609171436874
  H   -1.87659958211731      1.44942313185396     -0.54458512713422
  H   -0.32116677817022      2.25931249673422     -0.28151781742606
  H   -0.66683343459495      1.44113359084458     -1.81846678020801
  N   -0.76587603505342     -1.08728448935519     -0.69675719954409
  O   -0.33069034039487     -2.17334715608805     -0.27625233549498
  O   -1.65123553167189     -0.99616747480862     -1.55189342290687
  N   1.34924184032300     -0.94663470070969      1.37559696342422
  H   1.14791897740281     -1.86354817412155      1.01014458387263
  H   2.21466008157019     -0.79907110673439      1.86233823169891
