13
Coordinates from ORCA-job run
  C   -0.25656584825902      0.12813418938917     -0.12218517350175
  C   0.81171968834408      0.06469067805808      0.72191762799424
  H   1.03237144408523      0.97086473665098      1.28016570810433
  C   -1.09527400052672      1.35190492360502     -0.30905856553994
  H   -1.06594024368641      1.69797170783016     -1.34439721317425
  H   -2.14143795119842      1.15324356878202     -0.06657591205794
  H   -0.73379132871241      2.15252665729283      0.33907618240542
  N   -0.62480478376862     -1.00312457969666     -0.92632037573908
  O   -1.58373411727092     -0.86981081768642     -1.69188737073725
  O   0.02722120630450     -2.05672057362591     -0.82416205966316
  N   1.60839158616541     -0.98785780215738      1.02489301347161
  H   2.48038928116301     -0.80031867598385      1.48586435519862
  H   1.53945506736029     -1.80150401245804      0.43466978323914
