13
Coordinates from ORCA-job run
  C   -0.30060540354276     -0.19554776681053     -0.16370070807546
  C   0.84919355537847     -0.63300961486932      0.39467709029134
  H   1.06919534753045     -1.69354364895676      0.34208824557429
  C   -0.82835616097404      1.20000057997640     -0.18909296695807
  H   -0.83196047412475      1.61043093769884     -1.20136749303419
  H   -1.85684139845535      1.22748034385044      0.17382821025675
  H   -0.23046478947120      1.85148639104033      0.45179840579809
  N   -1.11662297936741     -1.19308510570476     -0.84126215255774
  O   -0.77800457353829     -2.37706706262737     -0.82080053395477
  O   -2.12561535001440     -0.77147858370298     -1.41459837235517
  N   1.74369552981279      0.12417576877361      1.10563838454836
  H   2.66284178278300     -0.26840313770860      1.21358625841731
  H   1.74254491398346      1.11856089904073      0.95020563204926
