13
Coordinates from ORCA-job run
  C   -0.21007842490309      0.14337388820078     -0.18050992217671
  C   0.90101718734317      0.06881960116850      0.60565566080278
  H   1.53823574294946      0.94935396001876      0.61436433481403
  C   -0.56465487813953      1.33993265827110     -1.00422009324236
  H   0.18088228558776      2.12424606465350     -0.86014496974002
  H   -1.54379095054302      1.73458769004226     -0.72433114973131
  H   -0.61098218717189      1.09018783023435     -2.06630981278238
  N   -1.11076817253010     -0.96953096379327     -0.28538130409447
  O   -2.08316963786479     -0.84653887809980     -1.03563981015764
  O   -0.87914081922140     -2.00000052366087      0.37046450272551
  N   1.30210934450175     -0.92120902535559      1.43755478578043
  H   0.82999640944994     -1.80790410298287      1.36067830187204
  H   2.25034410054175     -0.90631819869686      1.76681947593011
