13
Coordinates from ORCA-job run
  C   -0.35382299464055     -0.16520005809291     -0.07079612104366
  C   0.70597030684439     -0.60223182574572      0.64430308871965
  H   0.67055368962014     -1.61093581273878      1.04099300328240
  C   -0.53716110313769      1.17960406428015     -0.69174953794211
  H   -1.51005060263431      1.59561986728811     -0.42668012381810
  H   -0.49434007244070      1.12855871695183     -1.78230748107682
  H   0.22983128429397      1.87410169480785     -0.34240899960603
  N   -1.42681113067012     -1.12099765794241     -0.29809530152680
  O   -2.34562997377561     -0.74360939933113     -1.03142127813238
  O   -1.37754580860159     -2.23264272629862      0.23024514567165
  N   1.80512546375275      0.13595381880273      0.99694724161519
  H   2.02137360227982      0.94960475442635      0.44559719652886
  H   2.61350733910950     -0.38782543640746      1.28437316732815
