13
Coordinates from ORCA-job run
  C   -0.24718617044477      0.18194493245952     -0.08099914034331
  C   0.78724081564574      0.07005370461060      0.77016718535294
  H   1.06991293270651      0.94411410918897      1.34968598943901
  C   -1.03479345614662      1.40390685703827     -0.41184017623486
  H   -2.08265291193041      1.29491699470202     -0.11934272725412
  H   -0.61617160018935      2.26790283271340      0.10712993983226
  H   -1.00240616792179      1.60404480247688     -1.48678667197231
  N   -0.66076843249037     -1.02739528770160     -0.79431979860798
  O   -1.80709510173948     -1.42692758607411     -0.59464895686248
  O   0.15196940975571     -1.55266980185483     -1.56098856212898
  N   1.49464252073890     -1.09003717738571      1.03968272578945
  H   2.36443270406959     -0.94732029539337      1.52231305738891
  H   1.58187545794635     -1.72353408478005      0.25994713560147
