13
Coordinates from ORCA-job run
  C   -0.21978585533694      0.14929804325227     -0.16270578090223
  C   0.74027007944050      0.02712170930137      0.79721144303792
  H   1.03846950482792      0.94739578711217      1.29278778517989
  C   -0.84834866160701      1.45054461879853     -0.54695481831107
  H   -0.43273983527254      2.25744998155487      0.05961868037329
  H   -0.67414583915620      1.67820899856246     -1.60068709105759
  H   -1.93004961475695      1.42494613826685     -0.39854529701015
  N   -0.67555717229148     -0.99835043766350     -0.89509877800598
  O   -1.53032570171655     -0.81562258783862     -1.76659388170594
  O   -0.19760522206156     -2.11503642441816     -0.62973219624109
  N   1.34044357214569     -1.08782437799383      1.27674748083041
  H   1.20828662523569     -1.94178148890440      0.75872298105195
  H   2.17908812054943     -0.97634996003002      1.81722947276057
