13
Coordinates from ORCA-job run
  C   -0.35243910138279     -0.15195238887822     -0.09460283543105
  C   0.56936010616348     -0.53480526924333      0.81610106413050
  H   0.39490261447356     -1.45800307811903      1.35763356507101
  C   -0.34484536557874      1.08225656242559     -0.93339000898483
  H   0.45354873983964      1.75795534484626     -0.61941209405286
  H   -0.21062987204472      0.84867389889437     -1.99195484030439
  H   -1.29108839389278      1.61706129858479     -0.83870685748665
  N   -1.47588164745301     -1.05293531289263     -0.30336246867829
  O   -1.58572546166975     -2.06525508009022      0.38966220136857
  O   -2.26911351852381     -0.73462403782235     -1.19452622255799
  N   1.68134670759824      0.17165139385047      1.19046081745931
  H   2.03378667064353      0.86990704737862      0.55755976284324
  H   2.39777852182715     -0.34993037893432      1.66453791662343
