18

C	-0.473855	0.056859	-1.422677
C	0.0	0.0	0.0
Br	-2.40723	0.247853	-1.628351
H	1.0935	0.0	0.0
N	0.144579	1.21808	-2.210875
O	0.851938	2.004413	-1.604534
O	-0.121769	1.247787	-3.40843
N	0.001468	-1.182378	-2.174702
O	-0.748578	-2.148527	-2.235669
O	1.153589	-1.126172	-2.58158
C	-0.42844	-1.277571	0.700589
H	-0.044363	-2.167998	0.201858
H	-1.518466	-1.367931	0.793015
H	0.018137	-1.254614	1.698145
N	-0.467437	1.205491	0.68568
H	-1.016977	0.953271	1.497815
H	0.362233	1.697373	0.994323
F	2.566757	0.0	0.0
