18

C	-0.494362	-0.000846	-1.41363
C	0.0	0.0	0.0
Br	-2.433989	0.167712	-1.590024
H	1.098529	0.0	0.0
N	0.102956	1.133204	-2.25542
O	-0.209465	1.131631	-3.442404
O	0.847979	1.923197	-1.699357
N	-0.026558	-1.266471	-2.126432
O	-0.771743	-2.238794	-2.137836
O	1.118203	-1.217432	-2.560465
C	-0.414102	-1.24554	0.764853
H	-1.501602	-1.328962	0.889459
H	-0.044361	-2.158066	0.295496
H	0.058928	-1.179504	1.748392
N	-0.453011	1.238415	0.636031
H	-1.02317	1.026681	1.44604
H	0.383757	1.720631	0.944727
F	2.560915	0.0	0.0
