18

C	-0.370971	-0.011118	-1.477057
C	0.0	0.0	0.0
Br	0.639396	1.282119	-2.461948
H	1.09431	0.0	0.0
N	-0.092122	-1.404511	-2.037124
O	1.085453	-1.694932	-2.210067
O	-1.068169	-2.116827	-2.260474
N	-1.849306	0.21334	-1.824018
O	-2.644495	0.179917	-0.888018
O	-2.132497	0.449336	-2.992091
C	-0.457046	-1.25145	0.747237
H	0.01602	-2.150537	0.345507
H	-0.103569	-1.144904	1.776627
H	-1.542619	-1.38827	0.759934
N	-0.451359	1.261172	0.555266
H	0.231948	1.575844	1.236523
H	-1.357297	1.159397	1.004997
F	2.53989	0.0	0.0
