18

C	-0.357984	0.00739	-1.470945
C	0.0	0.0	0.0
Br	-2.263885	0.33547	-1.85637
H	1.094498	0.0	0.0
N	0.384333	1.074383	-2.285955
O	0.88554	2.006225	-1.675276
O	0.393926	0.914195	-3.502423
N	0.065645	-1.31178	-2.109016
O	-0.781437	-2.173039	-2.310305
O	1.271838	-1.414779	-2.282694
C	-0.485203	-1.277261	0.663243
H	-0.191519	-1.207226	1.711277
H	-1.575941	-1.398777	0.608607
H	-0.009331	-2.163464	0.241307
N	-0.48277	1.1483	0.739742
H	-0.008044	1.976572	0.409943
H	-1.486352	1.266315	0.629274
F	2.565243	0.0	0.0
