14
Coordinates from ORCA-job run
  C   0.76998483125582      0.47108963697280     -0.03749278156995
  C   -0.65678002904820      0.25570597708831     -0.56184979578296
  F   0.70866740701111      1.29167343072777      1.07169951624243
  H   -0.61769823070199     -0.28065836751856     -1.51242849657261
  H   1.30890772054040      1.01696795337895     -0.81905050681329
  C   1.47991498636135     -0.81093719911710      0.32743461910458
  H   1.00049106576621     -1.27961251288203      1.18751006507830
  H   1.47617560408327     -1.51750070075797     -0.50439656004318
  H   2.51234814424946     -0.58224302976709      0.59347656386966
  C   -1.36829434531554      1.51864915875113     -0.71427525629084
  N   -1.91179820258773      2.54418476624266     -0.88810119896924
  N   -1.40651926823807     -0.64925615681385      0.38393212253570
  O   -1.39292895132549     -1.84250085026546      0.09464221792883
  O   -1.90247073205058     -0.13656210603955      1.37889949128259
