14
Coordinates from ORCA-job run
  C   0.75987355411297      0.43280636550779     -0.22117680104038
  C   -0.72150615019917      0.15864017645327     -0.51606514111505
  F   0.83776734807358      1.45032216636498      0.71009310814294
  H   -0.80340610277318     -0.55505188103946     -1.33865493383663
  H   1.19821505159529      0.80725334163387     -1.15251304051038
  C   1.50883904946937     -0.77368460040574      0.29328803584919
  H   2.56594694788392     -0.52190997224878      0.38486842873151
  H   1.13817618724447     -1.06094071371441      1.27787019626500
  H   1.40436317722941     -1.62418250982298     -0.38268214165891
  C   -1.44124070309824      1.38725609581961     -0.82779627087825
  N   -1.99714057466394      2.37562601774796     -1.12980509314796
  N   -1.35116550388913     -0.52037645386610      0.67495912487539
  O   -1.72591266182650      0.19263620180701      1.59695275915887
  O   -1.37380961915884     -1.74739423423704      0.63166176916467
