14
Coordinates from ORCA-job run
  C   0.54189465221446     -0.56604090007157     -0.16909449907608
  C   -0.69289091216530      0.33178221586775     -0.15491233107937
  F   0.56428002627039     -1.15721962148488     -1.42502190009884
  H   -0.64389961128747      1.05997402002054     -0.96722910550905
  H   0.40384211559159     -1.36265247887325      0.56579691895950
  C   1.82075605323114      0.20345922495413      0.05122948218138
  H   2.66736161808641     -0.47644480251993     -0.05142998786392
  H   1.92281471228608      0.99570255536829     -0.69333955095448
  H   1.84830838999626      0.64347138518995      1.04954656162129
  C   -0.86288323808377      0.98891668181669      1.13389381769332
  N   -0.96364890588189      1.51960004621670      2.17653307085586
  N   -1.91288829767156     -0.51980177026531     -0.43710278275542
  O   -2.57105364380476     -0.22273165832611     -1.42569646410453
  O   -2.12199295878160     -1.43801489789300      0.34582677013033
