14
Coordinates from ORCA-job run
  C   0.72606734961360      0.53221143379037     -0.04703833057471
  C   -0.59921899838518      0.07185341619413     -0.67063206867636
  F   0.45415370110690      1.53456387931158      0.86374768602707
  H   -0.39512031321325     -0.63091051020586     -1.48130701176015
  H   1.31346723408127      0.97618600314468     -0.85786159106967
  C   1.48935140613821     -0.57441215547606      0.64144147309023
  H   1.65702310388884     -1.41853815971912     -0.02966347926116
  H   2.45375185387973     -0.18644459469428      0.97104084097743
  H   0.94362255425908     -0.92631455671311      1.51755206450909
  C   -1.38406926517360      1.20087339692054     -1.15405844915844
  N   -1.97834294673277      2.11696167475296     -1.58397107588253
  N   -1.38891300649626     -0.70633322497743      0.35241198480058
  O   -1.23530216235570     -1.92426702260880      0.32172425726134
  O   -2.05647051061087     -0.06642957971958      1.15461369971729
