13
Coordinates from ORCA-job run
  C   0.23367003492857      0.81989920831362      0.15342872228920
  C   -0.00971334597027     -0.65773506992874     -0.26430889446143
  Br  -1.47678906848572      1.75292345112526      0.32398662275986
  H   0.95207595698678     -1.18096557543734     -0.24209293685400
  C   1.01726216699811      1.46091679479510     -0.90156898583707
  N   1.66045526030576      1.94854606764767     -1.75743902224862
  C   0.95598981779101      0.91509229469057      1.42083093713512
  N   1.56638467492174      1.03737062334318      2.41889338900857
  C   -0.61843395588984     -0.74459883959452     -1.58157363255588
  N   -1.06873629078685     -0.82325651680995     -2.66412172389594
  N   -0.87514192891737     -1.35003801019972      0.77736667502734
  O   -0.30826229638427     -1.56261658024930      1.84229862789821
  O   -2.02876102549764     -1.61653784769582      0.47430022173464
