13
Coordinates from ORCA-job run
  C   0.37400858200411      0.77929567142885     -0.06147210791876
  C   -0.09543362586276     -0.69176033059230      0.11922263416875
  Br  -0.42294069113062      1.53747889377743     -1.67860556853615
  H   0.27284664780455     -1.05069623333602      1.08606416508263
  C   1.82840553593046      0.77164762605285     -0.21228067462383
  N   2.99985152967966      0.74253637404062     -0.31712374083602
  C   0.00916492849192      1.60999992654610      1.08490302934242
  N   -0.23454798082470      2.30109083649640      2.00493166603378
  C   0.37823469501839     -1.53786289293500     -0.96382222812292
  N   0.79676857872853     -2.23627445851632     -1.81112600918187
  N   -1.61249897200587     -0.73886792062319      0.21727725550232
  O   -2.23072240199536     -1.20369175272594     -0.72913191302660
  O   -2.06413682583831     -0.28389573961347      1.26116349211626
