13
Coordinates from ORCA-job run
  C   0.37485821012018      0.73230853473580      0.38938119317255
  C   -0.10555825093090     -0.72934133400880      0.19186332170095
  Br  -0.42478244492961      1.43682208829942      2.03126796350093
  H   0.23059672129127     -1.32916959239947      1.04065431971061
  C   0.02762889153890      1.60351645909558     -0.73061797823639
  N   -0.19085285934852      2.33103223076024     -1.62871047245764
  C   1.82686511230808      0.69871194673454      0.55811459314284
  N   2.99390287402259      0.63670245684884      0.69149096527407
  C   0.39035922593820     -1.26251594546195     -1.06978411827624
  N   0.80597741869543     -1.69076811832546     -2.08250593655760
  N   -1.62027452154723     -0.79351268187786      0.20084234050649
  O   -2.11879825410509     -1.50526090064629      1.06250300079154
  O   -2.19192212305331     -0.12852514375459     -0.65249919227209
