13
Coordinates from ORCA-job run
  C   0.63603413837207      0.69475722251335      0.14052086396066
  C   0.13904139831938     -0.76349672886576      0.02497525790999
  Br  2.57183825631249      0.64118729074714     -0.20185308853884
  H   0.66807132420525     -1.38387657078915      0.75430462596008
  C   0.43677422031077      1.19097495787956      1.49935620460594
  N   0.30827383624138      1.55690543443130      2.60947232478954
  C   0.01772506127909      1.56106847570941     -0.85698409739195
  N   -0.45083225067789      2.24835580933594     -1.68813155196767
  C   0.30491512761215     -1.29776941189983     -1.31950902218540
  N   0.42553401893125     -1.72780467163266     -2.40653714712730
  N   -1.34100827034076     -0.87298922881369      0.39487111865769
  O   -1.96264143551711      0.17072624849544      0.54443503431345
  O   -1.75272542504807     -2.01703882711105      0.50507947701380
