13
Coordinates from ORCA-job run
  C   0.71937828819388      0.60904026950078      0.04031600973889
  C   0.07364667680961     -0.79776571231111     -0.01985472027130
  Br  2.59988754984503      0.37696782121755     -0.47402229600955
  H   0.66355518244558     -1.48747628049568      0.58729345215016
  C   0.66843320245263      1.10282200099286      1.41415551398677
  N   0.61220075816361      1.46086284509271      2.53321553371158
  C   0.10916914847863      1.55643984770068     -0.88676071447835
  N   -0.33253020351753      2.33327269797869     -1.65148729620993
  C   -0.05963537893135     -1.27338880018997     -1.38853166240509
  N   -0.17476176670667     -1.66706570495374     -2.48993795561486
  N   -1.30379975763301     -0.74884188633092      0.62581810970500
  O   -2.05423998353165      0.13295770140919      0.22918788696477
  O   -1.52130371606876     -1.59782479961103      1.47960813873192
