14

C	-0.37249	0.263965	-1.467232
C	0.0	0.0	0.0
Br	-0.504832	-1.530853	-2.49788
H	1.094341	0.0	0.0
H	-1.392796	0.631094	-1.565561
N	0.563565	1.141241	-2.004233
H	1.523399	0.862273	-1.814699
H	0.415653	1.362741	-2.976982
C	-0.532804	-1.240799	0.556585
N	-1.035034	-2.155122	1.097827
N	-0.435953	1.161585	0.787154
H	0.356248	1.496849	1.32053
H	-1.172909	0.903286	1.429816
Br	3.479147	0.0	0.0
