14

C	-0.330927	0.110791	-1.50056
C	0.0	0.0	0.0
Br	-0.179829	-1.714529	-2.395204
H	1.097505	0.0	0.0
H	-1.383046	0.349164	-1.674785
N	0.522657	1.083386	-2.054241
H	0.396875	1.193578	-3.050561
H	1.497878	0.874157	-1.838095
C	-0.572256	-1.181244	0.640901
N	-1.088949	-2.084409	1.185268
N	-0.413641	1.1927	0.735918
H	0.214406	1.942011	0.471333
H	-1.355191	1.462038	0.466413
Br	3.48028	0.0	0.0
