14

C	-0.547585	-0.007456	-1.424873
C	0.0	0.0	0.0
Br	0.22849	1.611699	-2.375393
H	1.09771	0.0	0.0
H	-0.128377	-0.830362	-2.001809
N	-1.955012	-0.016363	-1.41605
H	-2.349798	0.099161	-2.338782
H	-2.280757	0.711386	-0.790437
C	-0.452175	-1.230713	0.658824
N	-0.792168	-2.218289	1.195656
N	-0.554063	1.163736	0.721183
H	0.046489	1.947933	0.482903
H	-0.42682	1.00547	1.714683
Br	3.504147	0.0	0.0
