14

C	-0.513741	0.034368	-1.439201
C	0.0	0.0	0.0
Br	-0.046503	1.712031	-2.298969
H	1.094371	0.0	0.0
H	0.02621	-0.724804	-2.016385
N	-1.96542	-0.097474	-1.457624
H	-2.304316	0.055676	-2.399601
H	-2.197853	-1.051343	-1.195668
C	-0.432489	-1.307982	0.547166
N	-0.855701	-2.316443	0.980128
N	-0.476423	1.123528	0.778314
H	-1.451327	1.010916	1.019984
H	0.083728	1.209807	1.61551
Br	3.496613	0.0	0.0
