14

C	-0.411444	-0.056278	-1.461982
C	0.0	0.0	0.0
Br	-2.476403	0.119883	-1.605977
H	1.096525	0.0	0.0
H	-0.095397	0.855486	-1.970042
N	0.085647	-1.182697	-2.108181
H	-0.141866	-2.055526	-1.658605
H	-0.102649	-1.208697	-3.097899
C	-0.457456	-1.199533	0.704598
N	-0.763599	-2.169194	1.29268
N	-0.510485	1.203446	0.670402
H	-0.151122	1.176434	1.620343
H	-0.032435	1.988344	0.233294
Br	3.510791	0.0	0.0
