16
Coordinates from ORCA-job run
  C   -0.30157456623911     -0.63176472515230     -0.27608483972582
  C   1.00344901568638      0.05283262896963      0.17356313893396
  Br  0.12560028979486     -2.13213875512529     -1.43784019890444
  H   1.64991280256558     -0.72569068688524      0.58387468937369
  C   -1.28634725096721      0.29663487727097     -0.93714534474973
  H   -2.19274902476714     -0.23661965991191     -1.21309880818086
  H   -0.83405259943794      0.72351612782844     -1.83323206911613
  H   -1.54349298175807      1.09355132936700     -0.23790877638437
  N   -0.90147150280190     -1.23463447836834      0.99208431644018
  O   -2.12080843974929     -1.22816309308881      1.09387714339990
  O   -0.11267078713411     -1.70355551579658      1.80599446536477
  N   0.66028994435215      1.04160097943327      1.18898353133025
  H   1.12140093568387      0.83908102378125      2.06454772854852
  H   0.86808373074513      1.98544261133369      0.89685226775356
  C   1.67332440906565      0.65522419366592     -0.98179898508215
  N   2.19110602496114      1.20468314267830     -1.88166825900132
