16
Coordinates from ORCA-job run
  C   -0.37300468351563     -0.50200342431307      0.06818171261641
  C   0.65703962789110      0.64203511272127      0.11945968928966
  Br  0.48114088104313     -2.16399271452680      0.56366331262441
  H   0.11283619420599      1.54693287317506     -0.16358041862087
  C   -1.03047320287158     -0.62527690435438     -1.29165797380116
  H   -1.76493749316437     -1.43224427839649     -1.28058419706765
  H   -0.26715641746502     -0.83066493980708     -2.03932907444384
  H   -1.52989133124409      0.31626159074313     -1.53257438736376
  N   -1.47584739540364     -0.16516046296972      1.07705261496625
  O   -1.90339669259158     -1.02780962621390      1.82666269291667
  O   -1.88634856141749      0.99033798347475      0.98626449060566
  N   1.69937291358666      0.41356335716306     -0.86285314602050
  H   2.34381831985070     -0.29546048944807     -0.53331896929218
  H   2.21997148382951      1.26888741611243     -1.01331614943274
  C   1.14309230606861      0.83739519360650      1.49953251367039
  N   1.57378405119768      1.02619931303331      2.57639728935326
