16
Coordinates from ORCA-job run
  C   -0.41368483280407     -0.45775505013515      0.07990923249159
  C   0.69789912345865      0.60604824594068      0.12300558276348
  Br  0.27559438633248     -2.13772510623363      0.74879969078341
  H   0.25095649796538      1.52774073038763     -0.25767313213798
  C   -0.99205695537205     -0.63377647251106     -1.30988153435303
  H   -1.41344268554023      0.31909035491669     -1.64227961801213
  H   -1.77699998344670     -1.39121787619755     -1.29406917353173
  H   -0.19877352640352     -0.93363299131014     -1.99149318466205
  N   -1.56037027723129      0.01268349189937      0.97845945265607
  O   -1.76815054310966      1.22404457282824      0.94062334757628
  O   -2.22757078643715     -0.81697344639487      1.57530326492299
  N   1.77663846982449      0.22414701284598     -0.76967774392568
  H   2.34222939119402     -0.50219656996454     -0.34662896475982
  H   2.37126411266309      1.02437793753629     -0.94635760524995
  C   1.11794207888522      0.86348623590952      1.51406751438781
  N   1.51852553002131      1.07165893048255      2.59889287105074
