16
Coordinates from ORCA-job run
  C   -0.37485727601841     -0.56943843436534     -0.19968104656118
  C   0.97614553772100      0.16891432318944     -0.13273800421587
  Br  -0.04593222230516     -2.43934129605983     -0.59001957068338
  H   1.39881913034420      0.03893815565531     -1.13541623025144
  C   -1.31464232380595      0.01659150490338     -1.23511149818272
  H   -0.83005710431827      0.01256917171739     -2.21301966571708
  H   -1.57405059498330      1.04414031264371     -0.96714836351767
  H   -2.22447499401327     -0.57857668670043     -1.28689200458711
  N   -1.08875261550594     -0.50987050557005      1.14782396353840
  O   -0.51258409415134      0.06647741754270      2.06842597695416
  O   -2.20191370657893     -1.01226865441491      1.20173254441630
  N   1.91072535940355     -0.40333603648507      0.80946624638609
  H   2.85578909964505     -0.13602459669374      0.56867339136164
  H   1.70277014343041     -0.09104894836853      1.74779552678933
  C   0.73408821676687      1.61754106949282      0.04071552201300
  N   0.58792744436949      2.77573320351315      0.17539321225752
