14

C	-0.288408	0.015044	-1.520012
C	0.0	0.0	0.0
F	-0.026739	-1.289553	-1.973064
H	1.098127	0.0	0.0
C	-1.709998	0.262382	-1.841249
N	-2.839931	0.44487	-2.103138
N	0.534332	0.994563	-2.097175
H	1.504102	0.866983	-1.798162
H	0.459809	1.003464	-3.10539
C	-0.539292	-1.183693	0.656687
N	-0.986825	-2.126445	1.195035
C	-0.479786	1.223884	0.633401
N	-0.877263	2.19769	1.155993
Br	3.333778	0.0	0.0
