14

C	-0.295276	-0.102144	-1.523138
C	0.0	0.0	0.0
F	-1.643123	-0.363108	-1.698018
H	1.09679	0.0	0.0
C	-0.005426	1.19635	-2.16644
N	0.174438	2.233015	-2.686408
N	0.451838	-1.134104	-2.169278
H	0.239743	-2.018171	-1.715225
H	1.446423	-0.946819	-2.027512
C	-0.4619	-1.222737	0.649658
N	-0.818487	-2.230513	1.13621
C	-0.560121	1.186055	0.631513
N	-1.00809	2.147539	1.136391
Br	3.300555	0.0	0.0
