14

C	-0.471221	0.071426	-1.467243
C	0.0	0.0	0.0
F	0.052993	1.2572	-1.983313
H	1.102993	0.0	0.0
C	0.096743	-1.034121	-2.263729
N	0.496245	-1.892616	-2.957711
N	-1.884894	0.024347	-1.559948
H	-2.184828	0.080304	-2.525246
H	-2.296668	0.782846	-1.02835
C	-0.475024	-1.229137	0.631396
N	-0.846382	-2.218861	1.142508
C	-0.509717	1.171943	0.708261
N	-0.978192	2.11306	1.232201
Br	3.303179	0.0	0.0
