14

C	-0.3109	-0.397932	-1.456813
C	0.0	0.0	0.0
F	-1.645787	-0.749802	-1.596449
H	1.104018	0.0	0.0
C	-0.123196	0.768766	-2.356792
N	0.042276	1.65697	-3.107916
N	0.497602	-1.524204	-1.768753
H	0.486638	-1.713981	-2.762949
H	1.458024	-1.366457	-1.45965
C	-0.480714	-1.036139	0.909531
N	-0.874779	-1.8405	1.6682
C	-0.530213	1.307039	0.364792
N	-0.943634	2.369675	0.649119
Br	3.305261	0.0	0.0
