14

C	-0.46544	0.015153	-1.468512
C	0.0	0.0	0.0
F	-0.038805	1.18717	-2.039979
H	1.096523	0.0	0.0
C	0.168353	-1.098717	-2.221251
N	0.526153	-2.004768	-2.879245
N	-1.897857	-0.002476	-1.553541
H	-2.27358	-0.803565	-1.058089
H	-2.181357	-0.05774	-2.526019
C	-0.482352	-1.216289	0.648984
N	-0.903305	-2.204371	1.125672
C	-0.495307	1.18871	0.690087
N	-0.874577	2.142024	1.260535
Br	3.305329	0.0	0.0
