14

C	-0.503498	0.382655	-1.404718
C	0.0	0.0	0.0
F	0.042779	1.633855	-1.690289
H	1.103271	0.0	0.0
C	0.001085	-0.558715	-2.423927
N	0.3321	-1.295434	-3.275086
N	-1.920838	0.391554	-1.454862
H	-2.293623	1.031958	-0.762872
H	-2.247243	0.655151	-2.375859
C	-0.468669	-1.334474	0.366913
N	-0.825001	-2.411646	0.669863
C	-0.484718	0.99135	0.959219
N	-0.913472	1.79504	1.701289
Br	3.301243	0.0	0.0
