17

C	0.0	0.0	0.0
C	-0.306278	-0.038819	-1.565071
Br	1.975248	0.0	0.0
H	0.609312	-0.354827	-2.053887
N	-0.625099	1.096416	0.621632
H	-1.675313	0.832248	0.431941
H	-0.457601	1.040999	1.622612
C	-0.320034	-1.323802	0.576255
N	-0.522514	-2.365321	1.085328
N	-0.444176	1.386275	-2.025253
O	-1.562513	1.880898	-2.091316
O	0.604096	1.963421	-2.329043
C	-1.450726	-0.880141	-2.086842
H	-1.237144	-1.927927	-1.86813
H	-2.373702	-0.585058	-1.586588
H	-1.494369	-0.759599	-3.17574
F	-2.814408	0.0	0.0
