17

C	0.0	0.0	0.0
C	-0.54167	-0.031944	-1.43829
Br	1.963914	0.0	0.0
H	-1.628843	-0.208516	-1.233194
N	-0.546222	1.168926	0.629143
H	-1.580824	0.947454	0.525063
H	-0.315417	1.125234	1.617356
C	-0.338541	-1.218277	0.770489
N	-0.558011	-2.084111	1.536105
N	-0.014021	-1.19134	-2.214892
O	0.166537	-2.254278	-1.624232
O	0.159652	-1.041588	-3.426912
C	-0.326335	1.262933	-2.18823
H	0.73425	1.44925	-2.3702
H	-0.733389	2.072325	-1.586598
H	-0.843073	1.224808	-3.145969
F	-2.771702	0.0	0.0
