17

C	0.0	0.0	0.0
C	-0.536589	-0.068193	-1.43963
Br	1.954106	0.0	0.0
H	-1.628285	-0.21705	-1.232102
N	-0.533504	1.199375	0.587454
H	-1.568183	0.983501	0.502951
H	-0.288256	1.201117	1.573323
C	-0.349033	-1.184578	0.815214
N	-0.55438	-2.019878	1.618044
N	-0.031839	-1.264963	-2.172611
O	0.156349	-1.161347	-3.387107
O	0.111856	-2.313143	-1.545704
C	-0.282036	1.19544	-2.231063
H	0.785739	1.351278	-2.402133
H	-0.677962	2.034587	-1.664043
H	-0.78319	1.13524	-3.195827
F	-2.760746	0.0	0.0
