17

C	0.0	0.0	0.0
C	-0.515075	-0.090374	-1.465255
Br	1.965255	0.0	0.0
H	-1.569353	-0.376074	-1.285226
N	-0.533971	1.109786	0.723411
H	-0.294072	1.964833	0.233018
H	-1.5715	0.901885	0.614939
C	-0.353755	-1.220877	0.75004
N	-0.525952	-2.170201	1.419929
N	0.171191	-1.180367	-2.213667
O	-0.043861	-2.333129	-1.835688
O	0.911743	-0.885078	-3.155456
C	-0.436881	1.221453	-2.20952
H	0.554737	1.67652	-2.153429
H	-1.188937	1.887232	-1.787174
H	-0.678583	1.065087	-3.261362
F	-2.736203	0.0	0.0
