15

C	-0.466775	0.004457	-1.456223
C	0.0	0.0	0.0
Br	0.177768	-1.582149	-2.39612
H	1.094858	0.0	0.0
H	-0.020333	0.850802	-1.975033
C	-1.920799	0.056805	-1.570144
N	-3.094306	0.105327	-1.625552
C	-0.540153	-1.125714	0.851356
H	-0.104435	-1.062847	1.846294
H	-1.629795	-1.083961	0.934705
H	-0.245615	-2.077921	0.41013
N	-0.382458	1.331468	0.591647
O	-0.494325	2.289038	-0.1759
O	-0.508708	1.397638	1.810866
Br	3.401217	0.0	0.0
