15

C	-0.472329	-0.01074	-1.454073
C	0.0	0.0	0.0
Br	0.139336	-1.625176	-2.364603
H	1.093133	0.0	0.0
H	-0.012974	0.815585	-1.991852
C	-1.925249	0.06445	-1.566977
N	-3.097376	0.102495	-1.635164
C	-0.537263	-1.115421	0.868138
H	-0.117841	-1.021959	1.867819
H	-1.628944	-1.088807	0.932586
H	-0.22099	-2.07266	0.454401
N	-0.387882	1.334962	0.578
O	-0.578673	2.268375	-0.205873
O	-0.447959	1.429747	1.79915
Br	3.408634	0.0	0.0
