15

C	-0.471792	-0.009698	-1.45424
C	0.0	0.0	0.0
Br	0.149367	-1.619784	-2.368741
H	1.093116	0.0	0.0
H	-0.014794	0.820418	-1.988743
C	-1.924777	0.057837	-1.568179
N	-3.097577	0.087764	-1.637185
C	-0.53735	-1.116985	0.866271
H	-0.119598	-1.023192	1.866397
H	-0.219226	-2.073524	0.452523
H	-1.62921	-1.091939	0.928612
N	-0.385617	1.333724	0.581388
O	-0.422249	1.430035	1.803947
O	-0.595608	2.264555	-0.199457
Br	3.405032	0.0	0.0
