15

C	-0.457672	0.000749	-1.452119
C	0.0	0.0	0.0
Br	0.260139	-1.545521	-2.416232
H	1.092826	0.0	0.0
H	-0.048174	0.876532	-1.958862
C	-1.911109	-0.003417	-1.569324
N	-3.086448	0.011181	-1.622855
C	-0.578993	-1.097775	0.853043
H	-0.213889	-0.998285	1.87698
H	-0.247029	-2.064353	0.467285
H	-1.670832	-1.073452	0.876393
N	-0.401264	1.352806	0.502718
O	0.156526	2.315085	-0.035632
O	-1.135718	1.432285	1.494979
Br	2.748687	0.0	0.0
