15

C	-0.463137	0.052608	-1.456954
C	0.0	0.0	0.0
Br	0.128368	-1.536014	-2.426958
H	1.092837	0.0	0.0
H	0.014819	0.892307	-1.957416
C	-1.913813	0.158358	-1.575412
N	-3.083062	0.249027	-1.651262
C	-0.548353	-1.144403	0.82077
H	-0.236326	-2.086911	0.371413
H	-0.134305	-1.09323	1.825667
H	-1.640165	-1.112845	0.881837
N	-0.378066	1.316945	0.624848
O	-0.496651	2.29154	-0.120464
O	-0.493439	1.357188	1.845905
Br	3.403685	0.0	0.0
