17

C	-0.504368	0.047654	-1.427327
C	0.0	0.0	0.0
F	0.027794	-1.016744	-2.100815
H	1.091483	0.0	0.0
C	-1.967794	-0.026452	-1.556858
N	-3.129664	-0.186574	-1.622929
N	-0.022796	1.277633	-2.206289
O	0.819452	1.991576	-1.688892
O	-0.50338	1.378505	-3.332
C	-0.457222	-1.264786	0.710955
H	-0.111463	-2.131283	0.147069
H	0.015138	-1.288327	1.692144
H	-1.544641	-1.306407	0.823216
N	-0.498683	1.181278	0.752407
O	-0.14933	1.280573	1.922038
O	-1.252339	1.966285	0.168021
Cl	3.218321	0.0	0.0
