17

C	-0.412892	-0.017786	-1.464463
C	0.0	0.0	0.0
F	0.352169	0.782683	-2.226382
H	1.095853	0.0	0.0
C	-0.381539	-1.382354	-2.016673
N	-0.391971	-2.459577	-2.485322
N	-1.88017	0.439552	-1.672332
O	-2.691508	-0.035163	-0.887495
O	-2.106875	1.179264	-2.612354
C	-0.445649	-1.172246	0.853492
H	0.023093	-1.067474	1.830193
H	-1.528524	-1.219602	0.964452
H	-0.077155	-2.098258	0.410367
N	-0.412261	1.297635	0.615656
O	-0.372456	1.37288	1.839057
O	-0.721826	2.221007	-0.138644
Cl	3.1782	0.0	0.0
