17

C	-0.558201	0.015156	-1.412338
C	0.0	0.0	0.0
F	-1.913708	0.144353	-1.399181
H	1.092575	0.0	0.0
C	0.012063	0.994875	-2.340843
N	0.432246	1.720792	-3.162958
N	-0.259893	-1.373319	-2.017577
O	0.897371	-1.562811	-2.356589
O	-1.196931	-2.158263	-2.07107
C	-0.484627	-1.193308	0.80223
H	-0.149794	-1.07025	1.829354
H	-0.022194	-2.100804	0.412492
H	-1.571503	-1.295437	0.777767
N	-0.400911	1.282828	0.66551
O	-0.66993	2.245263	-0.052933
O	-0.394518	1.305431	1.892611
Cl	3.199604	0.0	0.0
