17

C	-0.487671	-0.020663	-1.442908
C	0.0	0.0	0.0
F	-1.755373	-0.523757	-1.566357
H	1.09415	0.0	0.0
C	-0.425841	1.278457	-2.120499
N	-0.413857	2.308992	-2.683742
N	0.390956	-1.007279	-2.246314
O	1.007733	-0.567119	-3.203504
O	0.333088	-2.172619	-1.877222
C	-0.509637	-1.152701	0.854329
H	-0.181016	-2.099471	0.433687
H	-0.068883	-1.041006	1.84648
H	-1.599562	-1.135322	0.925587
N	-0.490978	1.249797	0.661249
O	-1.577975	1.699799	0.286672
O	0.174594	1.68787	1.589088
Cl	3.220242	0.0	0.0
