17

C	-0.413048	-0.05912	-1.466178
C	0.0	0.0	0.0
F	0.405379	0.643275	-2.267215
H	1.092375	0.0	0.0
C	-0.487321	-1.446583	-1.953625
N	-0.537177	-2.549514	-2.35494
N	-1.84244	0.497003	-1.690904
O	-2.019018	1.216037	-2.65751
O	-2.682187	0.112547	-0.88639
C	-0.473942	-1.132193	0.888089
H	-0.030495	-0.994337	1.872242
H	-1.560301	-1.162714	0.974914
H	-0.106161	-2.078647	0.490176
N	-0.391937	1.330527	0.559925
O	-0.477267	1.429601	1.779394
O	-0.549032	2.256868	-0.236132
Cl	3.18373	0.0	0.0
