13
Coordinates from ORCA-job run
  C   0.45884200874808      0.46237494987816      0.27422304740849
  C   -0.98087561072686      0.05401256025138     -0.05985066002368
  Br  0.73276187694394      0.52002592637330      2.21904978743593
  H   -1.16924209303396      0.23270167379824     -1.11964274329813
  H   -1.69118387893814      0.59546018293355      0.56164046365047
  C   0.62834940184293      1.84796360776790     -0.19682595084536
  N   0.75853133561449      2.92878901406253     -0.64269475508301
  N   1.38209317783417     -0.48600952611756     -0.27350907093734
  H   2.34027916828185     -0.18395013622749     -0.15122105780058
  H   1.19203384971319     -0.66700417509357     -1.25320737980417
  N   -1.17439257838301     -1.40604801497802      0.16243995451112
  O   -0.97636772369605     -2.13379216512942     -0.80855684904471
  O   -1.49982893420064     -1.76452389751901      1.28915521383096
