13
Coordinates from ORCA-job run
  C   0.53472964283862      0.42754075096959      0.17087015946050
  C   -0.38250475446361     -0.77755263231027     -0.07625652059092
  Br  0.35322165757198      0.93002480814388      2.06300497159934
  H   -0.37782004225572     -1.01488285300323     -1.14362225776692
  H   -0.03440654422692     -1.62520832172862      0.51198079848177
  C   0.17363242087245      1.58355760688895     -0.65146190667529
  N   -0.03691602249808      2.49384565065007     -1.36386585452819
  N   1.92252127086017      0.12727702588508     -0.07278970037194
  H   2.21643334144994     -0.69789124139962      0.43597806582507
  H   2.10498670206218      0.01905828244345     -1.06402521693805
  N   -1.80542904278321     -0.54481642407861      0.30654582647380
  O   -2.36166667010660      0.41680530536401     -0.21545233102912
  O   -2.30678195932122     -1.33775795782468      1.09809396605996
