16

C	0.0	0.0	0.0
C	-0.503323	-0.393222	-1.406496
Br	1.988311	0.0	0.0
H	-1.59753	-0.389611	-1.305374
C	-0.311743	1.416914	0.242726
N	-0.546372	2.555133	0.425156
N	-0.525854	-0.865884	0.993372
H	-1.374487	-1.297807	0.637165
H	-0.79114	-0.335368	1.811118
N	-0.083645	-1.738471	-1.707666
H	0.875642	-1.723845	-2.037265
H	-0.681709	-2.131855	-2.424789
N	-0.029678	0.577496	-2.39857
H	-0.469767	1.475465	-2.215731
H	-0.381205	0.270027	-3.299096
Br	-3.786546	0.0	0.0
