16

C	0.0	0.0	0.0
C	-0.613394	0.019754	-1.405793
Br	2.029375	0.0	0.0
H	-1.687146	0.103935	-1.167611
C	-0.286048	1.252252	0.713758
N	-0.469373	2.271237	1.269576
N	-0.496331	-1.104631	0.68345
H	-0.131487	-1.231072	1.614144
H	-0.4553	-1.929864	0.09989
N	-0.39106	-1.268386	-2.029238
H	0.404116	-1.186931	-2.653047
H	-1.214229	-1.538705	-2.552005
N	-0.087944	1.114135	-2.214383
H	-0.782257	1.315232	-2.929366
H	-0.012292	1.954897	-1.647701
Br	-4.034489	0.0	0.0
