16

C	0.0	0.0	0.0
C	-0.428467	-0.495203	-1.470391
Br	1.961465	0.0	0.0
H	0.49697	-0.629397	-2.033008
C	-0.336429	1.421156	0.163279
N	-0.550545	2.571269	0.271903
N	-0.502883	-0.740503	1.113019
H	-0.491798	-1.717949	0.834952
H	-1.483684	-0.474713	1.230029
N	-1.257984	0.416048	-2.230561
H	-2.142483	0.55058	-1.739675
H	-0.805953	1.318883	-2.323349
N	-1.042524	-1.798924	-1.304639
H	-1.985026	-1.637084	-0.945013
H	-1.154032	-2.184313	-2.236336
Br	-3.806973	0.0	0.0
