16

C	-0.657685	-0.061853	-1.363074
C	0.0	0.0	0.0
Cl	-0.005857	-1.519535	-2.163376
H	1.089518	0.0	0.0
H	-0.306837	-0.880966	0.566706
C	-2.167675	-0.15237	-1.328161
H	-2.451922	-0.989954	-0.688632
H	-2.559123	-0.316692	-2.32906
H	-2.58434	0.773532	-0.932209
N	-0.235819	1.10917	-2.248903
O	-1.004545	1.400052	-3.163168
O	0.841527	1.631252	-2.014362
N	-0.469707	1.163049	0.798198
O	-0.926198	2.141901	0.201821
O	-0.348745	1.075149	2.016108
Cl	3.297881	0.0	0.0
