16

C	-0.437212	0.068936	-1.451667
C	0.0	0.0	0.0
Cl	-2.215153	0.311541	-1.579951
H	1.088914	0.0	0.0
H	-0.401424	-0.879489	0.489743
C	0.303947	1.076006	-2.289718
H	1.374605	0.87777	-2.186899
H	-0.001656	1.004101	-3.331234
H	0.097448	2.069572	-1.90083
N	-0.215234	-1.34227	-2.040692
O	-0.392877	-2.300218	-1.299646
O	0.068123	-1.408493	-3.230088
N	-0.469428	1.161551	0.7944
O	-0.263949	2.295261	0.368096
O	-1.017025	0.907694	1.867545
Cl	3.276265	0.0	0.0
