16

C	-0.465192	-0.020334	-1.436582
C	0.0	0.0	0.0
Cl	-0.039322	1.480645	-2.259082
H	1.088315	0.0	0.0
H	-0.352279	-0.897405	0.51034
C	0.193432	-1.190173	-2.147629
H	-0.107971	-2.125352	-1.671337
H	1.275891	-1.073563	-2.062067
H	-0.101153	-1.200529	-3.198843
N	-1.98047	-0.243264	-1.519987
O	-2.399979	-1.136843	-0.788393
O	-2.646313	0.386577	-2.326742
N	-0.545583	1.14078	0.780992
O	0.065397	1.465907	1.79045
O	-1.606776	1.638184	0.398932
Cl	3.313019	0.0	0.0
