18

C	0.0	0.0	0.0
C	-0.519675	0.026884	-1.448969
F	1.391211	0.0	0.0
H	-1.620239	0.078992	-1.387943
C	-0.457481	1.231076	0.756229
H	-0.018562	2.135065	0.3306
H	-1.54687	1.294955	0.728511
H	-0.12333	1.139513	1.792462
C	-0.472843	-1.278852	0.661056
H	-0.115592	-1.287	1.693671
H	-1.564727	-1.309031	0.654428
H	-0.06475	-2.151704	0.146259
C	-0.077904	-1.130982	-2.218191
N	0.230272	-2.08113	-2.835172
N	-0.034469	1.268751	-2.146334
O	1.073151	1.226015	-2.677994
O	-0.768692	2.251199	-2.093906
Cl	-3.719803	0.0	0.0
