18

C	0.0	0.0	0.0
C	-0.217501	-0.067149	-1.552686
F	1.399862	0.0	0.0
H	0.508917	-0.810935	-1.889656
C	-0.516692	1.266237	0.630211
H	-0.077947	2.149611	0.162999
H	-0.258549	1.263752	1.692321
H	-1.606757	1.279142	0.53
C	-0.489388	-1.241402	0.704053
H	-0.111866	-2.143899	0.221438
H	-1.582031	-1.25243	0.704537
H	-0.124116	-1.207452	1.734554
C	0.110703	1.20555	-2.18873
N	0.432419	2.224922	-2.674438
N	-1.521984	-0.599785	-2.112047
O	-2.190247	0.135748	-2.822018
O	-1.723553	-1.783673	-1.881762
Cl	-3.8432	0.0	0.0
