18

C	0.0	0.0	0.0
C	-0.211298	-0.043585	-1.556483
F	1.399732	0.0	0.0
H	0.525508	-0.774452	-1.897717
C	-0.509386	1.260166	0.646096
H	-0.06553	2.146052	0.188735
H	-0.247856	1.24266	1.707291
H	-1.599291	1.27553	0.546089
C	-0.500281	-1.246066	0.681005
H	-1.59352	-1.23601	0.665376
H	-0.145611	-1.231095	1.715671
H	-0.127687	-2.144779	0.188154
C	0.115357	1.240005	-2.170382
N	0.444862	2.266248	-2.635708
N	-1.502759	-0.581546	-2.152451
O	-2.142877	0.14757	-2.893621
O	-1.705064	-1.766756	-1.930534
Cl	-3.788266	0.0	0.0
