18

C	0.0	0.0	0.0
C	-0.52153	0.028265	-1.447809
F	1.390965	0.0	0.0
H	-1.621423	0.091689	-1.38401
C	-0.454987	1.230249	0.758881
H	-1.544587	1.291864	0.739469
H	-0.111644	1.140253	1.792229
H	-0.021916	2.135532	0.330128
C	-0.470896	-1.279362	0.661261
H	-0.059535	-2.15142	0.147798
H	-0.115591	-1.286491	1.694576
H	-1.562705	-1.312042	0.652833
C	-0.096239	-1.13734	-2.215333
N	0.202036	-2.09029	-2.83301
N	-0.023353	1.261764	-2.150397
O	1.076218	1.200429	-2.697219
O	-0.739548	2.256969	-2.087726
Cl	-3.714609	0.0	0.0
