18

C	0.0	0.0	0.0
C	-0.525107	0.027501	-1.445901
F	1.391301	0.0	0.0
H	-1.624306	0.092952	-1.376862
C	-0.454317	1.230436	0.759263
H	-1.543448	1.294624	0.73587
H	-0.016793	2.134907	0.333433
H	-0.115288	1.137746	1.793725
C	-0.469306	-1.279774	0.662402
H	-0.05656	-2.151179	0.149075
H	-0.113472	-1.285603	1.695503
H	-1.560852	-1.314173	0.654502
C	-0.104088	-1.138739	-2.21397
N	0.198991	-2.090097	-2.831473
N	-0.027836	1.26034	-2.150821
O	1.068668	1.196525	-2.702963
O	-0.741054	2.257238	-2.083839
Cl	-3.713085	0.0	0.0
