18

C	-0.396749	0.047978	-1.498429
C	0.0	0.0	0.0
Cl	-0.225036	-1.698485	-2.119509
H	1.091544	0.0	0.0
N	-1.713354	0.542633	-1.669226
H	-1.940597	0.546978	-2.655086
H	-2.391616	-0.000575	-1.153721
N	0.488033	0.818418	-2.323832
H	0.459863	1.766549	-1.959093
H	1.438365	0.483789	-2.163989
C	-0.548288	-1.127247	0.846183
H	-0.337677	-0.920392	1.89508
H	-0.038809	-2.047678	0.571023
H	-1.626723	-1.262217	0.735551
N	-0.430798	1.323842	0.563071
O	0.177019	2.323814	0.187825
O	-1.385132	1.34617	1.342601
Cl	3.341813	0.0	0.0
