18

C	-0.394286	-0.006605	-1.495695
C	0.0	0.0	0.0
Cl	-0.121777	-1.699828	-2.080667
H	1.091278	0.0	0.0
N	-1.801454	0.263534	-1.680677
H	-1.95698	1.227111	-1.404433
H	-1.982248	0.198455	-2.677244
N	0.461555	0.813137	-2.330136
H	0.358732	1.766135	-1.996639
H	1.43001	0.547084	-2.149138
C	-0.578411	-1.111284	0.852249
H	-1.653512	-1.202467	0.681592
H	-0.379724	-0.90843	1.902494
H	-0.093028	-2.048639	0.591536
N	-0.349172	1.331125	0.625414
O	-0.615089	2.296226	-0.103631
O	-0.299119	1.414147	1.847792
Cl	3.305768	0.0	0.0
