18

C	-0.398881	-0.050587	-1.484842
C	0.0	0.0	0.0
Cl	0.017236	1.622438	-2.174428
H	1.090429	0.0	0.0
N	0.423904	-0.965973	-2.22808
H	0.203018	-1.904806	-1.915787
H	1.40458	-0.77563	-2.023838
N	-1.757663	-0.396034	-1.690646
H	-1.953911	-0.360308	-2.683335
H	-2.351903	0.252116	-1.188716
C	-0.492302	-1.204427	0.787989
H	-0.093969	-1.145439	1.803728
H	-0.10076	-2.117181	0.337391
H	-1.580771	-1.254962	0.813217
N	-0.527353	1.214677	0.681524
O	0.242655	1.907881	1.334314
O	-1.744229	1.422997	0.581616
Cl	3.382937	0.0	0.0
