17

C	-0.580582	0.010104	-1.417752
C	0.0	0.0	0.0
Cl	0.196195	-1.339872	-2.280506
H	1.091961	0.0	0.0
C	-2.082693	-0.131575	-1.513064
H	-2.565744	0.729667	-1.052268
H	-2.386674	-1.046306	-1.002824
H	-2.375102	-0.189956	-2.559193
N	-0.129892	1.277021	-2.148049
O	0.838611	1.871015	-1.700873
O	-0.762893	1.56299	-3.160143
C	-0.454323	-1.190832	0.708291
N	-0.845912	-2.155527	1.25307
N	-0.434801	1.189951	0.821721
O	-1.09284	2.072834	0.273748
O	-0.074824	1.184341	1.990733
Br	3.314502	0.0	0.0
