17

C	-0.433994	-0.001496	-1.458725
C	0.0	0.0	0.0
Cl	0.367339	1.26353	-2.403836
H	1.095451	0.0	0.0
C	-0.159526	-1.343799	-2.117599
H	-0.786206	-2.118479	-1.672267
H	0.890511	-1.606336	-1.977683
H	-0.377068	-1.276244	-3.183252
N	-1.946754	0.250431	-1.585921
O	-2.427291	0.147699	-2.708283
O	-2.563375	0.492723	-0.554419
C	-0.481312	-1.177778	0.686951
N	-0.7891	-2.200377	1.186872
N	-0.401349	1.226195	0.784504
O	-0.013023	2.300322	0.336171
O	-0.938288	1.055128	1.875808
Br	2.740905	0.0	0.0
