16
Coordinates from ORCA-job run
  C   0.73327033933102      0.03807807473810     -0.36905574061201
  C   -0.67692824853153     -0.59022714023798     -0.21279104967089
  Cl  1.23171056057465     -0.11862957487213     -2.03261466312357
  H   -0.55830582949919     -1.66433344596561     -0.35939470784958
  N   0.76652867941711      1.52326210556088      0.01888935944471
  O   1.45603331906291      1.83642071132670      0.97366680947436
  O   0.07581055983072      2.24834779105237     -0.68035528807113
  N   1.76414465300871     -0.64948425636143      0.52525811579008
  O   2.93891712985033     -0.48502163090934      0.24564492433776
  O   1.29863551581866     -1.28480559863213      1.46502754969417
  N   -1.69964064192786     -0.08257651102370     -1.05752485739988
  H   -1.65038468154434      0.92181530855620     -1.16400532286549
  H   -1.71062020428997     -0.53754967119046     -1.95741316511304
  N   -1.17884519062574     -0.43456502213150      1.20524372892347
  O   -1.10672655835841      0.69726023114568      1.67579669030993
  O   -1.68359940211708     -1.41799137105564      1.72162761673114
