16
Coordinates from ORCA-job run
  C   0.57687337571644      0.38368289885916      0.32740585807827
  C   -0.60638179774605     -0.33653236130559     -0.30901426067481
  Cl  0.12773298234598      1.27382403435688      1.73373110961198
  H   -0.21795260390944     -1.01193352797199     -1.07209889257847
  N   1.76252026866385     -0.56008183575952      0.60986669991139
  O   2.52849614652964     -0.22344767913705      1.49768639355988
  O   1.85810508040969     -1.52105338661851     -0.13823212210250
  N   1.13570463131771      1.32597824924616     -0.77462942297941
  O   1.46586983053911      0.73896986083347     -1.79437733902276
  O   1.19072660578661      2.51755599998046     -0.54043739367630
  N   -1.49741137871928      0.60267306033202     -0.86423920170574
  H   -2.15321933302602      0.16784720775361     -1.49672750656510
  H   -2.00493141990157      1.11682641819137     -0.15585382172386
  N   -1.23748163287545     -1.26141681747457      0.75180106353238
  O   -2.45597107596204     -1.37676055685838      0.70907544229026
  O   -0.47367967916919     -1.83613156442753      1.51804339404480
