16
Coordinates from ORCA-job run
  C   0.59744897034562      0.39179716132393      0.27954281635866
  C   -0.62580468030962     -0.33994825511039     -0.25944808858094
  Cl  0.24563249400397      1.31685679257192      1.69085831852402
  H   -0.29131845715611     -1.02856182273626     -1.03615376658752
  N   1.79802943887435     -0.54811441321680      0.50352611600872
  O   2.62645147799166     -0.18895008470387      1.32385962954342
  O   1.83804315935893     -1.53063340957517     -0.22133745200810
  N   1.08277908446128      1.30617469520804     -0.87984636668811
  O   1.34223332667969      0.69419464313660     -1.90536514853537
  O   1.15801205823584      2.50242123849637     -0.67763756258439
  N   -1.55459993376281      0.58932520849550     -0.76883849999980
  H   -2.25329257554543      0.14166133676370     -1.34391844870984
  H   -2.01104943654403      1.11751599389403     -0.03639412172956
  N   -1.18273110633448     -1.24762654512101      0.85606396328562
  O   -2.39903368770661     -1.39009861332665      0.87339215763007
  O   -0.37180013259224     -1.78501392609995      1.60069645407314
