16
Coordinates from ORCA-job run
  C   0.84745398963447     -0.08763561352297     -0.28838563971039
  C   -0.65819353759358     -0.35948506731518     -0.38707818397025
  Cl  1.81307625250600     -1.30954780969341     -1.04885883768986
  H   -0.83755162200249     -0.73649413070177     -1.39628395827141
  N   1.06607640543680      1.24874917624081     -1.03034619211071
  O   0.85320820027344      1.20280471130904     -2.22846993517431
  O   1.39044222300943      2.21081173668887     -0.35408550194220
  N   1.30114186283894      0.16548105486502      1.14685525281825
  O   2.48320491231029      0.01864220083852      1.39769388370567
  O   0.42166808207431      0.55735334555134      1.90479342068391
  N   -1.43532532624208      0.79911823223213     -0.17725437279493
  H   -2.37324141288451      0.68483992354245     -0.53278363234045
  H   -1.44739729361645      1.08124726613895      0.79274444199036
  N   -1.03582820586868     -1.54254415375537      0.52582328686985
  O   -2.23905422424078     -1.76685474795023      0.57712701723837
  O   -0.14968030563510     -2.16548612446820      1.09850895069809
