15

C	-0.572464	0.033553	-1.559224
C	0.062346	0.119503	-0.167425
Br	-0.322028	1.673089	-2.657916
H	1.125039	0.347451	-0.300596
H	-0.068133	-0.758509	-2.110423
C	-2.00258	-0.244751	-1.499859
N	-3.158602	-0.448753	-1.439479
N	-0.010418	-1.230954	0.346998
H	-0.737654	-1.284252	1.054478
H	0.935837	-1.359766	0.839824
C	-0.56283	1.182065	0.724428
H	-0.508561	2.18401	0.288613
H	-0.015782	1.177116	1.669359
H	-1.614117	0.947198	0.926421
H	2.322179	-1.07074	1.394315
