15

C	-0.605053	0.006307	-1.552459
C	0.083251	0.045208	-0.189544
Br	-2.577908	0.001334	-1.40243
H	1.160735	0.066584	-0.400077
H	-0.390847	0.910024	-2.130258
C	-0.228207	-1.160594	-2.341079
N	0.094192	-2.052429	-3.034286
N	-0.131695	-1.181954	0.540998
H	-0.942047	-1.069146	1.143527
H	0.715468	-1.222291	1.159509
C	-0.235526	1.319663	0.584741
H	-1.26944	1.311891	0.943589
H	-0.080457	2.227932	-0.011794
H	0.446195	1.326508	1.438469
H	2.186626	-0.597256	1.767954
