12
Coordinates from ORCA-job run
  C   0.75794959085980      0.49626660074147      0.56768559583127
  C   -0.54837429980831     -0.07424991490108     -0.00063264210151
  F   0.46858138735993      1.40608353094296      1.56020561906570
  H   -1.03688222172707     -0.63230389893265      0.80358968463386
  H   1.31239145961943      1.01456594527060     -0.22114397206313
  C   1.58094993365927     -0.58781559331286      1.11762204138536
  N   2.23827785097754     -1.43754236487047      1.58942762938185
  N   -0.21197694967821     -0.98941684592688     -1.07497261836380
  H   -0.05002471183308     -0.48850875136905     -1.93993587884745
  H   -0.95709869375470     -1.65476460985672     -1.23111652455608
  C   -1.43283315931834      1.03910497306556     -0.39227427725309
  N   -2.12196018635627      1.90858092914910     -0.77745465711299
