12
Coordinates from ORCA-job run
  C   0.80532466537880     -0.36041828216097      0.58028000975588
  C   -0.55653620183072      0.09088039750049      0.05374801761291
  F   1.46602078368076     -1.03023890220617     -0.43112139015183
  H   -1.06436444326113      0.61963712919731      0.86744662209890
  H   0.64004322497043     -1.06498532366677      1.39910087755122
  C   1.61781760429944      0.77394833267212      1.03574648089292
  N   2.24207907697637      1.68822620101946      1.42517193596486
  N   -1.32191753442042     -1.09854146503856     -0.27616241305946
  H   -2.27100718199714     -0.84830887482664     -0.52482521448872
  H   -0.90197713564648     -1.56198992609397     -1.07333189468836
  C   -0.37579301809873      1.03713380519666     -1.06705937897662
  N   -0.27868984005120      1.75565690840704     -1.99099365251170
