12
Coordinates from ORCA-job run
  C   0.72148336811380      0.50542639961211      0.62900560400483
  C   -0.56207670754229      0.01673189498967     -0.05775105540569
  F   0.39739876053774      1.28713538956716      1.71446075404460
  H   -1.17318865218239     -0.48787913470834      0.70462022070653
  H   1.30621345038431      1.09613231565692     -0.07959597016694
  C   1.50176084710104     -0.65785422522039      1.07349234922491
  N   2.08696359421805     -1.61645774203230      1.41427563013305
  N   -0.16654991076180     -0.82182860650667     -1.18313509755108
  H   0.00085759164351     -1.76927713183387     -0.86659899241599
  H   -0.88939142842166     -0.84571981184686     -1.89019505495567
  C   -1.31226005121859      1.18376697691780     -0.53006639544761
  N   -1.91121086187171      2.11082367540477     -0.92851199217095
