12
Coordinates from ORCA-job run
  C   0.74223222011544     -0.33128708766265      0.52236851931108
  C   -0.61114796594061      0.14693421700524     -0.03704065835306
  F   1.42386794999479     -0.98653140988163     -0.48323346197019
  H   -1.14141791633773      0.66061252786132      0.77304034752257
  H   0.56031705450657     -1.05270109698703      1.32550481513980
  C   1.55174805704212      0.77999782964197      1.03457241974440
  N   2.16353580300868      1.68210443278543      1.47040840367233
  N   -1.45193509200148     -0.92151557075072     -0.53802538501596
  H   -0.94216760399947     -1.48260158947411     -1.20952506951137
  H   -1.76662218827136     -1.51562018474388      0.21878582580170
  C   -0.36863223477692      1.12477663270554     -1.10840218488201
  N   -0.15877808334001      1.89583129950051     -1.96745357145929
