12
Coordinates from ORCA-job run
  C   0.77606092383448      0.54850713027655      0.51966725111994
  C   -0.56265576566361     -0.02906036885242      0.03757494933591
  F   0.58030737618127      1.27284994498940      1.67313087791149
  H   -0.99303845928735     -0.60509738885736      0.86959130128371
  H   1.18448834091341      1.20300969555161     -0.25351300662050
  C   1.70781831375449     -0.55743296381117      0.78213583686600
  N   2.41107005448115     -1.47551334308155      0.98199704578863
  N   -0.29852384089086     -0.79966543612609     -1.17188391426158
  H   -0.00272998303937     -1.73699166964567     -0.92725842299626
  H   -1.12728710449479     -0.86749653251745     -1.74767692447966
  C   -1.47304215091731      1.08168651270698     -0.25448372125744
  N   -2.20446770487152      1.96320441936717     -0.50928127269024
