12
Coordinates from ORCA-job run
  C   0.45164097246568      0.12035953951936      1.06138768664254
  C   -0.69740582230991     -0.02988323249119      0.05381296114590
  F   0.39866673902660     -0.91952748410129      1.95643688573947
  H   -1.60140985447587     -0.17608367247699      0.65363888550581
  H   0.34701682489824      1.05651663624700      1.61811254786875
  C   1.74512280649234      0.10831585467020      0.36242971531528
  N   2.75807306779708      0.10188186521388     -0.23029656625429
  N   -0.49407084781670     -1.20715034372264     -0.76343769489178
  H   -1.35459605997703     -1.47767244181410     -1.22101465265412
  H   0.20709288229142     -1.03876185311420     -1.47553200465476
  C   -0.83507381734546      1.23742729146209     -0.69411777783383
  N   -0.92305689104637      2.22557784060789     -1.32341998592898
