12
Coordinates from ORCA-job run
  C   0.49050131587942      0.09555794758457      1.04819246951523
  C   -0.69521657408178      0.00230238207311      0.07675866439977
  F   0.41902725923069     -0.94494243003754      1.94111164942280
  H   -1.58558581327535     -0.10551381187199      0.70448960009334
  H   0.44573006002726      1.03287951336700      1.61090293687781
  C   1.75894137831355      0.02787090096590      0.30775133729373
  N   2.74858563934356     -0.02966388180872     -0.32043542109594
  N   -0.57176510672082     -1.17933840704625     -0.75024957360850
  H   -1.45605103067669     -1.40232901115341     -1.18801720874355
  H   0.11910827438170     -1.04193418880833     -1.47889575676577
  C   -0.79930223493019      1.27752932258405     -0.66304915816154
  N   -0.87397316749134      2.26858166415162     -1.28955953922737
