12
Coordinates from ORCA-job run
  C   0.65550196804944      0.34688382554803      0.77102847447229
  C   -0.53392659869105     -0.11651746431186     -0.08072081021524
  F   0.19548926887772      0.85180338983747      1.96699766547802
  H   -1.00796060514820     -0.94879122816812      0.44803502638375
  H   1.19980063153141      1.14134319584877      0.25054744860459
  C   1.55748370045485     -0.78271994472816      1.02722878309679
  N   2.27207787236454     -1.68238810666085      1.26496108771611
  N   -0.02087697489887     -0.59374628211039     -1.35095389946144
  H   0.14128435816998      0.17593211704334     -1.98852074816936
  H   -0.67034978777438     -1.23396209406434     -1.78745972008436
  C   -1.51401024311643      0.98082381878548     -0.18328613518676
  N   -2.27451358981900      1.86233877298063     -0.33785717263438
