12
Coordinates from ORCA-job run
  C   0.79476314416694     -0.29593934713474      0.62712043775641
  C   -0.56045048585351      0.08307228788741      0.03119499348657
  F   1.49916745722010     -1.02291000698087     -0.31311385433821
  H   -1.10224614983367      0.65919309240974      0.78880533379349
  H   0.62013897924813     -0.94226809461148      1.49086904866871
  C   1.57034780934556      0.88639092308541      1.02049965090853
  N   2.16886269533123      1.83628763938858      1.36238666603434
  N   -1.29043171066105     -1.14551323044182     -0.22842674136233
  H   -0.83672586702555     -1.65793065829922     -0.97576081212115
  H   -2.23654614276774     -0.93692706206210     -0.52263153457051
  C   -0.36798670938996      0.94555907101811     -1.15338039803299
  N   -0.25989301978049      1.59098538574099     -2.12856279022288
