12
Coordinates from ORCA-job run
  C   0.92985901989417      0.34537337927615      0.39953862444069
  C   -0.53741739168250      0.13173448195361      0.00320865358581
  F   1.06244362106605      1.56285529444278      1.02966175150995
  H   -1.11826068692277      0.07682182251072      0.92872455584421
  H   1.56016504530593      0.35271461882054     -0.49537688691493
  C   1.36679600316981     -0.72741361584239      1.30116164666767
  N   1.72667743096576     -1.56415162192499      2.04053774332091
  N   -0.63818871594037     -1.13491299971096     -0.69558909187134
  H   -0.38829897412622     -1.03290200213072     -1.67134911183603
  H   -1.57790621839224     -1.50399962621806     -0.64629667906957
  C   -1.00669378752178      1.30115647813312     -0.76347860381508
  N   -1.38017534581583      2.19272379069022     -1.43074260186228
