12
Coordinates from ORCA-job run
  C   0.41223970163135      0.05645148266741      0.98966960485079
  C   -0.76227746147759      0.09954353358051     -0.00910510376645
  F   0.27567229957730     -1.10449013492759      1.72968231848533
  H   -1.67342053707196      0.06260056093463      0.59917646205400
  H   0.38181840069335      0.90523456656472      1.67894452552125
  C   1.69544135012406      0.02559820328086      0.27749757489358
  N   2.69724149882530     -0.00651789706206     -0.33332464088674
  N   -0.80551232205134     -0.99442931384189     -0.95363540460976
  H   0.00475770684091     -0.98474365307941     -1.56212515460244
  H   -0.83468412785170     -1.87615442119735     -0.45698759256115
  C   -0.72971669815047      1.38855159053227     -0.70928687932723
  N   -0.66355981108921      2.42835548254788     -1.24950571005118
