12
Coordinates from ORCA-job run
  C   0.74902231172548     -0.32847742390795      0.51415999983690
  C   -0.61199568434525      0.14604010167302     -0.02915175320989
  F   1.41794824107521     -0.98768935934666     -0.49773771680074
  H   -1.13244639324769      0.66187390757377      0.78596255517721
  H   0.57829967122383     -1.04706503761545      1.32229600234643
  C   1.56511975666676      0.78486326760279      1.01108051175897
  N   2.18200421302487      1.68946560418630      1.43432564190703
  N   -1.45757335143384     -0.92543750881743     -0.51545656737464
  H   -1.75872273471879     -1.51956752743324      0.24679631408516
  H   -0.95690158674503     -1.48580590048718     -1.19422137964510
  C   -0.38595611341464      1.12067919635761     -1.10702252666899
  N   -0.19079832981090      1.89012068021442     -1.97103108141235
