12
Coordinates from ORCA-job run
  C   0.46768726354856     -0.00505729908445      0.99491880543230
  C   -0.67286798282766      0.07979453545284     -0.02242777081268
  F   0.34918793330140     -1.22638238892911      1.63766773341633
  H   -1.60503877312803      0.01167050504064      0.56096202262275
  H   0.37123465034886      0.78136646055630      1.74844896995148
  C   1.78308168870046      0.08158995805173      0.35002795914783
  N   2.85058270970834      0.18190216877815     -0.12615611543644
  N   -0.49282004335508     -0.97266573261939     -1.00674909716587
  H   -0.58374216215943     -1.87359127008372     -0.55342639108714
  H   -1.19178131099584     -0.90607959999244     -1.73563253698829
  C   -0.64189801442858      1.39517454288164     -0.66959705906808
  N   -0.63362595871299      2.45327811994779     -1.17703652001220
