12
Coordinates from ORCA-job run
  C   0.77341226935383     -0.32119674873617      0.66181228726922
  C   -0.48424123099898      0.09568757094395     -0.11734915018534
  F   1.62436751952103     -1.00592363252696     -0.16655678968726
  H   -1.03576829312518      0.81643792071163      0.50340723247640
  H   0.47153208715164     -0.99416413873871      1.46926009921979
  C   1.46135572098881      0.85258532474114      1.22175416279417
  N   1.97599399472940      1.80294758271484      1.67937318036767
  N   -1.25241985899572     -1.10289561679367     -0.43822933348721
  H   -1.66100464653314     -1.04785859374004     -1.36133602315048
  H   -2.00069830361782     -1.22712373386328      0.23237539525458
  C   -0.08238587812606      0.79774537187356     -1.34079842591760
  N   0.20885661965219      1.33275869341372     -2.34371263495394
