12
Coordinates from ORCA-job run
  C   0.74932144744684     -0.33269575147682      0.51133774770882
  C   -0.61513241759042      0.13153638469100     -0.03245545608934
  F   1.44963726673609     -0.93031765458424     -0.51708980011134
  H   -1.16154521047377      0.59510540671561      0.79695961946885
  H   0.58453016738016     -1.08966505487624      1.28493463397865
  C   1.52925383408430      0.77762486633778      1.06929478005249
  N   2.11760438016754      1.67732459743775      1.54093903079814
  N   -1.42452576658648     -0.93745586365052     -0.58162045161420
  H   -1.72341506848690     -1.57279520149980      0.14747183421065
  H   -0.89822830414976     -1.45383571542631     -1.27564048011231
  C   -0.39839260551309      1.16098241540306     -1.06020992529045
  N   -0.21110772301450      1.97519157092875     -1.88392153299997
