12
Coordinates from ORCA-job run
  C   0.87985701701223      0.31596071873609      0.38771907472177
  C   -0.60461861551566      0.24847251394301     -0.03233695374107
  F   1.09971731534159      1.45471654399231      1.12844320703625
  H   -1.19645097477955      0.30637948359417      0.88743596490963
  H   1.52225703689880      0.35107161552491     -0.49796705499184
  C   1.20801963707577     -0.87158226235969      1.18897206347222
  N   1.42081474165566     -1.84174242008189      1.81459619447434
  N   -0.98494374053100     -0.94721956899308     -0.75233119520426
  H   -0.44774052134211     -1.06362773097365     -1.60198225989755
  H   -0.88999891412716     -1.77116378233965     -0.17264384216849
  C   -0.90320978929646      1.43814208496321     -0.84002733824517
  N   -1.10270319239210      2.38059280399425     -1.50987786036583
