12
Coordinates from ORCA-job run
  C   0.46114916975277      0.01239390411432      0.99597784491020
  C   -0.67151349723737      0.09000996870367     -0.03052100956822
  F   0.31729615538913     -1.18928331557185      1.67074684189353
  H   -1.60751572024550      0.04498800035212      0.54906176214895
  H   0.37378239692773      0.82034424369085      1.72754060981878
  C   1.78216585591642      0.05682108904787      0.35841906359883
  N   2.85533092095173      0.11957711004418     -0.11165098039237
  N   -0.49884495516999     -0.98370747996393     -0.99259028940675
  H   -1.20094394874086     -0.93090274599663     -1.71976409215485
  H   -0.59181803634754     -1.87418170008424     -0.51928636322408
  C   -0.62084153735664      1.39267899372553     -0.70173595795832
  N   -0.59724680383987      2.44226193193811     -1.22619742966569
