12
Coordinates from ORCA-job run
  C   0.72638675486174     -0.27606370817628      0.71464861991986
  C   -0.55415006025554      0.11238803684729     -0.02352850154976
  F   1.45878519245991     -1.12308313470372     -0.09420901340922
  H   -1.11860610158931      0.78503549437999      0.63098055409947
  H   0.44819040446110     -0.82782327362477      1.61599682662083
  C   1.53454466465079      0.89884226291343      1.06238142628240
  N   2.15288986224326      1.84974824311358      1.36360775070938
  N   -1.33239353331731     -1.09625780672690     -0.23001441669423
  H   -0.85510031122606     -1.69901007603407     -0.88985148252210
  H   -2.24050567595825     -0.86851759156459     -0.61524249731187
  C   -0.21990437838194      0.84844722954032     -1.26080366346777
  N   0.00086318205162      1.39629432403571     -2.27596560267698
