12
Coordinates from ORCA-job run
  C   0.52155127398646      0.01929193871740      1.03769663715987
  C   -0.69301163244334     -0.00058675804072      0.09824438858692
  F   0.46969754947689     -1.08045796451262      1.85756401884503
  H   -1.56550373358089     -0.14572351231754      0.74324147070109
  H   0.49995585866087      0.91534943446004      1.66517253852557
  C   1.76666873077777     -0.00059661495687      0.25616959425257
  N   2.73624467571746     -0.00558132412222     -0.40510318207598
  N   -0.60263720806798     -1.12312960685997     -0.81105669533532
  H   0.06262791610548     -0.93734261824533     -1.55273503694367
  H   -1.50246182277863     -1.31671661670042     -1.23080808554396
  C   -0.80770709120627      1.32283289492898     -0.55004176636196
  N   -0.88442451664781      2.35366074764927     -1.10834388181015
