12
Coordinates from ORCA-job run
  C   0.70263923212836     -0.30463904581555      0.58947270171309
  C   -0.60614505999386      0.14692764151545     -0.08585336071019
  F   1.44618882764991     -1.01695941523154     -0.32983396517978
  H   -1.18614039354046      0.70652365664909      0.65698164657302
  H   0.46108332737946     -0.98025238381986      1.41642639288416
  C   1.48398262720067      0.82983701703360      1.09450184116904
  N   2.07083133840710      1.75302984709293      1.52039843170038
  N   -1.41909742272603     -0.94457014359918     -0.58347524438269
  H   -0.87106623952336     -1.53913511486440     -1.19302919036002
  H   -1.78196806804590     -1.49969677778301      0.18125890555675
  C   -0.28552660828441      1.06297943917609     -1.19075874237705
  N   -0.01478156065148      1.78495527964638     -2.07508941658672
