12
Coordinates from ORCA-job run
  C   0.47397362030242      0.08486742321925      1.05645634628593
  C   -0.69587980478438     -0.02050255127687      0.06734536167345
  F   0.41978343813384     -0.97648611887388      1.92575302529745
  H   -1.59070633111307     -0.16873230744034      0.68033256609546
  H   0.39560653084999      1.00809445290512      1.63840939775532
  C   1.75344067904034      0.06944618117751      0.33236703925015
  N   2.75293392705241      0.06560592156764     -0.28267432057463
  N   -0.52693527314465     -1.17863506916911     -0.78461023502036
  H   -1.39950651505065     -1.41996630097799     -1.23587014802494
  H   0.16581140436885     -1.00270818929770     -1.50315196498129
  C   -0.82905864291731      1.26756962898949     -0.64509767484422
  N   -0.92046303273778      2.27044692917690     -1.25025939291231
