12
Coordinates from ORCA-job run
  C   0.68528630130274      0.32783574930158      0.66920691796129
  C   -0.65315435239548      0.02611171258761     -0.03969390753553
  F   0.44008971110289      0.92054934214799      1.88655243867614
  H   -1.24479474601280     -0.58509479260120      0.65022145351639
  H   1.28672211527166      1.01503963075073      0.06555225926531
  C   1.42108747065215     -0.92935259087652      0.86441157060987
  N   1.97364975583486     -1.95819458256476      0.98334195582306
  N   -0.53702614577946     -0.67778135801201     -1.29808861470803
  H   -0.15148315211861     -1.60412184423447     -1.16684372467392
  H   0.02409845173378     -0.16625837882364     -1.96682252277140
  C   -1.35932792266337      1.29834007277992     -0.23852814716101
  N   -1.88514748692836      2.33292703954478     -0.41130967900216
