12
Coordinates from ORCA-job run
  C   0.40209755550256      0.08070160603488      0.99154147286943
  C   -0.76234301664234      0.09759876989685     -0.01977864525096
  F   0.25880795164327     -1.06173590746206      1.75856224856922
  H   -1.67933900229590      0.07277042950899      0.58018945012500
  H   0.36385162323738      0.94626041890873      1.65924396438597
  C   1.69296522617637      0.03385990570990      0.29436187329906
  N   2.70363692560940     -0.01203220860298     -0.30085957239930
  N   -0.79372546225649     -1.01822244895011     -0.93871907889851
  H   -0.82198513281113     -1.88862339971971     -0.42218427769722
  H   0.02030745583010     -1.01859142916822     -1.54250815170118
  C   -0.72581170321362      1.37002832952603     -0.74932082401778
  N   -0.65846242077960      2.39798593431770     -1.31152845928373
