12
Coordinates from ORCA-job run
  C   0.43881839992279      0.02506022763559      0.98011745238587
  C   -0.75981923357078      0.11627884930387      0.01352188863811
  F   0.29492723417562     -1.14923578583106      1.69771878821943
  H   -1.65530733012721      0.08015132306579      0.64463021630508
  H   0.44534232269281      0.85836040817686      1.68864546293846
  C   1.70198299586302     -0.01912527684718      0.23400297108511
  N   2.68651578853255     -0.06447909809300     -0.40351146658237
  N   -0.84861419126803     -0.95146175729892     -0.95742393605537
  H   -0.88360706747749     -1.84555639228801     -0.48379913331688
  H   -0.05385673475835     -0.94153865444809     -1.58609937261998
  C   -0.71988933472735      1.42195641232697     -0.65449496257148
  N   -0.64649284925759      2.47258974429718     -1.17230790842596
