12
Coordinates from ORCA-job run
  C   0.72895315535486     -0.25562603361395      0.71931230994999
  C   -0.55626786611255      0.10115183882815     -0.02661598537745
  F   1.47929918395947     -1.09789801014889     -0.07840082541031
  H   -1.13527736132948      0.76950516921013      0.61962512723155
  H   0.45811645866552     -0.80290750409599      1.62567206626208
  C   1.51487317982820      0.93719505065871      1.05652896963289
  N   2.11459973719949      1.90214693871151      1.35051237269451
  N   -1.31091813262548     -1.12388997569459     -0.22316360346900
  H   -2.22165898123058     -0.91729754515613     -0.61417606672916
  H   -0.81977165334234     -1.72465525979030     -0.87465809020853
  C   -0.23210655946974      0.83262821229428     -1.26918690885439
  N   -0.01684116089739      1.38064711879708     -2.28544936572219
