12
Coordinates from ORCA-job run
  C   0.50672442763739      0.07264114728001      1.04185549059563
  C   -0.69483046308157      0.01613573694591      0.08717407379628
  F   0.42501328617462     -0.97545629231008      1.92492319369476
  H   -1.57873224165192     -0.07576002785456      0.72628408241967
  H   0.49132914002365      1.00483363608726      1.61477274224087
  C   1.76236321107373     -0.01400416724019      0.28137683425725
  N   2.74139717570557     -0.07488343706608     -0.36278443886886
  N   -0.61124825800693     -1.16059034450184     -0.75163223884500
  H   0.07001428462600     -1.03207706931392     -1.49109464864590
  H   -1.50754740231569     -1.36142077793826     -1.17541904258893
  C   -0.77761260474756      1.30005438575114     -0.63988760064015
  N   -0.82687055543731      2.29952721016061     -1.25556844741563
