17

C	-0.499329	-0.06042	-1.429059
C	0.0	0.0	0.0
Cl	-0.011033	1.43309	-2.315061
H	1.091391	0.0	0.0
H	-1.59115	-0.064025	-1.468049
C	0.113402	-1.2526	-2.14583
H	-0.285218	-2.187276	-1.742567
H	1.196435	-1.231541	-2.001503
H	-0.117822	-1.214326	-3.21229
C	-0.4233	-1.211788	0.821414
H	-1.498056	-1.414681	0.74692
H	-0.159212	-1.030384	1.865208
H	0.145163	-2.083923	0.495532
N	-0.539688	1.191754	0.705492
O	-1.623814	1.656856	0.331687
O	0.095677	1.610976	1.672028
H	2.822921	0.0	0.0
