17

C	-0.345535	0.023072	-1.470027
C	0.0	0.0	0.0
Cl	-2.153416	0.050706	-1.748978
H	1.0933	0.0	0.0
H	-0.039014	-0.958565	-1.839691
C	0.325793	1.084396	-2.31535
H	0.222049	0.835618	-3.375884
H	1.38417	1.09187	-2.033039
H	-0.096464	2.069128	-2.130356
C	-0.46546	-1.245357	0.7199
H	-1.552748	-1.308209	0.792182
H	-0.041909	-1.267292	1.724204
H	-0.084132	-2.114176	0.176564
N	-0.417134	1.213097	0.714415
O	-0.941112	1.095525	1.830061
O	-0.153513	2.307635	0.201668
H	2.658314	0.0	0.0
