17

C	-0.326573	-0.007847	-1.476779
C	0.0	0.0	0.0
Cl	-2.129122	-0.043287	-1.785332
H	1.093289	0.0	0.0
H	0.022029	-0.982326	-1.827796
C	0.320183	1.070708	-2.317069
H	-0.133879	2.042093	-2.139745
H	0.232571	0.817038	-3.37655
H	1.37464	1.112435	-2.025051
C	-0.469103	-1.231889	0.739089
H	-0.10154	-1.205759	1.765011
H	-1.555822	-1.328393	0.755625
H	-0.028801	-2.105231	0.249183
N	-0.44128	1.229602	0.673596
O	-0.070582	2.308453	0.198873
O	-1.103761	1.137444	1.717175
H	2.66915	0.0	0.0
