17

C	-0.449068	-0.02242	-1.455505
C	0.0	0.0	0.0
Cl	0.086239	-1.564203	-2.228808
H	1.091992	0.0	0.0
H	0.100358	0.755566	-1.982913
C	-1.944747	0.12314	-1.666653
H	-2.186591	0.09923	-2.732298
H	-2.274109	1.079291	-1.256201
H	-2.486081	-0.688968	-1.176754
C	-0.461383	-1.13176	0.888748
H	-0.230785	-2.082673	0.407054
H	0.091149	-1.083945	1.827316
H	-1.531326	-1.08563	1.114124
N	-0.336695	1.288367	0.572647
O	-0.327963	2.285005	-0.177516
O	-0.469908	1.373043	1.806039
H	2.537792	0.0	0.0
