17

C	-0.519816	-0.114897	-1.419335
C	0.0	0.0	0.0
Cl	-0.043048	1.348003	-2.358648
H	1.091386	0.0	0.0
H	-1.611772	-0.112621	-1.437101
C	0.067666	-1.3361	-2.106286
H	-0.336282	-2.250662	-1.666113
H	1.15306	-1.327348	-1.983265
H	-0.184008	-1.331527	-3.169513
C	-0.440809	-1.16387	0.877689
H	-0.164467	-0.943062	1.911679
H	0.104808	-2.062248	0.587123
H	-1.519634	-1.343369	0.819683
N	-0.531234	1.231977	0.650159
O	-1.676269	1.596232	0.354722
O	0.171113	1.776145	1.496944
H	2.854507	0.0	0.0
