14
Coordinates from ORCA-job run
  C   -0.56465142389118     -0.33753436082936     -0.04191743469379
  C   0.69305585591823      0.02509060859910      0.35351014638905
  C   -0.75917492723905     -1.67561521501598     -0.47274610819913
  N   -0.90077163579668     -2.79240421875768     -0.82378189691918
  C   -1.71975040690433      0.62907441377971     -0.05803325425351
  H   -2.66348579679611      0.10168355518993      0.09123946146797
  H   -1.60897671318863      1.35765858934923      0.74964433333345
  H   -1.79722602806475      1.17413315398029     -1.00561001693947
  N   1.72023563302518     -0.87718089786758      0.60482038489563
  H   2.58731921962002     -0.65269161552888      0.13683383137072
  H   1.45452272796787     -1.84015129936260      0.45322617665316
  N   1.00261219467853      1.33314640978220      0.66812315808465
  H   1.93476377264127      1.50285667859629      1.00593687498858
  H   0.62152752802966      2.05193419808530      0.07775434382187
