14
Coordinates from ORCA-job run
  C   -0.56631443230158     -0.33987745482087     -0.03001717867451
  C   0.69691916365971      0.02681596055078      0.34323713689888
  C   -0.76701954387638     -1.68088659633327     -0.44852810885549
  N   -0.91605877522563     -2.79947604582630     -0.79072801076291
  C   -1.72215660614137      0.62579367572068     -0.03631361769113
  H   -2.66347585752150      0.09828481302271      0.12719933903158
  H   -1.81223067181486      1.16529837083054     -0.98618772009318
  H   -1.60279233765829      1.36016431314878      0.76467487083627
  N   1.72922126621688     -0.87180977689928      0.58480288213335
  H   2.58974448673915     -0.64864103675939      0.10419028051508
  H   1.46377793880580     -1.83649400935550      0.44382397190023
  N   1.00878563177154      1.33776138818074      0.64370254122524
  H   1.94565703378280      1.51252757545752      0.96535281890790
  H   0.61594270356371      2.05053882308286      0.05379079462868
