14
Coordinates from ORCA-job run
  C   -0.56254821772296     -0.32446288414469      0.01098804080993
  C   0.74371355441038      0.00479017193588      0.24123576479934
  C   -0.88526927552566     -1.70518590314824     -0.06567325787483
  N   -1.12782904879564     -2.85704794428909     -0.13334855625243
  C   -1.66367147775405      0.69812378687343     -0.12051021073261
  H   -2.00304930400077      1.07431104202323      0.85060108658049
  H   -1.34106247746714      1.55170319507360     -0.72503999135521
  H   -2.52860830272817      0.26049737017029     -0.62037713484571
  N   1.79941579318168     -0.89261113872944      0.17662845078319
  H   2.44143516421084     -0.80411712902468      0.95163308868090
  H   1.51323629641880     -1.84951833704322      0.02545518598787
  N   1.16065606822650      1.28773694170154      0.55284699351279
  H   0.44313236858002      1.99333912507088      0.51571892314870
  H   2.00844885896616      1.56344170353049      0.07884161675758
