14
Coordinates from ORCA-job run
  C   -0.55691404681171     -0.31730521008646      0.04954962058252
  C   0.75643440047064      0.03979007822844      0.16596978731984
  C   -0.85202355985513     -1.70778422398174      0.09515016252848
  N   -1.08190940074550     -2.86326446372996      0.14247144774129
  C   -1.72004490666563      0.63871818600756     -0.01396486918646
  H   -2.42097930347227      0.33375181556948     -0.79449987420789
  H   -2.26762334360995      0.67143840258405      0.93443103660593
  H   -1.40196334950191      1.65740992181822     -0.24808447783402
  N   1.20225839826434      1.32931278645442      0.40593935304883
  H   1.99632952858545      1.59277019229289     -0.15781588813870
  H   0.49132552845347      2.04034483093576      0.43914417175087
  N   1.81259889179539     -0.85114090118172      0.04305912789203
  H   1.53635579765360     -1.81141672560817     -0.09297469816198
  H   2.50515536543921     -0.75062468930279      0.77062510005927
