14
Coordinates from ORCA-job run
  C   -0.57715957781143     -0.34852754474583      0.04327766431482
  C   0.69819982781133      0.05154397298520      0.33090940724083
  C   -0.81798547434198     -1.74142037355663     -0.08251303507621
  N   -0.99864288087419     -2.90264460971147     -0.17917422390589
  C   -1.70536652764848      0.62831591839818     -0.15819900655473
  H   -2.66164739437561      0.17363686090887      0.10521590678358
  H   -1.78351492774499      0.97106671779703     -1.19638648196217
  H   -1.56149255395121      1.50454605372433      0.48009298086926
  N   1.70811997029657     -0.80631525337573      0.75103265705127
  H   2.56975311137175     -0.71012898636595      0.23205091413402
  H   1.41496183823576     -1.77159423099103      0.80778177424726
  N   1.04450141234482      1.38892817511870      0.35914846724831
  H   1.99399046710742      1.59309204446391      0.62206150490649
  H   0.67628270958024      1.96850125535041     -0.37629852929683
