14
Coordinates from ORCA-job run
  C   -0.58126334079182     -0.34756884962063      0.07985864540172
  C   0.71361777425746      0.04607233419756      0.27369901037083
  C   -0.82768172636465     -1.73112953714263     -0.11658802358237
  N   -1.01374438799516     -2.88469671119378     -0.27555783668977
  C   -1.72667469393138      0.62916451275571      0.03216952760285
  H   -2.64941042548145      0.15540984625632      0.37187447288360
  H   -1.52127003440081      1.47861070664338      0.68897065590498
  H   -1.91001167138885      1.01208345760940     -0.97833962877037
  N   1.06003255201686      1.38189222687698      0.33831244051981
  H   2.02475441082827      1.58119981863900      0.54268798214351
  H   0.62793785910183      1.99800729633247     -0.32863966830791
  N   1.75844109184926     -0.82639705911380      0.55465703517989
  H   2.57016990215848     -0.69826356616071     -0.03373255706327
  H   1.47410269014197     -1.79538447607926      0.58962794440652
