14
Coordinates from ORCA-job run
  C   -0.56468784257666     -0.09093773382819     -0.20363623521664
  C   0.74609874111364      0.10163010568097      0.13224511937955
  C   -0.86963133841629     -0.26591155507688     -1.57911198319474
  N   -1.10225114513650     -0.40035921121699     -2.72719895903278
  C   -1.67715684685786     -0.16426522229755      0.81281048956705
  H   -1.55435204467116      0.59673198282602      1.58976981410904
  H   -2.63948857390374      0.01934851656739      0.33348465733006
  H   -1.73540146336112     -1.14419124787608      1.29843786919402
  N   1.75675970591971      0.36413891265336     -0.78107065489931
  H   1.45721381874143      0.32364260541869     -1.74496166552174
  H   2.59043383529422     -0.18253879099456     -0.61708389153481
  N   1.20960391286718      0.06990846603932      1.43603504637134
  H   1.88302318357478      0.79292365988385      1.64363226980089
  H   0.49883605741239     -0.02112048777935      2.14364812364807
