14
Coordinates from ORCA-job run
  C   -0.58325520646266     -0.34560096324026      0.08407097348721
  C   0.71513839428258      0.04356459305969      0.26288914291500
  C   -0.83408403598467     -1.72785939596765     -0.11684184963627
  N   -1.02054014638703     -2.88091455471797     -0.27902861458175
  C   -1.72712776237745      0.63370060544290      0.06113994571261
  H   -2.64694045418409      0.15778860910695      0.40542659922374
  H   -1.51285709522996      1.47493588354575      0.72566470103976
  H   -1.92082033917160      1.02917472224423     -0.94247549311468
  N   1.06563225153336      1.37786187177807      0.33513363126124
  H   0.62497050427910      2.00182481106370     -0.31888600456804
  H   2.03404174816941      1.57264840901896      0.52604554221390
  N   1.76170209517431     -0.83377301178717      0.52159250895418
  H   1.47630191524282     -1.80262949458644      0.55151501822282
  H   2.56583813111588     -0.70172208496075     -0.07624610112973
