14
Coordinates from ORCA-job run
  C   -0.58146928999333     -0.34890365824727      0.09982780364902
  C   0.71892150550911      0.04843830231912      0.24260862560261
  C   -0.83096234695683     -1.73381910148801     -0.08415487761056
  N   -1.01800075159324     -2.88868294020660     -0.23196075939890
  C   -1.73113235382812      0.62401390210459      0.10255804833903
  H   -2.63879597842945      0.14403562255613      0.47262201810974
  H   -1.50491007076780      1.46904293837459      0.75827902344719
  H   -1.95330077616889      1.01399074467434     -0.89727748553688
  N   1.06316675184957      1.38511763198173      0.29873511491850
  H   2.03482491370254      1.58677185355141      0.46413530958525
  H   0.60235165866815      2.00292855961838     -0.34713281483691
  N   1.77694125021853     -0.82137404720878      0.47832937426717
  H   1.49813361848829     -1.79167605769682      0.52124655356885
  H   2.56523186930148     -0.68788375033281     -0.13981593410409
