14
Coordinates from ORCA-job run
  C   -0.52761543323161     -0.01959666686289     -0.22060029456672
  C   0.78626082580583      0.10223686272096      0.17125742964667
  C   -0.79375079872087     -0.04137209100504     -1.62305580803324
  N   -1.14082681392442     -0.04946490938368     -2.74712963216174
  C   -1.70174753000180     -0.21226044336131      0.69745449175711
  H   -2.56461792566919     -0.61598743263128      0.14844964995380
  H   -1.43792569843493     -0.93299754706654      1.48981035767822
  H   -2.05832190340150      0.71153472099430      1.17339019146534
  N   1.14382619038086      0.23542395936969      1.49898671421047
  H   0.35168633422429      0.36212775070557      2.12018423566002
  H   1.85299835905163     -0.40814205513187      1.84883575475110
  N   1.85803042652667      0.05191310804420     -0.69648179011559
  H   1.62320935953996      0.14083583474045     -1.65767634980180
  H   2.60879460785509      0.67574890886745     -0.46642495044365
