14
Coordinates from ORCA-job run
  C   -0.56677754362474     -0.32069997801762      0.03320577835716
  C   0.74715255314139      0.00439620969679      0.22419212505783
  C   -0.90271130449779     -1.70048218967073      0.02670667804076
  N   -1.15718249332743     -2.85174912796494      0.01901257065582
  C   -1.66580687498478      0.70127465849391     -0.11547315247733
  H   -1.32909933022675      1.56208798232647     -0.70166116903710
  H   -2.51600013086231      0.26774892816659     -0.64415418627904
  H   -2.03140294817232      1.06584815132207      0.85050019812763
  N   1.79185568218058     -0.90597957970829      0.16914457748842
  H   1.49579613209856     -1.86448115749990      0.05300836440042
  H   2.45286176575698     -0.79698698412814      0.92531975883807
  N   1.18580357564276      1.29225320022064      0.48008852413257
  H   2.02101542072876      1.54479180583876     -0.02770099515263
  H   0.47449549614708      2.00397808092440      0.44681092784743
