14
Coordinates from ORCA-job run
  C   -0.57918353591399     -0.32235971180889     -0.02834264171025
  C   0.72575686506525      0.01440180296059      0.20454675038702
  C   -0.91765656629540     -1.70027691238456     -0.00746280844227
  N   -1.17270023412157     -2.85150502144896      0.00722526113920
  C   -1.64796837880818      0.71210368622872     -0.26617906181531
  H   -2.06408419545683      1.10771325683218      0.66796906817855
  H   -2.47666547421997      0.28758677510923     -0.83507433360996
  H   -1.23737049300663      1.54838407161628     -0.83810042791742
  N   1.77618990164448     -0.89479483245828      0.19991518531148
  H   2.37752833774677     -0.83740735211011      1.01011257003382
  H   1.48312422358053     -1.84497873784204      0.02131453868765
  N   1.11875811480761      1.33202152002518      0.32359337411456
  H   2.10316737319268      1.49745770027858      0.44801824700902
  H   0.50910406178524      1.94965375500208      0.83146427863391
