14
Coordinates from ORCA-job run
  C   -0.57553864395526     -0.31973370135153      0.07767764678702
  C   0.74626534519439     -0.00254807170896      0.21983147831800
  C   -0.91978977794601     -1.69715286023521      0.06427142840395
  N   -1.18205947185224     -2.84666288706755      0.06310739057496
  C   -1.65878204260688      0.71418111317890     -0.10543611490279
  H   -2.63397625276917      0.28687602472586      0.13135449103596
  H   -1.70735320842402      1.09065761607931     -1.13280598139221
  H   -1.51024628451271      1.56640583549745      0.56527235026635
  N   1.24566719301504      1.27509360531980      0.03290399411958
  H   1.93155004289391      1.54588907526089      0.72246019222420
  H   0.55335893842787      1.98702645819943     -0.13383554700991
  N   1.73395380155160     -0.90853545536468      0.57669364153034
  H   1.40882835405393     -1.86228303407216      0.64743144302474
  H   2.56712200692954     -0.82921371846154      0.01107358701980
