14
Coordinates from ORCA-job run
  C   -0.56243585484662     -0.33035257119203      0.02951306405068
  C   0.74989440004252      0.01675903561684      0.18875483417780
  C   -0.86316386062291     -1.71354974822612     -0.08552582856876
  N   -1.08751555426242     -2.86678632445222     -0.18438438564619
  C   -1.69036475978476      0.67136484488234      0.02530209947861
  H   -1.97928242378609      0.98024597644147      1.03555939866677
  H   -2.57407415644544      0.24349412309871     -0.44990752786960
  H   -1.42190070707973      1.56686412025290     -0.54394138138724
  N   1.16350044857006      1.29111134256934      0.53620625152298
  H   1.97222484699576      1.60884477545158      0.02217567737302
  H   0.43266587867218      1.98190012076897      0.58671035874615
  N   1.81540706587320     -0.85301319804373      0.00898063739919
  H   2.50570239937082     -0.79009993267894      0.74384308347284
  H   1.53834227730344     -1.80678256448910     -0.17428628141625
