14
Coordinates from ORCA-job run
  C   -0.59760715079385     -0.33651641462877      0.00986016132906
  C   0.71630789018985     -0.00018348636059      0.21075063078248
  C   -0.90678340204329     -1.71989545534713     -0.03667526107672
  N   -1.11073610632631     -2.88043409913231     -0.05117066610851
  C   -1.63872152460052      0.72703648797607     -0.21411963776253
  H   -1.27817542508109      1.45061550305734     -0.95643325259668
  H   -1.88110071930891      1.29384608386620      0.69604017644148
  H   -2.57038618732890      0.29442664132896     -0.57339392744120
  N   1.76106016066673     -0.90878468776543      0.16447919467602
  H   2.43972662861067     -0.82977906622692      0.90772610724803
  H   1.47070839869235     -1.85999381267047      0.01094217507386
  N   1.10551086189123      1.32741053197344      0.27707496803195
  H   0.44158325191268      1.95621598739710      0.69524426781093
  H   2.04861332351937      1.48303578653253      0.59667506359182
