14
Coordinates from ORCA-job run
  C   -0.54070095068418     -0.14624542461258     -0.22390936297739
  C   0.73808031944645      0.13314744875798      0.16684644541881
  C   -0.78097071839964     -0.25901176942842     -1.61859460540033
  N   -0.95740473776336     -0.34283274265952     -2.78112044818270
  C   -1.69157261362954     -0.27792711014317      0.74037193920420
  H   -2.00484165066249      0.68426906723682      1.15969958151043
  H   -1.43651602453463     -0.94308624488251      1.57178676478258
  H   -2.56006321449853     -0.70874217619580      0.24057510565392
  N   1.08232239432692      0.48539865942967      1.46171529731735
  H   1.93290343917509      0.04382572644839      1.78407126461281
  H   0.33302086566695      0.40041318472819      2.13119934922643
  N   1.83883474135254      0.09841698934273     -0.67956901216097
  H   1.60626132915481     -0.07038012579972     -1.64803914418300
  H   2.43964682104961      0.90275451777792     -0.56503317482213
