14
Coordinates from ORCA-job run
  C   -0.52313956690925     -0.27467105584400     -0.21425639933332
  C   0.72549437699851      0.17322088155422      0.12528100318588
  C   -0.75562561999066     -0.57890316748368     -1.57950798303954
  N   -0.92955339751237     -0.80225470275469     -2.72437303430785
  C   -1.63363454310125     -0.46011977209744      0.79007105867880
  H   -2.59278019171128     -0.54422386633092      0.27764227711369
  H   -1.70879162554884      0.39507199334429      1.47007114311327
  H   -1.50775666628776     -1.36636245139161      1.39288330114445
  N   1.12913570307984      0.33530053269281      1.44411860537509
  H   1.61204780101552      1.20173945339154      1.63343488650294
  H   0.41070149195945      0.14710144203920      2.12415143570830
  N   1.71799017645177      0.39637333953648     -0.79611847891612
  H   1.44963563276980      0.64317369904181     -1.73310705706121
  H   2.60627642878651      0.73355367430199     -0.47229075816436
