14
Coordinates from ORCA-job run
  C   -0.56762549990959     -0.33880630673842     -0.02889786556095
  C   0.69330644024520      0.02928780385376      0.35003351929391
  C   -0.77017564808865     -1.68802022400366     -0.41968543141401
  N   -0.91865509562032     -2.81395646155457     -0.73718934601372
  C   -1.71894558304353      0.63139960692693     -0.06642854306948
  H   -1.80520448604123      1.14407405476090     -1.03122059279969
  H   -2.66328462267390      0.11383267570912      0.11139995824456
  H   -1.59678365513765      1.38682915376076      0.71449950665185
  N   1.71728373325827     -0.87004343250184      0.62267379486995
  H   2.58406691107410     -0.66337777001669      0.14596997912374
  H   1.44681607956657     -1.83607825937946      0.50098480419595
  N   1.00887367293699      1.34617278950449      0.62619637498387
  H   1.94550090870941      1.51617128551928      0.95248647014316
  H   0.64482684472433      2.04251508415939     -0.00182262864916
