14
Coordinates from ORCA-job run
  C   -0.55850083437416     -0.11336737086163     -0.21898763643008
  C   0.70855687906154      0.25876104445772      0.14675346549630
  C   -0.75187762371376     -0.44937181261129     -1.58491606988824
  N   -0.88501558460605     -0.74179920392137     -2.71965592523820
  C   -1.72740919354449     -0.30220288098874      0.71500711958818
  H   -1.91221481001914     -1.35958018388450      0.92871397286617
  H   -2.63760280718947      0.10657789648273      0.27105548391647
  H   -1.59136687713691      0.21183660172645      1.66809217935253
  N   1.74526125475078      0.31461764775601     -0.75018089647025
  H   1.72032459507951     -0.28425593713742     -1.55689137272566
  H   2.64544826003415      0.62466713003905     -0.43375860582788
  N   1.04793849984210      0.73008537728798      1.41153524143483
  H   0.30045888544794      0.68152453579879      2.08352641208103
  H   1.89599935636795      0.32350715585622      1.77970663184479
