14
Coordinates from ORCA-job run
  C   -0.55347034595230     -0.08050426894671     -0.22216690882324
  C   0.74711547809499      0.09080626682092      0.16197014599811
  C   -0.80586594564508     -0.27768958169212     -1.60559497850400
  N   -0.99354160319018     -0.43532197349006     -2.75889773880541
  C   -1.70925776834050     -0.12393998719236      0.74595367677906
  H   -1.57592183367454      0.60083487582205      1.55462513081130
  H   -1.84388967896713     -1.11468223004877      1.19218875866030
  H   -2.63908902729914      0.13365839685941      0.23709012144805
  N   1.79498913101448      0.32381197418208     -0.71677340873665
  H   1.53315908549357      0.27034583330148     -1.69088736610176
  H   2.61494819006140     -0.22910053483953     -0.51086554570314
  N   1.16388419227067      0.06710764436109      1.48185522172311
  H   0.42767622387663     -0.00773502470738      2.16446048156907
  H   1.83926390225713      0.78340860956990      1.70604240968520
