14
Coordinates from ORCA-job run
  C   -0.56024005016091     -0.11730392439813     -0.20367096755213
  C   0.74270793338034      0.12165251291107      0.13263368057504
  C   -0.87619316681163     -0.19246823722990     -1.58591348297975
  N   -1.11377019159229     -0.25743614636315     -2.73895794728644
  C   -1.66464305542106     -0.25885447902893      0.81419854722762
  H   -1.34123535554150     -0.86255225636870      1.66813478877223
  H   -2.01304601017132      0.70883585579395      1.19062871140515
  H   -2.52383646017216     -0.76501405960012      0.37233184276593
  N   1.15114480061931      0.43338475793834      1.41804124191810
  H   2.00270570555128     -0.03248356985496      1.69583972033092
  H   0.43125704911919      0.38889605912367      2.12076095136332
  N   1.80334262646498      0.06802417650106     -0.75984713210173
  H   2.43757442833748      0.84889112479701     -0.66653884204869
  H   1.52323174639827     -0.08257181422122     -1.71864111238956
