14
Coordinates from ORCA-job run
  C   -0.54136783620511     -0.17091449115620     -0.22354751667661
  C   0.72551171899763      0.18177558545565      0.14998154236954
  C   -0.77963306693050     -0.37557261197575     -1.60718339949065
  N   -0.94720516909053     -0.54548275646362     -2.76210225341712
  C   -1.66429418855426     -0.35759139404802      0.76767314906596
  H   -2.58226542636710     -0.62978024582945      0.24787000860698
  H   -1.87747717966077      0.55456980868414      1.33191925375879
  H   -1.44290345619151     -1.15767285572579      1.47957751250783
  N   1.04747054659653      0.58726054343376      1.43353595834817
  H   0.30963638803735      0.50732711714150      2.11303377760281
  H   1.92686184627487      0.21883564111519      1.76428992380730
  N   1.82311312137479      0.19140329755672     -0.69652943059698
  H   2.39180963926488      1.02000584397774     -0.59799098549672
  H   1.61074306245376     -0.02416348216587     -1.65952754038932
