18

C	-0.521657	0.040144	-1.443305
C	0.0	0.0	0.0
F	-0.201044	-1.270197	-1.924191
H	1.096427	0.0	0.0
N	-1.926924	0.226047	-1.420902
H	-2.321462	-0.44852	-0.772801
H	-2.315648	0.088413	-2.344966
C	0.203556	0.988729	-2.364713
H	-0.089299	0.761793	-3.39389
H	1.279548	0.848399	-2.252615
H	-0.050847	2.017738	-2.127674
N	-0.598078	-1.145894	0.667876
H	-0.424299	-1.057465	1.660463
H	-0.078568	-1.949813	0.336315
N	-0.42286	1.251186	0.707086
O	-0.004126	2.312649	0.251794
O	-1.14004	1.153391	1.702847
Cl	3.395771	0.0	0.0
