18

C	-0.481918	-0.033254	-1.446351
C	0.0	0.0	0.0
F	-1.877909	-0.38238	-1.413402
H	1.09206	0.0	0.0
N	-0.281468	1.189077	-2.125719
H	-0.865129	1.914375	-1.736204
H	-0.458069	1.073844	-3.113598
C	0.239733	-1.156174	-2.159673
H	1.314493	-0.969806	-2.120734
H	0.021771	-2.101752	-1.668222
H	-0.099475	-1.199774	-3.199561
N	-0.442183	-1.164994	0.704437
H	-1.440749	-1.140375	0.863386
H	0.062079	-1.241565	1.576957
N	-0.435583	1.250544	0.763746
O	0.037694	1.365139	1.891444
O	-1.27441	2.023837	0.286775
Cl	3.374313	0.0	0.0
