18

C	-0.465784	-0.043955	-1.467636
C	0.0	0.0	0.0
F	-0.234963	1.214919	-2.014083
H	1.093964	0.0	0.0
N	0.339138	-0.97855	-2.211478
H	0.222448	-1.885546	-1.770827
H	1.315032	-0.720929	-2.065574
C	-1.938952	-0.346168	-1.631316
H	-2.54077	0.391401	-1.096876
H	-2.16951	-0.305528	-2.696354
H	-2.171895	-1.342533	-1.251419
N	-0.445999	-1.176623	0.68973
H	0.191389	-1.366627	1.453367
H	-1.375351	-1.024662	1.063444
N	-0.495768	1.272541	0.650682
O	0.195637	2.279054	0.561466
O	-1.599136	1.221048	1.214283
Cl	3.352432	0.0	0.0
