18

C	-0.432241	-0.044651	-1.46879
C	0.0	0.0	0.0
F	-1.7788	-0.555036	-1.518559
H	1.089937	0.0	0.0
N	-0.348429	1.215878	-2.098585
H	-1.024082	1.85388	-1.702184
H	-0.48473	1.124516	-3.09544
C	0.429358	-1.059528	-2.191802
H	0.118603	-1.116614	-3.23926
H	1.478988	-0.769022	-2.115662
H	0.302909	-2.045738	-1.742602
N	-0.473796	-1.107524	0.78052
H	-1.231577	-1.585619	0.317268
H	0.288249	-1.732384	0.997332
N	-0.475986	1.249113	0.709928
O	0.166747	1.605005	1.687072
O	-1.521576	1.787846	0.327776
Cl	3.381612	0.0	0.0
