18

C	-0.394328	-0.11896	-1.471773
C	0.0	0.0	0.0
F	0.044689	1.050329	-2.121628
H	1.097581	0.0	0.0
N	0.341839	-1.252268	-1.939955
H	0.209778	-1.355475	-2.939024
H	1.333664	-1.102137	-1.752429
C	-1.87184	-0.264301	-1.760936
H	-2.283286	-1.099952	-1.196626
H	-2.014052	-0.442024	-2.831444
H	-2.388342	0.6521	-1.485034
N	-0.551461	-1.111238	0.766177
H	-0.317138	-1.942731	0.233041
H	-0.018536	-1.15937	1.628319
N	-0.473151	1.243364	0.683277
O	-0.116226	1.351528	1.854961
O	-1.18799	2.051982	0.093591
Cl	3.359593	0.0	0.0
