16

C	-0.452586	-0.000161	-1.436706
C	0.0	0.0	0.0
Br	0.523611	1.262764	-2.516433
H	1.092541	0.0	0.0
H	-0.320478	-0.983962	-1.877233
N	-1.939088	0.288979	-1.506485
O	-2.348977	1.42481	-1.723576
O	-2.645668	-0.683686	-1.233062
N	-0.368055	-1.300198	0.612138
O	-0.751261	-1.300622	1.783987
O	-0.19484	-2.325249	-0.050928
C	-0.498412	1.167658	0.816658
H	0.025942	1.180603	1.771794
H	-0.257357	2.090359	0.284544
H	-1.576195	1.132702	1.007965
F	2.498157	0.0	0.0
