16

C	-0.472904	0.049615	-1.423079
C	0.0	0.0	0.0
Br	-2.413416	-0.148471	-1.638981
H	1.093407	0.0	0.0
H	-0.232425	1.030784	-1.825149
N	0.240079	-0.900456	-2.376325
O	1.346379	-0.492191	-2.712013
O	-0.296097	-1.933253	-2.746194
N	-0.417112	-1.250189	0.656963
O	-0.882724	-1.198732	1.799899
O	-0.226351	-2.297214	0.035963
C	-0.438077	1.216098	0.785885
H	0.019444	1.178953	1.773673
H	-0.058359	2.106922	0.279133
H	-1.523055	1.288385	0.900668
F	2.48728	0.0	0.0
