16

C	-0.477203	0.054982	-1.420973
C	0.0	0.0	0.0
Br	-2.420718	-0.120782	-1.633722
H	1.093334	0.0	0.0
H	-0.22839	1.035088	-1.820384
N	0.225994	-0.89881	-2.379184
O	1.337254	-0.499959	-2.711917
O	-0.31967	-1.925706	-2.752684
N	-0.4183	-1.250427	0.653425
O	-0.865933	-1.203008	1.802425
O	-0.246663	-2.29477	0.025422
C	-0.431508	1.217182	0.787545
H	-1.515719	1.293658	0.909537
H	0.033665	1.179174	1.771734
H	-0.051836	2.106536	0.27787
F	2.488915	0.0	0.0
