16

C	-0.449359	-0.003288	-1.4397
C	0.0	0.0	0.0
Br	0.5154	1.267549	-2.516084
H	1.092608	0.0	0.0
H	-0.303505	-0.986485	-1.87725
N	-1.940638	0.264481	-1.513658
O	-2.367169	1.383469	-1.772896
O	-2.6318	-0.706369	-1.203436
N	-0.369493	-1.301671	0.605057
O	-0.785122	-1.306471	1.768105
O	-0.170686	-2.324902	-0.053084
C	-0.510072	1.16324	0.815523
H	-0.261831	2.088594	0.292041
H	-1.589651	1.126236	0.991892
H	-4.7e-05	1.170694	1.777898
F	2.497113	0.0	0.0
