16

C	-0.551528	-0.046967	-1.412925
C	0.0	0.0	0.0
Br	0.594023	-0.975222	-2.668766
H	1.08971	0.0	0.0
H	-1.524195	-0.525858	-1.477071
N	-0.776518	1.359183	-1.900016
O	-1.935115	1.765932	-1.783353
O	0.169927	2.017656	-2.308846
N	-0.440665	-1.215788	0.706708
O	-0.320472	-1.241428	1.933007
O	-0.856761	-2.174563	0.044552
C	-0.367507	1.237291	0.802163
H	0.09291	1.135863	1.782236
H	0.082018	2.10644	0.321424
H	-1.446064	1.391567	0.91301
F	2.489643	0.0	0.0
