16

C	-0.448547	0.000103	-1.438953
C	0.0	0.0	0.0
Br	0.510972	1.281291	-2.508469
H	1.092573	0.0	0.0
H	-0.298956	-0.979785	-1.881925
N	-1.940221	0.263984	-1.513449
O	-2.630528	-0.715874	-1.229791
O	-2.368391	1.388413	-1.745599
N	-0.36665	-1.30601	0.6026
O	-0.772179	-1.315011	1.768223
O	-0.171954	-2.325899	-0.061249
C	-0.511364	1.15883	0.8203
H	-1.590763	1.119221	0.996719
H	-0.000977	1.163589	1.782362
H	-0.265883	2.086831	0.300279
F	2.500154	0.0	0.0
