12
Coordinates from ORCA-job run
  C   0.96788526051536     -0.03285744679524     -0.59525967353184
  C   -0.48117423784437     -0.43638971271473     -0.28682089585550
  F   1.66840375682298     -1.19725202140554     -0.81203032712267
  H   -0.88555507691931     -0.96713770888715     -1.15508847333891
  H   0.99873528725534      0.56926143185161     -1.50334831402814
  C   1.55871660493912      0.71311183046096      0.52080169571358
  N   2.02838086453661      1.31216170945520      1.41449517551191
  N   -1.34700983789509      0.80199554166455     -0.12712934827276
  O   -0.97805764604013      1.78894771546569     -0.75441430961363
  O   -2.35484680826859      0.69088410241796      0.55319191148558
  C   -0.57074964913262     -1.27492798829929      0.89924054116724
  N   -0.60472851796931     -1.96679745321404      1.84736201788513
