12
Coordinates from ORCA-job run
  C   1.07392525140294     -0.24438096328517      0.04973800009987
  C   -0.40551550225998     -0.34720680076927     -0.34851656612339
  F   1.25611477907279     -0.56397845269066      1.36502938658367
  H   -0.49670846157990     -0.28652504755079     -1.43574677601738
  H   1.62917979967488     -0.96894050452888     -0.55538045931328
  C   1.57983200571268      1.10608154651711     -0.22837382097697
  N   1.97464901430274      2.18068952537925     -0.48760637615141
  N   -1.20005540268670      0.82565598379742      0.19321993828163
  O   -1.93918944623531      1.38528404645972     -0.60782852317965
  O   -1.03306981951060      1.09450169659892      1.37481058577127
  C   -0.98986657509534     -1.58613238740487      0.14903574948304
  N   -1.45029564279820     -2.59604864252276      0.53161886154260
