12
Coordinates from ORCA-job run
  C   0.81122161159012      0.62003452995428      0.00874869021156
  C   -0.31862861577795     -0.37899703910799     -0.24612604169874
  F   1.00703774154885      1.32750256019726     -1.15379770688963
  H   -0.07547615991255     -1.02277934313265     -1.09363659088072
  H   0.51298452192112      1.31720096136443      0.79532868320770
  C   2.03845982193865     -0.09126741041218      0.37911210388980
  N   3.01760547475162     -0.66849550744840      0.67288333201084
  N   -1.54731080797857      0.41533513245372     -0.65107257988063
  O   -2.09161595396126      0.07830417629758     -1.69314745006756
  O   -1.87520056488176      1.31757790030281      0.10825357194234
  C   -0.62430659735362     -1.15082703392901      0.94997769161398
  N   -0.85477047188466     -1.76458892653988      1.92447629654105
