12
Coordinates from ORCA-job run
  C   0.85902607685213      0.54852422008831     -0.07523520908106
  C   -0.34995526997869     -0.38110737865989     -0.19327837073478
  F   1.10118411774079      1.07274580997330     -1.32256330992600
  H   -0.16709144387782     -1.15348354914857     -0.94290267452364
  H   0.62526826531782      1.36817690172423      0.60831713406540
  C   2.02719791576063     -0.20392163186102      0.39279607748637
  N   2.95711285713738     -0.81489300985521      0.76710944561272
  N   -1.51481302361162      0.44567059826841     -0.70583705050553
  O   -2.09476934320873      0.01259656543454     -1.69164783492219
  O   -1.76236012792004      1.46752913868040     -0.07908370811332
  C   -0.70554838984011     -0.95404030162710      1.09726650236425
  N   -0.97525163437174     -1.40879736301739      2.14605899827778
