12
Coordinates from ORCA-job run
  C   0.99188197746094     -0.02754498468039     -0.52309766067593
  C   -0.46766954045667     -0.46219920938908     -0.31780355053967
  F   1.73963123271381     -1.16363493576301     -0.71336306618101
  H   -0.79899822379910     -0.98243028978020     -1.22037909618837
  H   1.05435473041876      0.59037299800066     -1.42112831873694
  C   1.48648421431551      0.71842369297637      0.63919342634432
  N   1.87021462292329      1.33143858468039      1.56409013696283
  N   -1.30976411065436      0.79644832410287     -0.22627096272558
  O   -1.90846450631167      1.02345672483826      0.81456173959443
  O   -1.28477369590109      1.48726922411087     -1.23945762539612
  C   -0.63210257361580     -1.30287175003333      0.85699765414767
  N   -0.73979412709359     -2.01072837906340      1.78765732339438
