12
Coordinates from ORCA-job run
  C   1.02485214666197     -0.14287476855849      0.16434416178226
  C   -0.39697813822094     -0.24674028530239     -0.40047858652021
  F   0.96679288752134     -0.34516988543135      1.52057409844059
  H   -0.42058593770690      0.11519019113230     -1.43382057481292
  H   1.62402113269755     -0.94775348554807     -0.27358775775461
  C   1.67654396900871      1.13568039746097     -0.14304176567255
  N   2.26615600579376      2.10483182538587     -0.44342101404106
  N   -1.33469400817951      0.67369014846793      0.37451514261287
  O   -0.90525764903386      1.79921197546119      0.58100056855423
  O   -2.42893298871005      0.22572996738631      0.68174261576072
  C   -0.87535563745120     -1.62150322129139     -0.32969993100346
  N   -1.19656178238086     -2.75029285916288     -0.29712695734587
