12
Coordinates from ORCA-job run
  C   1.04609318009660     -0.13590434044821      0.06226172399741
  C   -0.42241157143893     -0.36719779075856     -0.32124540770466
  F   1.15859842154459     -0.15697112216065      1.42834789181067
  H   -0.54062055480178     -0.27609671872179     -1.40383361503525
  H   1.64320826825851     -0.95683807608024     -0.34740146421175
  C   1.55181189364739      1.13877088732393     -0.46213449402274
  N   1.99364120138080      2.13894487615019     -0.88900091160002
  N   -1.26373001658183      0.73853399163271      0.28843678256254
  O   -1.76021061301447      0.52764274452893      1.38573954056615
  O   -1.32929156227632      1.76256679719356     -0.38218866796015
  C   -0.87411284966408     -1.66882980392728      0.15051696118328
  N   -1.20397579715051     -2.74262144473263      0.49150166041449
