12
Coordinates from ORCA-job run
  C   0.90812852640767      0.35400036916683     -0.30497167589901
  C   -0.43659126049901     -0.33181938627027     -0.05968182704981
  F   1.00187711594911      0.60996250037121     -1.65254909544701
  H   -0.52142893465621     -1.23483371786423     -0.66738031412262
  H   0.93834897518514      1.30423277140459      0.23337789838350
  C   2.00471239807849     -0.52243577353263      0.11806901309961
  N   2.87838778080896     -1.23669181042099      0.44176379123631
  N   -1.52561453132290      0.61068035890814     -0.54021352247483
  O   -1.48037320910388      1.75070148978963     -0.09699739153901
  O   -2.33875178691909      0.14365300752876     -1.32522018786277
  C   -0.64022635212810     -0.61117611571601      1.35470120046758
  N   -0.78846872180017     -0.83527369336503      2.49810211120802
