12
Coordinates from ORCA-job run
  C   0.87188159852710      0.52272675868793     -0.09595940472050
  C   -0.35311017725492     -0.39024379925247     -0.16939541701504
  F   1.16047538388214      0.93065728570949     -1.37681579246888
  H   -0.16626226154185     -1.22690593366860     -0.84536941204245
  H   0.63628126878684      1.40369592609138      0.50579715191249
  C   2.01063055206864     -0.20685308128928      0.46979389430509
  N   2.91826835327303     -0.79900539840124      0.92127706320312
  N   -1.48441937244912      0.41284632218952     -0.78617672585402
  O   -1.72721546812899      1.48912924657216     -0.25628829591798
  O   -2.04417331660996     -0.09119611985196     -1.74968192363429
  C   -0.75760653150051     -0.84321347308454      1.15377704863200
  N   -1.06575002905239     -1.20163773370239      2.22904181360046
