12
Coordinates from ORCA-job run
  C   0.98682615301047     -0.17163213400596      0.28486688131002
  C   -0.37148667201852     -0.28405833226371     -0.42354444165137
  F   0.76687074446558     -0.17536652021577      1.64021487340221
  H   -0.26831953882234     -0.02855901072877     -1.48178947214959
  H   1.58618347655950     -1.05235893692898      0.03449763130824
  C   1.72777374378176      1.03357293578967     -0.10566316747799
  N   2.37643133769904      1.95620945812306     -0.43034897320539
  N   -1.30290768483645      0.76394712642171      0.16723540282596
  O   -1.00102140945550      1.91803799850004     -0.10716115178746
  O   -2.24005305848751      0.37740280402059      0.84877496766154
  C   -0.93197301851810     -1.61827576656570     -0.26126664491741
  N   -1.32932407337798     -2.71891962214617     -0.16581590531875
