12
Coordinates from ORCA-job run
  C   1.03586378432918     -0.17696272073328     -0.10338497772617
  C   -0.48269239962015     -0.33521825099442     -0.26483318653447
  F   1.35543569667312     -0.27069252180938      1.22617151589527
  H   -0.75978726792980     -0.19112836218829     -1.31207214256590
  H   1.52712602497257     -0.99684172740475     -0.63708696314833
  C   1.50983982654348      1.10244225714839     -0.64584168740730
  N   1.92844681924989      2.09426281819313     -1.11370168437195
  N   -1.17156254484247      0.77240411532055      0.50977180351606
  O   -1.49604223591362      0.53278479570791      1.66411760431674
  O   -1.29839230713743      1.82616241504561     -0.10357032568759
  C   -0.91431582913448     -1.63906905711332      0.21948287031827
  N   -1.23491956719028     -2.71614376117212      0.55894717339533
