12
Coordinates from ORCA-job run
  C   1.03049696044362     -0.09339254961709      0.19296021532155
  C   -0.37879455759321     -0.40386550818640     -0.33045889427299
  F   0.98290697332521      0.01314134224103      1.55900432114307
  H   -0.37539754610735     -0.40814302778860     -1.42335357489357
  H   1.68777379612662     -0.92923675641378     -0.06728352979822
  C   1.57111016470013      1.14160620031339     -0.38821772621112
  N   2.06441410377582      2.09834061851825     -0.85655315290208
  N   -1.30793357000658      0.72173784539723      0.08377016607278
  O   -1.93952663833130      0.57754587923056      1.12059162338467
  O   -1.29922680993930      1.69394947245817     -0.66253794463106
  C   -0.85076647906239     -1.67617364371357      0.19792650151435
  N   -1.18505639733125     -2.73650987243919      0.57515199527263
