12
Coordinates from ORCA-job run
  C   0.87684974354313      0.52094787741380      0.03763363465938
  C   -0.36784915958499     -0.31281991810612     -0.27059658758625
  F   1.11886965710507      1.32145079097107     -1.05356479921270
  H   -0.22699990944735     -0.88539203127068     -1.18929510429948
  H   0.68420964539867      1.15946449307883      0.90306455378952
  C   2.02421335159818     -0.35813646666171      0.28264727595841
  N   2.93806560769401     -1.06947129184879      0.47515278959373
  N   -1.50850451947794      0.65253859139748     -0.54031323564836
  O   -2.11825026742842      0.49099257264668     -1.58807285132569
  O   -1.70733580517755      1.49988274220143      0.32020794038296
  C   -0.72403830651050     -1.16818198501975      0.85238363295254
  N   -0.99123003771232     -1.85127537480228      1.76975275073592
