12
Coordinates from ORCA-job run
  C   1.04512522805375     -0.09476681008480      0.09772094202546
  C   -0.40384686447736     -0.39626044389702     -0.30984178511359
  F   1.11955311949964     -0.03752897956481      1.46552331698945
  H   -0.49591722229624     -0.36627682723964     -1.39839717618146
  H   1.68003472056600     -0.91583676610024     -0.25012143426194
  C   1.52546679992943      1.16493793478524     -0.48384467620003
  N   1.96727672823488      2.14216804474182     -0.96095842413237
  N   -1.29652975988881      0.71043039648757      0.21912009325305
  O   -1.82462338261515      0.53571086983920      1.30798879025700
  O   -1.36536461482191      1.70125085641570     -0.49939085659381
  C   -0.82511063188541     -1.68655611350225      0.21827385097118
  N   -1.12606412029886     -2.75727216188073      0.59392735898710
