12
Coordinates from ORCA-job run
  C   1.06548934974606      0.02922444021238     -0.38416072900402
  C   -0.41159609883718     -0.38888838239055     -0.43910745367456
  F   1.81516737289884     -1.10131517020204     -0.60894858282851
  H   -0.62294830797416     -0.77573431523688     -1.44113578137082
  H   1.27032484691260      0.75055885174889     -1.17546867877235
  C   1.39866748508601      0.60731426578500      0.92232456586167
  N   1.65839031295356      1.06640870936752      1.97113710175584
  N   -1.28738442730160      0.84288475202326     -0.28151461433838
  O   -2.30977290405534      0.73569331197928      0.37732775333058
  O   -0.89169022196799      1.83465260112713     -0.88447654247832
  C   -0.73170968706300     -1.38812053098663      0.56854036710141
  N   -0.95393772039780     -2.21267853342730      1.37448259441746
