12
Coordinates from ORCA-job run
  C   0.90577558012821      0.29098831962185     -0.36993660373014
  C   -0.42072011105816     -0.35849199334782      0.02786705418330
  F   1.04841728964758      0.14125026062915     -1.72893305869407
  H   -0.44302942872479     -1.40441882538200     -0.28414487282305
  H   0.87498822231228      1.35812894669202     -0.13758995900095
  C   2.01616824684728     -0.36357209549320      0.32885294341754
  N   2.89995523670801     -0.89591187454912      0.88901096452702
  N   -1.52276918523198      0.34192417192674     -0.74644585572155
  O   -1.54682110817920      1.56246908241267     -0.65865076721382
  O   -2.28062046477976     -0.37858400484204     -1.38083906725229
  C   -0.67482694162238     -0.21285233273110      1.45406273996208
  N   -0.85851733604705     -0.08192965493713      2.60674648234589
