12
Coordinates from ORCA-job run
  C   0.89349926748512      0.48570808245307     -0.09010310509004
  C   -0.37901722432812     -0.35696867078561     -0.19009846189584
  F   1.15065803536507      0.99530196517917     -1.34090412867303
  H   -0.26277136757255     -1.13684063586961     -0.94519639347970
  H   0.72866311198298      1.31782953160718      0.59851613291889
  C   2.01468952596761     -0.34580271843872      0.35787473366909
  N   2.90336041558196     -1.01444794768104      0.73389039245998
  N   -1.49114593217520      0.55181009632982     -0.68235415312618
  O   -1.65555784715953      1.58677524164070     -0.04987086857255
  O   -2.11608091571288      0.16330225283994     -1.65917542978756
  C   -0.75302277810090     -0.90788354194256      1.10467202837223
  N   -1.03327429133359     -1.33878365533234      2.16074925320471
