12
Coordinates from ORCA-job run
  C   0.97995365234977     -0.05280425681767     -0.54433483195785
  C   -0.48968885113758     -0.44000041253512     -0.31589940885960
  F   1.68368064598767     -1.21072564360041     -0.76724207820100
  H   -0.85807708369593     -0.93223280135917     -1.21981538978116
  H   1.04618648913185      0.57710626669775     -1.43369036529559
  C   1.52248964046362      0.65667558891900      0.61948389787027
  N   1.94453203446613      1.24117947544666      1.54617993632442
  N   -1.28515039091295      0.84514295145975     -0.18533265832784
  O   -1.85654851462634      1.07314413490916      0.87050439056647
  O   -1.25479579221403      1.55353216306971     -1.18616907282287
  C   -0.65889376093922     -1.29503723604804      0.84784177826542
  N   -0.77268806887301     -2.01498023014165      1.76847380221930
