12
Coordinates from ORCA-job run
  C   1.04305409696683     -0.12661445969827      0.09395014071804
  C   -0.41458694428615     -0.38019933404324     -0.31603783952046
  F   1.11923188873227     -0.08786337867321      1.46222824370848
  H   -0.50740710793353     -0.33064124688920     -1.40381156398981
  H   1.65299014139444     -0.96222827245044     -0.26383384606337
  C   1.56011521926113      1.12515543734333     -0.47280545443136
  N   2.01891872434728      2.10151399336725     -0.93538703071182
  N   -1.27482701017351      0.74342753151793      0.23164023917691
  O   -1.80980755088816      0.56550401114988      1.31658097495855
  O   -1.31319666273504      1.74796028300238     -0.46977120557606
  C   -0.87152680370744     -1.66578330515004      0.19330947111703
  N   -1.20295799097812     -2.72923125947636      0.56393787061388
