12
Coordinates from ORCA-job run
  C   1.04097864438687     -0.16687843300786      0.03268325975206
  C   -0.44312294290508     -0.34568280199631     -0.31746751376106
  F   1.18534808179859     -0.21789421393926      1.39504206929676
  H   -0.58656919024891     -0.22409517658340     -1.39402242179987
  H   1.60221667138764     -0.99760269196131     -0.40687545278759
  C   1.57456995265430      1.10074772666650     -0.48105680157542
  N   2.04501663096492      2.08915408909206     -0.90474969211808
  N   -1.23447198851996      0.76886835722030      0.34136909190916
  O   -1.27120210713068      1.81631106950637     -0.29422549822354
  O   -1.72147506459881      0.54056626820422      1.43939098785868
  C   -0.92088282560064     -1.64505189817782      0.13441217806578
  N   -1.27140586218822     -2.71844229502351      0.45549979338312
