12
Coordinates from ORCA-job run
  C   1.04670659061092     -0.12910086706630     -0.01171859069039
  C   -0.44380696662759     -0.36627117489033     -0.29307781122641
  F   1.25217562067050     -0.15284487322408      1.34352980814952
  H   -0.63890048851921     -0.26564671492787     -1.36364580068263
  H   1.61824319089874     -0.94610271665405     -0.46355289533701
  C   1.51133483207206      1.14773384549533     -0.56807953022042
  N   1.93009780692163      2.13821435653266     -1.03858709461976
  N   -1.24533573496699      0.72964356749751      0.38518853378177
  O   -1.67674130951082      0.50109376574218      1.50607191976063
  O   -1.34556386538419      1.76575780424035     -0.26206782023907
  C   -0.85374107073000     -1.67450978282062      0.19796281105497
  N   -1.15546860543502     -2.74696720992478      0.56797647026878
