12
Coordinates from ORCA-job run
  C   1.02834769958393     -0.21325256188865     -0.09897950919290
  C   -0.49316440165639     -0.30678363484761     -0.28094874016075
  F   1.32602221422461     -0.35037997969150      1.23222221883221
  H   -0.75334764684203     -0.11550620780435     -1.32502208015533
  H   1.49320777731765     -1.04022768800997     -0.64516057632145
  C   1.56148693456433      1.05814048532437     -0.60380769097632
  N   2.02872812501378      2.04826487605350     -1.02703543925442
  N   -1.14700954776515      0.80010268249110      0.52537603554674
  O   -1.20505189810601      1.88375655845088     -0.04442953952349
  O   -1.51477966757948      0.52842256944386      1.65934773333076
  C   -0.98030767671681     -1.60863615470675      0.15339234189475
  N   -1.34513191203841     -2.68290094481484      0.45504524598022
