12
Coordinates from ORCA-job run
  C   1.04568015139161      0.06196341968546     -0.40134688189344
  C   -0.41723411045618     -0.40712526894488     -0.44042641416879
  F   1.83715134665386     -1.02513620359272     -0.68052691022395
  H   -0.63096446930663     -0.77597040997494     -1.44706548334845
  H   1.19662237856395      0.81634292795053     -1.17609937359906
  C   1.38480847418987      0.61376338038860      0.91492380094111
  N   1.64361410564499      1.07201145840248      1.96443815828806
  N   -1.29338984667427      0.81654675100391     -0.24796286580577
  O   -1.16740925998040      1.66227147351530     -1.12730140106069
  O   -2.01396833445131      0.86925551549780      0.73755334139990
  C   -0.69494612190713     -1.42707969947322      0.55770434305919
  N   -0.89096431366833     -2.27584334445831      1.34510968641190
