12
Coordinates from ORCA-job run
  C   0.97927914571841     -0.05285880036317     -0.54259520022356
  C   -0.48743871501031     -0.44571467364929     -0.30608810524144
  F   1.69020681885569     -1.20921383182497     -0.75157069236251
  H   -0.85317727198044     -0.95486995016309     -1.20166053702943
  H   1.03960595323018      0.56530197993475     -1.44067872255280
  C   1.51998805240202      0.67607415440306      0.60961289726222
  N   1.94102161276731      1.27871249999094      1.52505621746535
  N   -1.28917257974815      0.83684985421081     -0.19484939998146
  O   -1.27431158740649      1.52347030356650     -1.21119384401466
  O   -1.84913095819804      1.08447144960318      0.86290761931266
  C   -0.65151690642107     -1.28486982802999      0.86973091872381
  N   -0.76435356420913     -2.01635315767873      1.78132884864182
