12
Coordinates from ORCA-job run
  C   1.01194827956383      0.02905341934773     -0.46858342325407
  C   -0.45041683883064     -0.42995584177952     -0.34649280138752
  F   1.74093768968907     -1.08600623071242     -0.81854106211928
  H   -0.70498130014921     -1.00124896134245     -1.24111597781147
  H   1.09087502703513      0.76009642224327     -1.27909179420487
  C   1.55451491844683      0.59295784791328      0.76971384812773
  N   2.04026372634212      1.02121515517622      1.74893640756824
  N   -1.36100681721846      0.77678878975625     -0.34462809754792
  O   -2.29225676711968      0.75584237934946     -1.13972017779338
  O   -1.07570352066489      1.66764011170336      0.44722151353829
  C   -0.68610669786360     -1.22154974865214      0.85276926075994
  N   -0.86906769923046     -1.86583334300306      1.81753230412432
