13
Coordinates from ORCA-job run
  C   -0.56581310258354     -0.34877247306591     -0.29175267159697
  C   0.93293455375395     -0.17364062475037      0.04599752259893
  Br  -0.80601695078544     -1.86996208134487     -1.45818531189932
  H   1.27264326958324     -1.11079307766828      0.50056445534287
  C   -1.13201380935448      0.84619821797747     -0.88790651292977
  N   -1.54563647530490      1.82790364565340     -1.38778098432124
  N   -1.31101436165995     -0.66978670172200      1.02414769291451
  O   -2.45052558346144     -0.24572255226934      1.11978608128167
  O   -0.69142517900273     -1.35781017852899      1.82148765285977
  C   1.08598446122206      0.91255720727555      1.01971982577463
  N   1.18125224149482      1.78265028017903      1.80325664056093
  C   1.70260651116476      0.09711123763030     -1.16904334318470
  N   2.32902442493366      0.31106710063402     -2.13929104740134
