13
Coordinates from ORCA-job run
  C   -0.59529738999685     -0.14969412757889     -0.33910139836364
  C   0.75833757172812      0.38730636650115      0.20134327578405
  Br  -0.40491624050966     -0.94295727677539     -2.06867560238762
  H   0.55080887264891      0.81218680853338      1.19198386207111
  C   -1.58334264390701      0.91579730685154     -0.36665006606918
  N   -2.36776068022939      1.79262151158971     -0.38555418666568
  N   -1.06914859128924     -1.19443034605867      0.72302117578247
  O   -1.19960256791190     -0.70414228679009      1.83676319984963
  O   -1.24232862290589     -2.34605074509746      0.37859232234275
  C   1.27849316581196      1.43973534343680     -0.67125264821391
  N   1.68897001663013      2.29979856735965     -1.35783139545843
  C   1.71518483717579     -0.71109857785259      0.35477387896430
  N   2.46960227275504     -1.59907254411914      0.50358758236416
