13
Coordinates from ORCA-job run
  C   -0.58592656350856     -0.13916184037998     -0.35568741607098
  C   0.75116326459993      0.38689836636359      0.23394807867247
  Br  -0.35704191266716     -0.84428939341957     -2.11836823939145
  H   0.52121087158331      0.75977463593150      1.24038554866063
  C   -1.58830749334600      0.91326239789900     -0.34812008937788
  N   -2.38879687499497      1.77563218363722     -0.33867075581092
  N   -1.06443343281421     -1.24078337317018      0.64579056197029
  O   -1.21950465362912     -0.80761801419973      1.77981586119351
  O   -1.21806566364811     -2.37588759323920      0.24245843122997
  C   1.27134749569515      1.48709652803048     -0.57762523844131
  N   1.67754247778979      2.38393304055995     -1.21807271834309
  C   1.71971204430189     -0.70593605996007      0.34934887436727
  N   2.48210044063806     -1.59192087805301      0.46579710134147
