13
Coordinates from ORCA-job run
  C   -0.57592454479522     -0.31228576873642     -0.40394031120593
  C   0.83086091635508      0.33156637111711     -0.38035030553342
  Br  -0.60438457397062     -1.81066338738095     -1.62324855542945
  H   0.98541125424130      0.74315538059794     -1.38691134175924
  C   -1.57288839856607      0.66917526111574     -0.79792575103328
  N   -2.33956261396741      1.49509370089186     -1.13640973682187
  N   -0.95880260414982     -0.84392779221903      0.99595266835741
  O   -0.04140853251947     -0.97185950778942      1.79273730700788
  O   -2.13954826738598     -1.10464968606889      1.15174519357999
  C   1.90470836190955     -0.63086146526784     -0.12265619107785
  N   2.80464580520108     -1.37023155225137      0.02618671521000
  C   0.85542316796619      1.44412633118424      0.57494545212392
  N   0.85347002968139      2.36036211480703      1.30987485658183
