14

C	0.0	0.0	0.0
C	-0.211072	0.232178	-1.530001
Cl	1.851115	0.0	0.0
H	0.557078	-0.367341	-2.024052
H	-0.249221	0.898319	0.572618
H	0.063949	1.277945	-1.713951
N	-0.617374	-1.194042	0.445369
H	-1.641462	-0.921115	0.295566
H	-0.490079	-1.260896	1.451602
C	-1.534373	-0.091219	-2.213611
H	-1.696864	-1.170619	-2.202586
H	-2.379071	0.344794	-1.685483
H	-1.459175	0.232069	-3.260333
F	-2.935355	0.0	0.0
