14

C	0.0	0.0	0.0
C	-0.221629	-0.198629	-1.532137
Cl	1.794787	0.0	0.0
H	0.233435	-1.175569	-1.732067
H	-0.274874	1.01889	0.293022
H	0.41874	0.540675	-2.024799
N	-0.631708	-1.026314	0.750188
H	-1.653391	-0.781204	0.522731
H	-0.507062	-0.818317	1.736698
C	-1.585902	-0.153584	-2.212395
H	-2.299487	-0.827157	-1.754595
H	-2.041978	0.832966	-2.137911
H	-1.416639	-0.395129	-3.27385
F	-2.913231	0.0	0.0
