14

C	0.0	0.0	0.0
C	-0.457805	-0.11906	-1.451469
Cl	1.80058	0.0	0.0
H	-1.548517	-0.1806	-1.332134
H	-0.296792	0.97936	0.377141
H	-0.064844	-1.061446	-1.857334
N	-0.563693	-0.982058	0.87758
H	-0.431209	-1.890316	0.437088
H	-1.586108	-0.736959	0.75281
C	-0.07327	1.053526	-2.343589
H	1.009575	1.159641	-2.452787
H	-0.466999	1.984516	-1.923219
H	-0.506191	0.939292	-3.342836
F	-2.853113	0.0	0.0
