14

C	0.0	0.0	0.0
C	-0.474925	0.107542	-1.444292
Cl	1.800126	0.0	0.0
H	-1.552213	0.280095	-1.327604
H	-0.2498	0.941779	0.502006
H	0.00492	0.977159	-1.907495
N	-0.582954	-1.147871	0.622478
H	-1.608682	-0.909194	0.469058
H	-0.410096	-1.087645	1.621752
C	-0.219727	-1.149655	-2.264544
H	0.843966	-1.400072	-2.310099
H	-0.583019	-1.016382	-3.288868
H	-0.748061	-1.991436	-1.819155
F	-2.871873	0.0	0.0
