14

C	0.0	0.0	0.0
C	-0.464556	-0.104605	-1.454493
Cl	1.799812	0.0	0.0
H	0.028037	0.674861	-2.048092
H	-0.282149	0.988633	0.362437
H	-1.539706	0.097578	-1.35868
N	-0.568244	-0.948932	0.907478
H	-0.409817	-1.881092	0.536518
H	-1.592863	-0.718831	0.761127
C	-0.242731	-1.471242	-2.08919
H	0.799467	-1.798572	-2.021387
H	-0.519688	-1.451309	-3.14712
H	-0.878243	-2.219704	-1.609508
F	-2.854938	0.0	0.0
