18

C	-0.59074	-0.042637	-1.406753
C	0.0	0.0	0.0
F	-0.154147	-1.188896	-2.036962
H	1.096939	0.0	0.0
C	-2.0925	-0.003021	-1.458585
H	-2.470322	-0.862072	-0.906475
H	-2.427241	-0.050954	-2.495491
H	-2.456176	0.917663	-1.00946
N	-0.023654	1.107528	-2.217809
O	-0.698643	2.135228	-2.290826
O	1.066293	0.92346	-2.743696
N	-0.493127	-1.20652	0.702353
H	0.065499	-1.262168	1.553125
H	-0.201073	-2.009454	0.149234
N	-0.449953	1.2072	0.666331
H	0.309037	1.585183	1.213591
H	-1.226954	0.983108	1.27367
Cl	3.441165	0.0	0.0
