18

C	-0.532895	0.071706	-1.422885
C	0.0	0.0	0.0
F	-1.88504	0.364225	-1.371899
H	1.092119	0.0	0.0
C	0.181136	1.06788	-2.294155
H	0.024149	2.054761	-1.858821
H	-0.221203	1.037436	-3.30983
H	1.248482	0.841361	-2.296456
N	-0.43597	-1.305991	-2.052685
O	0.696245	-1.682026	-2.324942
O	-1.471984	-1.933121	-2.24505
N	-0.448268	-1.235649	0.621166
H	-1.402092	-1.153634	0.949607
H	0.157511	-1.450405	1.399871
N	-0.373168	1.264662	0.636144
H	0.281555	1.447054	1.385719
H	-1.309021	1.207237	1.017047
Cl	3.423091	0.0	0.0
