18

C	-0.522542	0.055045	-1.439868
C	0.0	0.0	0.0
F	0.011841	-0.987694	-2.129541
H	1.097917	0.0	0.0
C	-2.025716	0.00578	-1.564861
H	-2.346466	-0.937904	-1.126352
H	-2.487463	0.835063	-1.033938
H	-2.307347	0.033737	-2.6205
N	-0.034274	1.311231	-2.158638
O	0.768446	1.194081	-3.071501
O	-0.538617	2.374779	-1.78497
N	-0.443634	-1.282496	0.546832
H	0.366076	-1.783789	0.891404
H	-1.069454	-1.082468	1.317536
N	-0.545756	1.093004	0.810225
H	0.140207	1.272266	1.538234
H	-0.590301	1.93991	0.255102
Cl	3.418702	0.0	0.0
