18

C	-0.557442	0.11774	-1.412193
C	0.0	0.0	0.0
F	-1.93075	0.136418	-1.359686
H	1.095634	0.0	0.0
C	-0.057375	1.319122	-2.167325
H	1.032803	1.325736	-2.159768
H	-0.425521	1.300399	-3.195841
H	-0.444183	2.20597	-1.664646
N	-0.193971	-1.139481	-2.183187
O	0.983438	-1.240211	-2.504931
O	-1.084275	-1.943927	-2.433796
N	-0.471391	-1.235397	0.570468
H	-1.44348	-1.162504	0.843078
H	0.102668	-1.492251	1.361145
N	-0.444385	1.217525	0.730799
H	-0.599225	0.936804	1.692381
H	0.349386	1.852396	0.756286
Cl	3.429554	0.0	0.0
