18

C	-0.399153	-0.017707	-1.470334
C	0.0	0.0	0.0
F	0.075347	1.126603	-2.059668
H	1.101194	0.0	0.0
C	0.10267	-1.218331	-2.218612
H	-0.163355	-1.134461	-3.274906
H	1.188676	-1.232742	-2.109288
H	-0.317847	-2.120513	-1.784816
N	-1.916467	0.07939	-1.580977
O	-2.546846	-0.929801	-1.270657
O	-2.411188	1.140848	-1.943905
N	-0.411424	-1.214879	0.665281
H	-1.346781	-1.096005	1.033343
H	0.231446	-1.403029	1.423123
N	-0.580359	1.19885	0.61976
H	-0.084512	1.333872	1.495437
H	-0.339772	2.000059	0.043928
Cl	3.432435	0.0	0.0
