18

C	-0.493114	0.029395	-1.445
C	0.0	0.0	0.0
F	-1.799142	0.446356	-1.49372
H	1.096659	0.0	0.0
C	0.366883	0.895235	-2.326157
H	0.31865	1.908561	-1.927929
H	-0.012391	0.877659	-3.351004
H	1.401595	0.550502	-2.279458
N	-0.49629	-1.372948	-2.030206
O	-1.463059	-1.720389	-2.700147
O	0.513401	-2.041866	-1.828635
N	-0.576323	-1.154931	0.70795
H	-0.375181	-1.006146	1.691624
H	-0.03621	-1.974212	0.444216
N	-0.413067	1.258601	0.586551
H	0.200897	1.479458	1.359506
H	-1.370066	1.181786	0.910897
Cl	3.472043	0.0	0.0
