18

C	-0.436407	0.073489	-1.472267
C	0.0	0.0	0.0
F	-1.703945	0.6033	-1.576706
H	1.097768	0.0	0.0
C	0.519498	0.859841	-2.33089
H	0.53927	1.889707	-1.970479
H	0.184368	0.852503	-3.371148
H	1.524586	0.446348	-2.232764
N	-0.534699	-1.325459	-2.047616
O	0.459537	-2.027961	-1.894998
O	-1.554168	-1.64326	-2.649011
N	-0.619601	-1.162347	0.636946
H	0.010448	-1.950156	0.529156
H	-0.650101	-0.935868	1.623517
N	-0.404528	1.196763	0.717875
H	0.332509	1.885787	0.671022
H	-1.26312	1.578314	0.345389
Cl	3.473219	0.0	0.0
