13

C	-0.149741	0.018962	-1.503198
C	0.0	0.0	0.0
Cl	-1.814327	0.504443	-2.036579
H	1.092503	0.0	0.0
H	-0.005442	-0.990364	-1.883071
H	-0.403558	0.885683	0.486499
N	0.836261	0.900555	-2.102098
H	0.629587	1.846061	-1.795195
H	1.713141	0.64478	-1.613207
N	-0.568972	-1.175411	0.65749
O	-1.011922	-1.033869	1.801082
O	-0.54442	-2.253939	0.060906
F	2.610327	0.0	0.0
