13

C	-0.476993	-0.041017	-1.415454
C	0.0	0.0	0.0
Cl	-2.426251	-0.289677	-1.389456
H	1.092113	0.0	0.0
H	-0.189417	-0.999393	-1.843162
H	-0.349142	-0.877145	0.540006
N	-0.102478	1.01155	-2.23728
H	-0.48709	0.948666	-3.166755
H	-0.262493	1.906837	-1.800541
N	-0.475429	1.150163	0.766927
O	-0.724878	0.980192	1.961554
O	-0.545571	2.255639	0.212109
F	2.521886	0.0	0.0
