13

C	-0.208997	-0.2396	-1.508927
C	0.0	0.0	0.0
Cl	-0.672809	1.374955	-2.251146
H	1.088706	0.0	0.0
H	-1.069202	-0.879862	-1.713589
H	-0.471135	0.88053	0.420171
N	0.960672	-0.762894	-2.142735
H	1.775874	-0.48462	-1.568264
H	0.89762	-1.771995	-2.102107
N	-0.494063	-1.161141	0.742547
O	-0.324772	-2.280743	0.249883
O	-1.048522	-0.972743	1.829467
F	2.620668	0.0	0.0
