13

C	-0.51614	0.059753	-1.415989
C	0.0	0.0	0.0
Cl	-0.162763	-1.554998	-2.250043
H	1.086614	0.0	0.0
H	0.149314	0.744759	-1.940427
H	-0.342978	0.909838	0.506631
N	-1.87125	0.471208	-1.564487
H	-2.460263	-0.175429	-1.055507
H	-2.138022	0.475251	-2.540797
N	-0.589869	-1.112999	0.783514
O	0.098891	-1.640968	1.652988
O	-1.766501	-1.437268	0.557156
F	2.592483	0.0	0.0
