13

C	-0.53886	-0.004567	-1.42296
C	0.0	0.0	0.0
Cl	-0.057726	-1.548871	-2.218927
H	1.087843	0.0	0.0
H	0.014454	0.775887	-1.951566
H	-0.40245	0.8872	0.502048
N	-1.959171	0.192603	-1.641005
H	-2.170506	1.165394	-1.436346
H	-2.449108	-0.370862	-0.954172
N	-0.544183	-1.154744	0.765211
O	-1.778139	-1.219982	0.914388
O	0.233261	-1.989725	1.215551
F	2.605647	0.0	0.0
