13

C	-0.46579	-0.021526	-1.417632
C	0.0	0.0	0.0
Cl	-2.392943	-0.147292	-1.449618
H	1.091243	0.0	0.0
H	-0.190393	-0.948449	-1.911134
H	-0.391827	0.856673	0.548765
N	-0.027171	1.100611	-2.130611
H	-0.39511	1.129241	-3.069212
H	-0.226447	1.964194	-1.64668
N	-0.435622	-1.194188	0.723836
O	-0.38758	-2.276774	0.135598
O	-0.766529	-1.064672	1.905533
F	2.530011	0.0	0.0
