13

C	-0.199568	-0.215087	-1.517623
C	0.0	0.0	0.0
Cl	-0.6739	1.412555	-2.231426
H	1.088707	0.0	0.0
H	-1.052102	-0.852596	-1.741483
H	-0.475573	0.87476	0.430547
N	0.978558	-0.709801	-2.151137
H	0.927146	-1.720144	-2.146249
H	1.788772	-0.442283	-1.56212
N	-0.503091	-1.177858	0.71143
O	-1.118574	-1.01419	1.768064
O	-0.288703	-2.285682	0.210031
F	2.627849	0.0	0.0
