16
Coordinates from ORCA-job run
  C   -0.43104281062772      0.25167281728430     -0.37961966831991
  C   0.84906744218607     -0.51878886642214     -0.12728712601958
  F   -0.13190981875759      1.45400681717482     -0.95850989223443
  H   1.30309482453744     -0.68777729584037     -1.10880781504783
  H   0.58412671978551     -1.49292485289004      0.28906726771097
  N   -1.04903130905281      0.56660630132329      0.97778885435886
  O   -1.40205842071389     -0.41598270159278      1.62479680468710
  O   -1.12824333082385      1.73592383920347      1.32702524032647
  C   -1.46688013114456     -0.45629837848877     -1.21704985192995
  H   -1.03943525292564     -0.67188247146050     -2.19761139898799
  H   -1.77510143556964     -1.38514788798934     -0.74017316548672
  H   -2.33634484751529      0.19069905866006     -1.34886307694049
  C   1.81806815552364      0.22033464198072      0.78964064638605
  H   1.42165369583587      0.30184308548500      1.80389966219433
  H   2.01846085314208      1.22576758260552      0.41762310199959
  H   2.76557566612038     -0.31805168903325      0.84808041730353
