16
Coordinates from ORCA-job run
  C   -0.46159650621381      0.42801210567369     -0.18071777943731
  C   0.71678524204180      0.13906061070986      0.72955258284191
  F   -0.10843535358337      1.39455115967751     -1.08165535939613
  H   0.98981300603755      1.08771239583832      1.20380972170661
  H   0.38251788620564     -0.53849507248481      1.51775913165384
  N   -1.56240169938729      1.02824444585502      0.68870292013433
  O   -2.03830229458000      0.26402024250585      1.52428738201012
  O   -1.87802918903426      2.19558357585447      0.50588873085237
  C   -1.04954849657904     -0.74628160034087     -0.92388779682931
  H   -1.92893351617622     -0.41954879925906     -1.48220684963126
  H   -0.31469820720222     -1.12771971484199     -1.63281492263762
  H   -1.33676727489139     -1.53530086726323     -0.23067797634142
  C   1.91359355428012     -0.43423971129249     -0.02187117773948
  H   2.19116980279491      0.20684349303494     -0.85983528561221
  H   2.77369570622786     -0.50460624055572      0.64648978379451
  H   1.71113734005973     -1.43683602311149     -0.40282310536895
