16
Coordinates from ORCA-job run
  C   -0.47566362481007      0.40821943193750     -0.18915129166190
  C   0.73085831525765      0.18859002969005      0.70345928058771
  F   -0.16674895340966      1.33753833305915     -1.14378809607460
  H   0.43152641581400     -0.45842190533538      1.53042500203746
  H   0.99316085874317      1.16415928467539      1.12639820852683
  N   -1.56797188120908      1.02598568372692      0.67871544079752
  O   -2.00525108667432      0.29331860370593      1.56237080237771
  O   -1.91471890737271      2.17600818316918      0.44829704551906
  C   -1.05524061044157     -0.81276305789131     -0.86019962740905
  H   -0.32903445073613     -1.21335437106550     -1.56747231258943
  H   -1.95407599010761     -0.53147585464095     -1.41226201757247
  H   -1.30932749981056     -1.57261872992014     -0.12288235256479
  C   1.92246381671912     -0.39246808632865     -0.05021473232441
  H   1.73363298649447     -1.41514981011732     -0.38154706465135
  H   2.16647280143008      0.21616825460149     -0.92213361095734
  H   2.79891781011322     -0.41473598926636      0.59998532595906
