16
Coordinates from ORCA-job run
  C   -0.42910528034808      0.25105500915904     -0.38234895414098
  C   0.84587221445540     -0.52550415770402     -0.12262314394241
  F   -0.12176445418346      1.44583623599879     -0.97233675640851
  H   0.57503835221315     -1.49471588729318      0.30122083513714
  H   1.29939615841576     -0.70488854269989     -1.10256443305666
  N   -1.04503033676901      0.58261149343790      0.97169191896110
  O   -1.11777727985905      1.75540858891241      1.31036581508194
  O   -1.40286949421626     -0.39184035023051      1.62829587950495
  C   -1.46963552095392     -0.45760633402028     -1.21339974710863
  H   -2.33554275866765      0.19320197922565     -1.34976847022715
  H   -1.04403381815996     -0.68329953798001     -2.19249223108615
  H   -1.78271977804937     -1.38094303175627     -0.72902976106137
  C   1.81858029929670      0.21528844159319      0.78913264102818
  H   1.42393524500795      0.30194170010868      1.80364755053249
  H   2.76492134152952     -0.32507529325557      0.84803840261440
  H   2.02073511028827      1.21852968650407      0.41217045417167
