16
Coordinates from ORCA-job run
  C   -0.55469571996217      0.45323498614816     -0.41704078717693
  C   0.95379962365182      0.52762639684504     -0.28404262267944
  F   -0.97004962261720      1.50877415454519     -1.19077603446999
  H   1.36385314302393      0.36069327173802     -1.28484897968034
  H   1.18729222983604      1.55897723251416     -0.00496755728607
  N   -1.13164025326289      0.71254170601734      0.97149268816197
  O   -1.10997935328034      1.87318631262436      1.36320273544180
  O   -1.50903804780934     -0.26395468246285      1.61521138954297
  C   -1.12423735861132     -0.81679611199813     -0.98991153625089
  H   -0.74275578759186     -0.92955178963336     -2.00638987225676
  H   -2.21201363625013     -0.74878766747928     -1.02745817348661
  H   -0.85038199664291     -1.68638777951749     -0.39804053408528
  C   1.55142139130625     -0.45163217147732      0.72041490010374
  H   1.19761407057263     -0.25544250512992      1.73393012527096
  H   1.31230127504927     -1.48748698515268      0.47397782038160
  H   2.63851004258821     -0.35499436758126      0.72624643846926
