16
Coordinates from ORCA-job run
  C   -0.54612514170833      0.46535742433045     -0.41598051379811
  C   0.96286469072141      0.51490946890833     -0.27530487839489
  F   -0.94073766677565      1.53323903321930     -1.18333416079272
  H   1.21149502718682      1.54055056039243      0.01168789741636
  H   1.37463582256942      0.34831073709400     -1.27551814925417
  N   -1.12557648949628      0.72212284846623      0.97164885768143
  O   -1.51235560258485     -0.25533573445693      1.60834443954792
  O   -1.09584850711895      1.88021464627130      1.37020104356079
  C   -1.13255241202256     -0.79119529182561     -1.00158583430797
  H   -2.21922195800810     -0.70772909324602     -1.04036902257863
  H   -0.87178996637235     -1.66964719057254     -0.41688025226620
  H   -0.75089106916008     -0.90038069443393     -2.01836783069418
  C   1.54174093082745     -0.48071965402688      0.72396498392487
  H   2.63013274465437     -0.40040390452644      0.73424788716573
  H   1.28800629697303     -1.51090710312976      0.46849539066055
  H   1.18722330031463     -0.28738605246393      1.73775014212921
