14

C	-0.480915	0.065596	-1.448531
C	0.0	0.0	0.0
F	-0.18119	-1.108542	-2.111378
H	1.094719	0.0	0.0
C	-1.947849	0.255932	-1.504861
N	-3.116019	0.384104	-1.51912
C	0.159089	1.194325	-2.155535
N	0.606731	2.090178	-2.768073
C	-0.505993	-1.199777	0.643199
N	-0.87616	-2.16002	1.214625
N	-0.360731	1.248601	0.650389
H	0.471353	1.589228	1.12631
H	-1.114756	1.142357	1.3149
H	2.573246	0.0	0.0
