14

C	-0.491304	0.064983	-1.44529
C	0.0	0.0	0.0
F	-0.212222	-1.116346	-2.105372
H	1.09472	0.0	0.0
C	-1.955002	0.273383	-1.485724
N	-3.121939	0.413853	-1.476365
C	0.158504	1.180945	-2.161976
N	0.609297	2.063836	-2.791462
C	-0.514716	-1.190549	0.65284
N	-0.896891	-2.14091	1.233377
N	-0.345449	1.256318	0.646211
H	-1.096303	1.158239	1.315394
H	0.494388	1.589593	1.114512
H	2.570343	0.0	0.0
