14

C	-0.477458	-0.046609	-1.454304
C	0.0	0.0	0.0
F	0.116468	0.977598	-2.156312
H	1.101418	0.0	0.0
C	-0.130434	-1.325783	-2.106147
N	0.106404	-2.339699	-2.649779
C	-1.940731	0.147753	-1.532489
N	-3.103855	0.310088	-1.573591
C	-0.494598	-1.155721	0.727044
N	-0.881045	-2.071911	1.357873
N	-0.371623	1.27959	0.578584
H	0.474837	1.669261	0.986561
H	-1.079356	1.187098	1.294141
H	2.573833	0.0	0.0
