14

C	-0.48457	0.065006	-1.447585
C	0.0	0.0	0.0
F	-0.204951	-1.116777	-2.105422
H	1.09473	0.0	0.0
C	-1.948129	0.276858	-1.496831
N	-3.114705	0.420112	-1.500678
C	0.168265	1.17913	-2.164678
N	0.617394	2.058148	-2.800375
C	-0.509962	-1.1947	0.649626
N	-0.883647	-2.150767	1.225997
N	-0.351795	1.254124	0.645826
H	0.479481	1.581383	1.132479
H	-1.116736	1.157094	1.299447
H	2.571333	0.0	0.0
