14

C	-0.387073	0.051683	-1.46992
C	0.0	0.0	0.0
F	-1.77846	0.178562	-1.622925
H	1.095969	0.0	0.0
C	0.205178	1.24381	-2.10749
N	0.631272	2.194931	-2.648616
C	0.025548	-1.158212	-2.199596
N	0.328466	-2.122929	-2.796631
C	-0.537935	-1.210241	0.604407
N	-0.937867	-2.198707	1.101649
N	-0.365909	1.190627	0.733658
H	0.434179	1.816678	0.725889
H	-1.187422	1.650354	0.363017
H	2.563647	0.0	0.0
