14

C	-0.491906	0.081415	-1.447054
C	0.0	0.0	0.0
F	-0.21132	-1.092208	-2.117082
H	1.094713	0.0	0.0
C	-1.955963	0.291375	-1.486473
N	-3.119557	0.451474	-1.487396
C	0.160189	1.207401	-2.146738
N	0.639505	2.113741	-2.719835
C	-0.517928	-1.20048	0.632446
N	-0.931696	-2.155534	1.182045
N	-0.351237	1.244487	0.663609
H	0.485065	1.570892	1.14269
H	-1.107566	1.132935	1.324758
H	2.575335	0.0	0.0
