14

C	-0.477517	0.044383	-1.456615
C	0.0	0.0	0.0
F	0.116548	1.111587	-2.089265
H	1.095095	0.0	0.0
C	-0.133731	-1.190659	-2.189729
N	0.074671	-2.175565	-2.793425
C	-1.940989	0.24253	-1.518995
N	-3.105214	0.401511	-1.537523
C	-0.498075	-1.203728	0.64619
N	-0.908915	-2.163765	1.190114
N	-0.376044	1.23832	0.658067
H	-1.100298	1.107062	1.351662
H	0.464059	1.599889	1.102517
H	2.586639	0.0	0.0
