14

C	0.0	0.0	0.0
C	-0.565438	0.032593	-1.408722
F	1.409229	0.0	0.0
H	-0.315866	0.964705	-1.908477
H	-1.659829	-0.093886	-1.304581
C	-0.334412	1.289878	0.656334
N	-0.465904	2.332781	1.178163
N	-0.493913	-1.064502	0.759114
H	-0.48957	-1.940367	0.262266
H	-0.081367	-1.114659	1.677083
N	-0.007459	-1.048021	-2.261066
O	-0.013598	-2.199326	-1.823833
O	0.403274	-0.73005	-3.375712
Cl	-3.673085	0.0	0.0
