14

C	0.0	0.0	0.0
C	-0.511423	-0.008196	-1.432677
F	1.409248	0.0	0.0
H	-1.591913	-0.217234	-1.389525
H	-0.303259	0.937107	-1.926252
C	-0.351549	1.291984	0.633481
N	-0.48507	2.343	1.138413
N	-0.494757	-1.063759	0.757384
H	-0.142936	-1.072564	1.701611
H	-0.418171	-1.951063	0.286642
N	0.19554	-1.047446	-2.227258
O	0.173779	-2.206116	-1.810558
O	0.751846	-0.690016	-3.263778
Cl	-3.642815	0.0	0.0
