14

C	0.0	0.0	0.0
C	-0.543886	0.278803	-1.386952
F	1.372436	0.0	0.0
H	-1.633358	0.404536	-1.309594
H	-0.315291	-0.565712	-2.034991
C	-0.347319	1.06736	0.986443
N	-0.533882	1.825996	1.862697
N	-0.475885	-1.296166	0.379251
H	-1.501516	-1.256408	0.323947
H	-0.239767	-1.451287	1.355018
N	0.023276	1.482838	-2.042235
O	-0.126359	1.54456	-3.261278
O	0.581198	2.334238	-1.353606
Cl	-3.533462	0.0	0.0
