14

C	0.0	0.0	0.0
C	-0.440307	-0.123784	-1.467723
F	1.381542	0.0	0.0
H	-1.523904	-0.286268	-1.474493
H	-0.160813	0.757921	-2.040666
C	-0.395311	1.354176	0.461579
N	-0.549056	2.465535	0.805828
N	-0.469911	-0.97425	0.921215
H	-1.478448	-0.822557	1.014494
H	-0.339518	-1.888692	0.502156
N	0.243005	-1.265381	-2.126331
O	0.842358	-1.039856	-3.177029
O	0.165934	-2.373397	-1.591148
Cl	-3.44964	0.0	0.0
