14

C	0.0	0.0	0.0
C	-0.498452	0.008231	-1.433801
F	1.398984	0.0	0.0
H	-0.340058	-0.977305	-1.86345
H	-1.562267	0.273199	-1.431953
C	-0.331412	1.245115	0.747
N	-0.499925	2.170754	1.450047
N	-0.48632	-1.187052	0.622726
H	-0.328943	-1.118404	1.62329
H	-1.505738	-1.179439	0.48912
N	0.251166	0.971189	-2.275582
O	0.718312	0.549107	-3.333815
O	0.336815	2.130277	-1.878485
Cl	-3.489358	0.0	0.0
