14

C	0.0	0.0	0.0
C	-0.487434	-0.059808	-1.444719
F	1.378636	0.0	0.0
H	-1.575803	-0.157066	-1.44341
H	-0.146115	0.822159	-1.982272
C	-0.35391	1.339912	0.55827
N	-0.528041	2.395563	1.04332
N	-0.47749	-1.10625	0.747604
H	-0.266429	-0.964253	1.729196
H	-1.496916	-1.124347	0.640305
N	0.123912	-1.229973	-2.127847
O	1.15888	-1.024965	-2.766787
O	-0.436653	-2.317166	-2.014369
Cl	-3.492377	0.0	0.0
