10
Coordinates from ORCA-job run
  C   1.11910128021212     -0.21437028424092      0.17087020272283
  C   -0.23642296721507      0.47358229248703      0.17318948961607
  H   1.90800456873832      0.46300690498856      0.50640783178656
  H   -0.19363769329511      1.36699582515383     -0.46902537890174
  H   1.09451421558435     -1.08491346952291      0.82804595298744
  H   1.37979916586165     -0.55657746178585     -0.83498727969208
  H   -0.46559348057114      0.82021328858708      1.18484998969193
  N   -1.27942210149749     -0.47763939178470     -0.21473276291114
  H   -1.13762707575993     -0.75593792260006     -1.17870652160853
  H   -2.18871591205769     -0.03435978128207     -0.16591152369135
