10
Coordinates from ORCA-job run
  C   1.03115434029947     -0.23940825056562      0.19565903142465
  C   -0.24055691160318      0.60216231502458      0.10181409112482
  H   1.30349306463103     -0.63811341931677     -0.78568481058163
  H   -0.06941622398507      1.45792300502806     -0.55757824982792
  H   0.88496835635226     -1.08560297383449      0.87297232361009
  H   1.87560070830226      0.34845993907398      0.56733665795703
  H   -0.48398492110852      1.01463782638767      1.08518629270261
  N   -1.42770296937871     -0.09810404330686     -0.38672706291444
  H   -1.24361431216922     -0.47457386020862     -1.30929296125680
  H   -1.62894113134033     -0.88638053828193      0.21731468776160
