17

C	-0.288503	-0.022255	-1.509153
C	0.0	0.0	0.0
Cl	-0.759213	1.680704	-2.110724
H	1.09249	0.0	0.0
N	0.779422	-0.563937	-2.168202
H	1.672345	-0.396271	-1.679244
H	0.788826	-0.450871	-3.16867
N	-1.599744	-0.767742	-1.843897
O	-1.657152	-1.355952	-2.915068
O	-2.507696	-0.66817	-1.025047
N	-0.376519	-1.335428	0.58902
O	-0.212772	-2.342353	-0.097564
O	-0.751495	-1.343067	1.76544
N	-0.476856	1.096543	0.745074
H	0.106676	1.198169	1.565563
H	-1.436803	0.955867	1.030251
H	2.647802	0.0	0.0
