17

C	-0.271374	0.011934	-1.513745
C	0.0	0.0	0.0
Cl	-0.087689	1.711659	-2.07896
H	1.10772	0.0	0.0
N	0.604451	-0.796871	-2.281767
H	1.540299	-0.620799	-1.894871
H	0.367428	-1.763361	-2.089145
N	-1.732607	-0.339952	-1.832477
O	-2.567578	0.167787	-1.08772
O	-1.973418	-1.065509	-2.784701
N	-0.395533	-1.318216	0.558144
O	-0.265174	-1.485869	1.766222
O	-0.755378	-2.211959	-0.230038
N	-0.438193	1.049463	0.841858
H	-1.278206	1.491835	0.499517
H	0.311789	1.720145	0.947237
H	2.579379	0.0	0.0
