17

C	-0.631499	-0.212587	-1.370037
C	0.0	0.0	0.0
Cl	0.093364	-1.492905	-2.367192
H	1.09568	0.0	0.0
N	-2.026293	-0.408637	-1.26648
H	-2.444362	-0.359176	-2.188329
H	-2.387083	0.358745	-0.705967
N	-0.316037	1.079287	-2.202019
O	0.766023	1.619359	-2.050261
O	-1.18936	1.424204	-2.997747
N	-0.380268	-1.107734	0.887546
O	-0.099788	-2.247477	0.512449
O	-0.862697	-0.84193	2.002686
N	-0.476222	1.272698	0.498887
H	-0.948112	1.095663	1.380249
H	0.358165	1.820751	0.701879
H	2.535247	0.0	0.0
