17

C	-0.210161	0.086743	-1.526167
C	0.0	0.0	0.0
Cl	-0.288112	1.927126	-2.000802
H	1.103954	0.0	0.0
N	0.769467	-0.607717	-2.165759
H	1.676824	-0.518033	-1.674627
H	0.800084	-0.502326	-3.167613
N	-1.60656	-0.349236	-1.99402
O	-1.689715	-0.941823	-3.062813
O	-2.542669	-0.063539	-1.252935
N	-0.470588	-1.360585	0.437746
O	0.133224	-2.335593	-0.011877
O	-1.418587	-1.424108	1.220744
N	-0.501626	0.993095	0.865848
H	0.161357	1.753465	0.907748
H	-1.418126	1.321172	0.599752
H	2.673598	0.0	0.0
