14

C	-0.402395	0.033399	-1.461217
C	0.0	0.0	0.0
Br	-0.171063	-1.651602	-2.369894
H	1.098577	0.0	0.0
H	0.194102	0.781503	-1.978634
N	-1.83655	0.457452	-1.635252
O	-2.645244	0.091299	-0.787252
O	-2.093873	1.138432	-2.623228
C	-0.495224	-1.164549	0.738184
N	-0.876934	-2.056438	1.401139
N	-0.397473	1.28305	0.575229
H	0.329982	1.586243	1.211277
H	-1.274587	1.203404	1.074229
Cl	3.238893	0.0	0.0
