13
Coordinates from ORCA-job run
  C   -0.57570809916013     -0.22824956407450     -0.64748589485154
  C   0.60647371213633     -0.12761136760468     -0.04745291986037
  H   -0.56534175917770     -0.71395142628834     -1.61985341784854
  C   -1.87805630356267      0.25094038524317     -0.10189024378478
  H   -1.79947894493371      0.62778978734039      0.91604415133064
  H   -2.61063880759432     -0.55913271398123     -0.13178748761330
  H   -2.26201528193693      1.05708977741250     -0.73356473376333
  N   0.80975659517060      0.43922444123729      1.28288030346267
  O   1.27382093159149     -0.32831792678205      2.12121635295651
  O   0.48067957849795      1.61038865879739      1.45343155755373
  N   1.85972374557071     -0.57661668164301     -0.67150763695421
  O   1.77234805322123     -1.38280461876809     -1.58807022883320
  O   2.88743658017715     -0.06874875088885     -0.23395980179430
