13
Coordinates from ORCA-job run
  C   -0.74274505203165      0.48892863079662     -0.10997769726100
  C   0.54933326034178      0.26799532128944      0.11242366035058
  H   -1.04193171197729      1.53387364913564     -0.11999216500786
  C   -1.78346048589566     -0.55546155981157     -0.33259531116057
  H   -2.17431380973358     -0.46780636225033     -1.35037350522581
  H   -1.40457520392305     -1.56732304349561     -0.20229044098083
  H   -2.62122636186593     -0.39244908620523      0.34958356390579
  N   1.52945184397447      1.35260145343929      0.27006053528426
  O   1.09872022373971      2.45953982410730      0.56464050062246
  O   2.69939279058246      1.05219547407915      0.05407045410833
  N   1.15227702880380     -1.05743657358681      0.22004657931521
  O   1.06645446539225     -1.79728014652067     -0.75685838037656
  O   1.67262301259268     -1.31737758097721      1.30126220642598
