13
Coordinates from ORCA-job run
  C   -0.78582678812046      0.42464917115376      0.06863544728487
  C   0.53834645726625      0.30757286554641      0.04392039348488
  H   -1.16168915120755      1.43152451585357      0.23125985471327
  C   -1.76583833827924     -0.68458755918564     -0.11187235216255
  H   -2.48626454042777     -0.41734904251962     -0.88863424866055
  H   -2.32857678521078     -0.82678253481687      0.81517277573507
  H   -1.29368950641710     -1.63087076713071     -0.36885043279118
  N   1.25070671496606     -0.94069940022498     -0.21340071632709
  O   1.05843140971782     -1.87089835256559      0.56561612478102
  O   1.96428172514897     -0.94812290408658     -1.21245872467674
  N   1.44479945369778      1.44001285684582      0.28426421659437
  O   0.98615015965289      2.56566106973352      0.14211968449215
  O   2.58116918921314      1.14889008139689      0.64422797753247
