13
Coordinates from ORCA-job run
  C   -0.66457864525764     -0.27568920818288     -0.53625520538286
  C   0.59468697943908     -0.11592540808411     -0.14041440365487
  H   -0.79622373165058     -0.82437419891248     -1.46520442074969
  C   -1.87386424406726      0.22796376929179      0.17641550394096
  H   -1.63192037052754      0.86643741240796      1.02402304698085
  H   -2.51053988262382      0.77884551837579     -0.51974116241491
  H   -2.45685594455177     -0.62011771687001      0.54696422064708
  N   0.99418421716044      0.63184482971520      1.04843743813837
  O   1.69645633427758      1.61801136337123      0.84489489705113
  O   0.57767148858509      0.23050567343967      2.13224346637394
  N   1.73942718297521     -0.68696981380832     -0.86507727495522
  O   1.56011007368658     -1.00868889187832     -2.03205440686255
  O   2.77144654255464     -0.82184332886553     -0.21523169911224
