13
Coordinates from ORCA-job run
  C   -0.67872711591506     -0.41932525758175     -0.40677997119046
  C   0.58963270716276     -0.09756783301641     -0.17115613179391
  H   -0.83600239649378     -1.14227428848951     -1.20310954474541
  C   -1.86792175954691      0.12682364268182      0.30782588043812
  H   -2.59118068033781      0.50734360483342     -0.41735950909926
  H   -2.35971207783069     -0.67778291287064      0.86207293819444
  H   -1.61506344167556      0.91651310696857      1.01269467633865
  N   1.71634768295498     -0.71828138233471     -0.88350410301837
  O   1.47277443657207     -1.26191860855954     -1.95253724507726
  O   2.80313832235554     -0.66459942317228     -0.31640035212831
  N   1.01966872811168      0.89002201255600      0.81460263553321
  O   1.62644658895099      1.85837171356784      0.36578182019110
  O   0.71959900569178      0.68367562541721      1.98786890635747
