13
Coordinates from ORCA-job run
  C   -0.74647827228459      0.48407484672321     -0.10244574237044
  C   0.55646691054942      0.27157958993010      0.05554367207071
  H   -1.04426848469240      1.52755014003433     -0.16578224912275
  C   -1.79866998094758     -0.56708750562078     -0.20770327232291
  H   -2.40332624101575     -0.39530019602371     -1.10138985340030
  H   -2.46917264587886     -0.49729765129105      0.65368598473552
  H   -1.39093387614501     -1.57568917447819     -0.23707359558193
  N   1.17512417772236     -1.04988991555263      0.10998652662918
  O   0.81206502000623     -1.80624357667584      1.00737440541210
  O   1.99182273914114     -1.29032620068142     -0.77461158827097
  N   1.53109742330255      1.36258040809873      0.20399322358109
  O   1.19491714470298      2.47202629047340     -0.18819269155179
  O   2.59035608553951      1.06402294506386      0.74661518019249
