13
Coordinates from ORCA-job run
  C   -0.74821369432357      0.47013056811683     -0.14921932237691
  C   0.55001241254837      0.28177262220367      0.06746040808810
  H   -1.05762156543014      1.50626167175350     -0.25945389933228
  C   -1.78129756945390     -0.59968522974116     -0.25788503666789
  H   -1.35840098113368     -1.60227958048443     -0.23933884953806
  H   -2.48362211956020     -0.51223263220001      0.57605805912836
  H   -2.35494655884188     -0.46646415733596     -1.17815385891256
  N   1.50405982946852      1.39037952410271      0.21746780194025
  O   2.54423065973744      1.12490053616640      0.81161899953236
  O   1.17017450074215      2.48109187348748     -0.22577539824731
  N   1.18296190347646     -1.02836783511708      0.19103015661121
  O   2.03536336258659     -1.28704219014468     -0.65385993781546
  O   0.79629982018385     -1.75846517080727      1.10005087759019
