13
Coordinates from ORCA-job run
  C   -0.69937548731992      0.43248794302559     -0.36049191563017
  C   0.54273649443135      0.28844201448465      0.09133993450557
  H   -0.95032664299063      1.42245471830009     -0.73239790264572
  C   -1.74200932755721     -0.63292257387342     -0.39939764398431
  H   -1.37259989437378     -1.60026022349370     -0.06406769929449
  H   -2.57875655158675     -0.34635612970935      0.24377077621622
  H   -2.13417988310655     -0.72979620842263     -1.41479866445703
  N   1.50740641532023      1.39694761606729      0.14920164684051
  O   1.27162574901854      2.38100152132930     -0.53884701328947
  O   2.45389071993014      1.24428720751898      0.91496553721010
  N   1.09705554051770     -0.96789570700989      0.58791708481265
  O   0.57332216965321     -1.46163810316024      1.58329163330954
  O   2.03221069806367     -1.42775207505667     -0.06148577359341
