13
Coordinates from ORCA-job run
  C   -0.64000427788315     -0.36623154265729     -0.50729078943312
  C   0.59630212413226     -0.16611032587593     -0.06103014168481
  H   -0.73553770530286     -1.09974205874605     -1.30379955077592
  C   -1.87215548880498      0.30845453533455     -0.00742555909739
  H   -2.62254908908347     -0.44168607098027      0.25339416897229
  H   -2.29666239937557      0.92614602476866     -0.80403294351209
  H   -1.68737996335081      0.94805319900352      0.85348962391478
  N   0.94053024837909      0.73243613509064      1.03734094177999
  O   0.65954890738971      1.92072309035535      0.90321946793801
  O   1.46149313416559      0.20097845037393      2.01376915100144
  N   1.77199876055951     -0.83224484519597     -0.64036296709989
  O   2.84947432389373     -0.27706925029751     -0.44924080992178
  O   1.57694142528096     -1.85270734117363     -1.28703059208151
