13
Coordinates from ORCA-job run
  C   -0.75818393684813      0.46091186769013     -0.12567095972448
  C   0.54538312934045      0.28902438609365      0.07142581437780
  H   -1.08641949513162      1.49446787813441     -0.19987063874592
  C   -1.77348144928233     -0.62315181635807     -0.25809332136689
  H   -2.35853319437172     -0.47140934775860     -1.16824471718266
  H   -1.33267495885180     -1.61805276417716     -0.27510462932268
  H   -2.46870875718153     -0.57485712140246      0.58491460794208
  N   1.20318054301076     -1.01246547039220      0.14592133606794
  O   2.05225945591745     -1.22758354596118     -0.71437590519737
  O   0.83857118967927     -1.77895082368811      1.03395567767161
  N   1.48138758736615      1.40951476944689      0.24569517839051
  O   2.53196353776936      1.14450453819129      0.82158917915502
  O   1.12425634858370      2.50704745018142     -0.16114162206493
