13
Coordinates from ORCA-job run
  C   -0.60296391133850     -0.37098890283141     -0.54936153291407
  C   0.59961100935041     -0.16130003221984     -0.02261079313382
  H   -0.64192305881349     -1.11192335093110     -1.34369410279729
  C   -1.86475903265844      0.31655746994033     -0.15090588525911
  H   -1.70494805034771      1.10984639753104      0.57678274385234
  H   -2.55232372008165     -0.41232935387881      0.28761367612137
  H   -2.35426498330415      0.73086254486731     -1.03547764082366
  N   1.79280899351859     -0.91732795167667     -0.42959910621864
  O   2.71179992280473     -0.94497175960461      0.38298740927952
  O   1.75708072595010     -1.47947283131716     -1.51607274838087
  N   0.88434920901024      0.82649529679620      1.01461938449768
  O   1.67751393961307      1.70976326603719      0.70159009071426
  O   0.29601895629682      0.70578920728754      2.08612850506230
