13
Coordinates from ORCA-job run
  C   -0.56879608949074     -0.16975301910103     -0.67189198406819
  C   0.61183299208214     -0.08807884155227     -0.06609178679674
  H   -0.54238668525951     -0.52953031288303     -1.69722691925484
  C   -1.88507467677451      0.19512828836859     -0.07382115983638
  H   -1.79278038508005      0.64890036660386      0.91108840721872
  H   -2.50175617554763     -0.70296913896366      0.02348513494797
  H   -2.41513902870177      0.88073383065121     -0.73907747234669
  N   0.80877428815390      0.41982759810948      1.28863880724526
  O   1.51373734050527      1.42051355777277      1.38296989317308
  O   0.23955925577739     -0.17323362555313      2.20153014411311
  N   1.86710204462235     -0.51593337572969     -0.70094313198221
  O   2.78919767028777     -0.78379369581101      0.06292126010814
  O   1.87672944942537     -0.60281163191210     -1.92158119252123
