13
Coordinates from ORCA-job run
  C   -0.68890757185690      0.46326689046522     -0.33851787985419
  C   0.55570740349825      0.26524907743687      0.08489000714112
  H   -0.90620135495858      1.46760539787647     -0.69282644522971
  C   -1.77299744982631     -0.55990142910115     -0.37450808847445
  H   -2.22030935236816     -0.58848571207878     -1.37084187546670
  H   -2.56314130476544     -0.27732292457528      0.32703634235077
  H   -1.42563019418094     -1.55612887582555     -0.10740933359354
  N   1.56067691167960      1.33700201523154      0.14133855317539
  O   2.49840248222077      1.15165116992765      0.91062880958039
  O   1.36225078456557      2.32836752832832     -0.54816610625117
  N   1.07290948827998     -1.01878515876472      0.54944416764117
  O   0.52573813497009     -1.52766687912397      1.52450324210552
  O   2.00150202274206     -1.48485109979663     -0.10457139312462
