13
Coordinates from ORCA-job run
  C   -0.77611501819862      0.44190204814211      0.08100518081372
  C   0.54364519768604      0.28293192084974      0.10121655491133
  H   -1.12988250175438      1.43889710579822      0.33063529898912
  C   -1.77925021274365     -0.61467591935931     -0.23639070432505
  H   -2.49700886632119     -0.69927726182591      0.58343296927367
  H   -2.34160411790431     -0.32648093342269     -1.12880271804398
  H   -1.32718870686557     -1.58768952161007     -0.41893095315240
  N   1.47805835737210      1.38422542426257      0.37717344100095
  O   1.02673363711739      2.37575972387742      0.93454302532314
  O   2.63021565688580      1.21907417514408     -0.01109192130232
  N   1.22498260058289     -0.98421721498686     -0.14930998033723
  O   1.07455630451291     -1.49637665030055     -1.25567807789706
  O   1.87185766963059     -1.43407289656875      0.79219788474612
