13
Coordinates from ORCA-job run
  C   -0.73941808662002      0.48704219731417     -0.13415203231654
  C   0.55763982728926      0.26828410195048      0.06023249266051
  H   -1.02717808227738      1.53074612668834     -0.23104510101761
  C   -1.79867346527340     -0.55777768846087     -0.23402310908060
  H   -1.39784045826471     -1.56941035321837     -0.25106389635361
  H   -2.47188482754063     -0.47497980639205      0.62418474638612
  H   -2.39813698951446     -0.39097878723314     -1.13193897471785
  N   1.53750196603607      1.35484670770359      0.20375791590963
  O   2.57522393726303      1.06571588867249      0.79122768133436
  O   1.22543854695864      2.45310258196479     -0.23707992500663
  N   1.16373337318220     -1.05641329939637      0.16313456957374
  O   0.76411210570279     -1.79155915746896      1.06247560618741
  O   2.00848215305861     -1.32061851212410     -0.68770997355892
