13
Coordinates from ORCA-job run
  C   -0.74624971495586      0.48042776408764     -0.12255452957274
  C   0.54426321313454      0.27420249100347      0.12188251742025
  H   -1.05775481973825      1.52164874856857     -0.13896702821110
  C   -1.77101215199958     -0.57591676844744     -0.36256631499856
  H   -2.14274922674390     -0.49469154745403     -1.38804891513164
  H   -1.38367389338655     -1.58329225943112     -0.22297261748419
  H   -2.62358175142172     -0.42090194646741      0.30287097160953
  N   1.50927705546185      1.37010370426640      0.29496409472174
  O   2.68547944745745      1.08416783379925      0.09423216285496
  O   1.06113578813413      2.47126700901952      0.58529342347370
  N   1.16046256146950     -1.04421655741374      0.24098832475362
  O   1.67010875084819     -1.29492237407196      1.32945049798994
  O   1.09529474174019     -1.78787609745914     -0.73457258742552
