13
Coordinates from ORCA-job run
  C   -0.59777104148660     -0.35970384354364     -0.56240280675902
  C   0.60650771147649     -0.12499846158829     -0.05022449261845
  H   -0.61797611376671     -1.02417455444456     -1.42235444838517
  C   -1.88633379544870      0.19682263122196     -0.05892703715814
  H   -1.77305133059939      0.76360258944787      0.86316345189641
  H   -2.31478402737730      0.86123643051408     -0.81482707159641
  H   -2.60119413586039     -0.61390308126853      0.10047923350962
  N   0.85370876973102      0.69224823154061      1.13430792503767
  O   1.37449706881803      0.10960123580816      2.08122035835434
  O   0.50203868524369      1.86848011931309      1.09189637936712
  N   1.84229162253813     -0.66645463541798     -0.63491586469358
  O   2.87480613286634     -0.06556694933727     -0.35500586186425
  O   1.73526045386540     -1.63718971224550     -1.37240976509014
