13
Coordinates from ORCA-job run
  C   -0.69224925897772      0.40919056538406     -0.39898843125005
  C   0.53138934199799      0.30291920310302      0.10964934535307
  H   -0.94485665581626      1.38231581551081     -0.81195820200909
  C   -1.70971853446472     -0.67927756629382     -0.45791242792335
  H   -1.32981222392545     -1.63537374152263     -0.10285265772945
  H   -2.57073176687847     -0.40578827925093      0.15847912948300
  H   -2.06989926970874     -0.79271752428016     -1.48326082288623
  N   1.08859357309580     -0.92931283383244      0.66084720064874
  O   2.06732057573584     -1.37983796537851      0.07260615018413
  O   0.52317655689919     -1.41455937907304      1.63753349242119
  N   1.47215184694698      1.43149547662404      0.17644859252815
  O   1.25163163478932      2.38816113371740     -0.55388730904646
  O   2.38100418030622      1.32278509529219      0.99329594022635
