13
Coordinates from ORCA-job run
  C   -0.75006872582227      0.46557252927303     -0.15158737035639
  C   0.54795181390765      0.28487584411869      0.07232458569717
  H   -1.06346224940765      1.50041585045385     -0.26315154623888
  C   -1.77685271194796     -0.60938008526695     -0.26698145583740
  H   -1.34883759166766     -1.60972830146053     -0.24369889685701
  H   -2.34292276811360     -0.48019312739818     -1.19252209749554
  H   -2.48664568002412     -0.52477721515073      0.56082656895557
  N   1.18778583642995     -1.02171480357669      0.19772032375575
  O   2.04569947266439     -1.27596193132631     -0.64277718579617
  O   0.80016562868007     -1.75421166286045      1.10453992157981
  N   1.49524264695502      1.39903433162934      0.22477701881363
  O   2.53442616478600      1.13986363027324      0.82333711599297
  O   1.15751816356019      2.48720494129167     -0.22180698221352
