18

C	-0.52218	0.005573	-1.435006
C	0.0	0.0	0.0
F	0.259181	0.772289	-2.246417
H	1.088614	0.0	0.0
N	-0.300113	-1.428792	-2.018015
O	-1.289819	-2.012763	-2.464854
O	0.84381	-1.854849	-2.008435
N	-1.859803	0.398112	-1.547141
H	-2.309365	-0.036968	-2.339837
H	-2.386951	0.242309	-0.701187
C	-0.506225	-1.173428	0.81622
H	-1.587201	-1.312089	0.759342
H	0.000507	-2.075068	0.470336
H	-0.232641	-1.024297	1.860781
N	-0.463638	1.297793	0.592847
O	-1.524383	1.282555	1.230628
O	0.210408	2.295866	0.375277
Cl	3.331558	0.0	0.0
