18

C	-0.499261	-0.019153	-1.438561
C	0.0	0.0	0.0
F	-0.075925	1.152713	-2.039314
H	1.087479	0.0	0.0
N	0.180685	-1.12188	-2.252222
O	0.017513	-1.030313	-3.467282
O	0.759204	-2.021851	-1.662688
N	-1.877734	-0.25157	-1.607884
H	-2.113418	-0.135703	-2.586651
H	-2.386427	0.408771	-1.032969
C	-0.543387	-1.097223	0.898094
H	-1.633512	-1.083183	0.933871
H	-0.13656	-0.953546	1.901429
H	-0.200356	-2.060694	0.528966
N	-0.436297	1.311967	0.596645
O	0.392988	1.970612	1.207503
O	-1.632779	1.617686	0.494516
Cl	3.350923	0.0	0.0
