18

C	-0.272843	-0.07228	-1.499342
C	0.0	0.0	0.0
F	-0.150088	-1.420981	-1.850595
H	1.092671	0.0	0.0
N	-1.728855	0.213617	-1.895005
O	-2.475441	0.702801	-1.049527
O	-2.026691	-0.050392	-3.056577
N	0.543271	0.755063	-2.258504
H	1.482999	0.782787	-1.862065
H	0.550209	0.453388	-3.225555
C	-0.560815	-1.155135	0.793491
H	-0.260169	-1.04829	1.835376
H	-1.650765	-1.185936	0.746673
H	-0.142217	-2.081424	0.40539
N	-0.394916	1.320839	0.587853
O	-1.068876	1.313979	1.616145
O	0.024194	2.329396	0.03153
Cl	3.27148	0.0	0.0
