18

C	-0.391235	-0.198071	-1.468467
C	0.0	0.0	0.0
F	-1.6852	-0.62624	-1.563356
H	1.091276	0.0	0.0
N	-0.332244	1.130694	-2.231488
O	0.748638	1.432306	-2.714841
O	-1.372084	1.777645	-2.284312
N	0.443474	-1.110716	-2.171481
H	0.285613	-2.038433	-1.79579
H	1.418045	-0.860165	-2.002348
C	-0.480906	-1.154873	0.856087
H	-0.102573	-1.023179	1.869482
H	-0.059036	-2.085484	0.471411
H	-1.56636	-1.222733	0.883449
N	-0.489003	1.300941	0.550627
O	0.077833	2.316237	0.153262
O	-1.41449	1.282196	1.365792
Cl	3.282952	0.0	0.0
