16

C	0.0	0.0	0.0
C	-0.458279	-0.161171	-1.451951
F	1.368513	0.0	0.0
H	-0.611361	-1.229148	-1.642646
H	0.408164	0.16378	-2.039569
C	-0.539663	1.203182	0.71586
H	-1.624013	1.102332	0.817458
H	-0.336304	2.086343	0.110915
H	-0.066597	1.282858	1.694816
N	-0.318356	-1.249995	0.850894
O	0.029156	-1.178394	2.02771
O	-0.822978	-2.237081	0.326733
N	-1.584582	0.69905	-1.789194
H	-2.41684	0.428446	-1.257772
H	-1.807177	0.546156	-2.766192
Cl	-4.198111	0.0	0.0
