16

C	0.0	0.0	0.0
C	-0.561973	-0.194649	-1.3947
F	1.361968	0.0	0.0
H	-0.366752	0.748883	-1.915569
H	-1.647211	-0.28954	-1.276677
C	-0.529979	1.264458	0.634513
H	-1.622725	1.217769	0.658538
H	-0.136783	1.35021	1.649219
H	-0.20876	2.128381	0.048578
N	-0.311198	-1.074462	1.004032
O	-1.335594	-1.942686	0.53999
O	0.092706	-2.345203	0.485979
N	0.08519	-1.260668	-2.170382
H	-0.167576	-2.147773	-1.756002
H	-0.33711	-1.244734	-3.091568
Cl	-3.928716	0.0	0.0
