16

C	0.0	0.0	0.0
C	-0.533808	0.104942	-1.42152
F	1.369168	0.0	0.0
H	0.033594	-0.599001	-2.033632
H	-1.580842	-0.206118	-1.390747
C	-0.521814	1.016188	0.969286
H	-0.226293	2.009016	0.625476
H	-0.100616	0.839876	1.958626
H	-1.611964	0.941198	1.004616
N	-0.310939	-1.413942	0.50896
O	-0.001498	-2.329872	-0.254578
O	-0.749585	-1.557856	1.644861
N	-0.46885	1.438523	-2.002652
H	-1.208052	2.005498	-1.60584
H	0.421529	1.876046	-1.798534
Cl	-3.783018	0.0	0.0
