16

C	0.0	0.0	0.0
C	-0.376872	-0.042894	-1.489435
F	1.377943	0.0	0.0
H	0.316058	-0.756908	-1.939388
H	-0.098102	0.949709	-1.866591
C	-0.591313	1.118033	0.796861
H	-0.225509	1.098491	1.822206
H	-0.315331	2.06366	0.324233
H	-1.681919	1.017901	0.792468
N	-0.308684	-1.342225	0.674425
O	-0.324897	-1.362455	1.901674
O	-0.412059	-2.32937	-0.049065
N	-1.715893	-0.362023	-1.902384
H	-1.921171	-1.324907	-1.673898
H	-2.434203	0.171935	-1.418468
Cl	-4.283306	0.0	0.0
