16

C	0.0	0.0	0.0
C	-0.522946	0.171087	-1.418376
F	1.369204	0.0	0.0
H	0.052788	-0.495716	-2.062479
H	-1.567601	-0.146029	-1.419365
C	-0.520705	0.979464	1.006471
H	-1.611706	0.910339	1.023874
H	-0.214304	1.983107	0.708315
H	-0.112186	0.756127	1.990621
N	-0.311241	-1.43287	0.458985
O	-0.494802	-1.633121	1.656042
O	-0.248529	-2.307383	-0.402986
N	-0.452353	1.534324	-1.930112
H	-1.195891	2.07948	-1.511417
H	0.435018	1.959842	-1.690104
Cl	-3.76611	0.0	0.0
