16

C	0.0	0.0	0.0
C	-0.518362	-0.047408	-1.432221
F	1.377179	0.0	0.0
H	-0.476519	0.982795	-1.79965
H	-1.576712	-0.314824	-1.380841
C	-0.528964	1.160518	0.78687
H	-0.139705	1.143947	1.803107
H	-0.214184	2.08005	0.288412
H	-1.621161	1.100218	0.796637
N	-0.318588	-1.308264	0.737878
O	-0.426872	-1.26301	1.95991
O	-0.353858	-2.342169	0.071621
N	0.200187	-0.898039	-2.371677
H	1.192126	-0.710826	-2.283938
H	0.058102	-1.85912	-2.089908
Cl	-3.792688	0.0	0.0
