16

C	0.0	0.0	0.0
C	-0.443216	-0.283591	-1.447906
F	1.36632	0.0	0.0
H	0.129173	0.432213	-2.050344
H	-0.049841	-1.278066	-1.693036
C	-0.591419	1.224221	0.633578
H	-0.331304	2.099689	0.033688
H	-1.67799	1.115082	0.670657
H	-0.197457	1.353651	1.643993
N	-0.368078	-1.215967	0.849057
O	-1.567346	-1.420234	0.993674
O	0.542973	-1.91418	1.287569
N	-1.832767	-0.1998	-1.801631
H	-2.444753	-0.718775	-1.177182
H	-2.178031	0.748766	-1.748753
Cl	-4.604357	0.0	0.0
