15
Coordinates from ORCA-job run
  C   0.59771613590664      0.10525925653266      0.72975924472389
  C   -0.48795508318748      0.47839975538147     -0.26542706006382
  Cl  -0.02748519715070     -0.90903009773793      2.05117909058915
  H   -0.11602179153814      1.25256825104907     -0.93865653594422
  H   0.90871474532197      1.04098903536389      1.19562398357859
  C   1.76235203049649     -0.57708521918315      0.03401490831913
  H   2.12517846690337      0.03226042798285     -0.79810846416008
  H   2.57701756114209     -0.72255693074962      0.74332140116356
  H   1.46652454934061     -1.55521031548462     -0.34851836876697
  N   -1.70241076189493      1.07203279945653      0.40064649508320
  O   -1.44396997366917      1.93030613725595      1.23495184280505
  O   -2.80695891475258      0.71754906223694      0.01690960697324
  N   -0.87585992629198     -0.67074209808995     -1.13538128465013
  O   -0.55415833333866     -0.56586222902727     -2.31860161030838
  O   -1.42268350728753     -1.62787783498682     -0.60271324934220
