15
Coordinates from ORCA-job run
  C   0.63584203788958      0.05981679718460      0.67293914574936
  C   -0.50319704097736      0.39054664418810     -0.27523416725359
  Cl  0.12978404776751     -1.13114808634538      1.89548871898914
  H   -0.14230884090321      0.98260373178869     -1.11778228300478
  H   0.85240806907014      0.97971071676133      1.21866568734024
  C   1.86891663933395     -0.43553635771027     -0.06332225977992
  H   2.67945470707810     -0.58077685283826      0.65117749387262
  H   1.67542091827315     -1.38146889481217     -0.56757941200635
  H   2.18773855821088      0.29883452058934     -0.80770616732715
  N   -1.60661470781524      1.20918022635048      0.34347605225806
  O   -1.48061614462697      1.57258324042258      1.50638314233668
  O   -2.53092449706173      1.47201697611415     -0.41669732610121
  N   -1.12213575347056     -0.84135651085582     -0.86809724770347
  O   -0.52713758076628     -1.29255636073014     -1.84294612354236
  O   -2.11663041200190     -1.30244979010721     -0.32676525382725
