15
Coordinates from ORCA-job run
  C   0.49186241819381     -0.17039862729216      0.90127458715659
  C   -0.85307326350235      0.08731955960863      0.23951590935388
  Cl  0.33053999928727     -1.69922507467745      1.81764469113667
  H   -1.67278571557024      0.00105174940228      0.95304754144826
  H   0.61641600756119      0.61731083715851      1.64457103171260
  C   1.69870733358128     -0.22908627908963     -0.01411650874128
  H   1.64890386636620     -1.08257341556999     -0.68795400898694
  H   1.77384368533419      0.68543045154943     -0.60283427080195
  H   2.59594525829828     -0.32333700037375      0.59888042509771
  N   -1.14690858454604     -0.87326224651210     -0.86882131124815
  O   -2.00183949818894     -1.72310220394120     -0.64448595481804
  O   -0.49224362833165     -0.73260426712244     -1.89717326806951
  N   -0.95387938704067      1.47445903019529     -0.35203172651155
  O   -0.13967492676475      2.30927466700279      0.02730617493208
  O   -1.89381356467757      1.65774281966177     -1.11382331166036
