15
Coordinates from ORCA-job run
  C   0.56087125356146     -0.49841754697101      0.54881756277485
  C   -0.54803220712276     -0.21064875114852     -0.43650733825861
  Cl  0.87327466097662     -2.25437258261271      0.46462920883460
  H   -0.34220796915786     -0.57014072053123     -1.44200371462803
  H   0.19012117260183     -0.29087290016478      1.55243779898398
  C   1.81979728978194      0.28661840692127      0.23253201288459
  H   2.62232683243922     -0.02809532830551      0.89973548240128
  H   2.14109810367490      0.12117715442129     -0.79756900751126
  H   1.65049202469464      1.35472322627925      0.38637317681575
  N   -0.76156506278553      1.27249319636230     -0.52448271293699
  O   -0.44543412579612      1.80569067683100     -1.58316143433771
  O   -1.18259509304711      1.82316044019859      0.48809746091826
  N   -1.86600419450359     -0.80495965711059     -0.02117536084937
  O   -2.07815322575700     -0.94584521998812      1.17670802249479
  O   -2.63298945956066     -1.06251039418123     -0.94543115758609
