15
Coordinates from ORCA-job run
  C   0.67614528471822     -0.55813739039377      0.29662444674566
  C   -0.68596165635409      0.07108572122373      0.06048231805855
  Cl  1.25825949938313     -1.39569449167844     -1.16253106141912
  H   -0.94908104030331      0.74109774368698      0.88037624275157
  H   0.52556725593584     -1.33319988698515      1.05003022638774
  C   1.70446871076386      0.45751412773075      0.76424452262881
  H   1.89404787113490      1.20913683430122     -0.00094281943818
  H   2.63963689500018     -0.05564043709797      0.98938616357780
  H   1.35611718181527      0.96009848658883      1.67047736838551
  N   -1.81862404111268     -0.91824446267968     -0.02553584526843
  O   -2.92353127490562     -0.40993935686976     -0.17592069517740
  O   -1.56503676200913     -2.10997154988747      0.10017698374892
  N   -0.71551707069085      0.90781490553867     -1.18562297200335
  O   -0.25527956428409      2.03797710956869     -1.05121096351092
  O   -1.14221128909164      0.39710264695339     -2.21103391546713
