15
Coordinates from ORCA-job run
  C   0.59714059917960      0.02263007985212      0.70679846955363
  C   -0.49090242331839      0.39492286557139     -0.28561983700021
  Cl  0.04200478344557     -1.25115472563935      1.81994772124932
  H   -0.08878507574635      1.02024690727922     -1.08406925735454
  H   0.76372646718584      0.90900056119211      1.32129732704310
  C   1.88122310418664     -0.40606451955027      0.01757939809874
  H   2.64882626268058     -0.58941469991986      0.76975039093427
  H   2.23266844022690      0.38200093013222     -0.65371287563339
  H   1.73394514324217     -1.31744000280035     -0.56040441053749
  N   -1.62625898391467      1.18647409152810      0.30830533402078
  O   -2.48219244335434      1.52653392229971     -0.50029732757630
  O   -1.59585652952716      1.44684863796772      1.50481050963140
  N   -1.08007527692624     -0.81057282670782     -0.95960583131600
  O   -0.41573711861761     -1.24593011041731     -1.89560367787115
  O   -2.12072694874256     -1.26908111078760     -0.51117593324215
