15
Coordinates from ORCA-job run
  C   0.47977422293191     -0.17198908448897      0.91029112627532
  C   -0.85834915214952      0.07601949244282      0.23056839464896
  Cl  0.31918264510983     -1.69370139268151      1.83821289031160
  H   -1.69221170026473     -0.05406530793996      0.92008444448908
  H   0.59539636011529      0.62273821014898      1.64777625810547
  C   1.69271546568665     -0.23467240974339      0.00321557377509
  H   1.64931986770455     -1.09582433565537     -0.66206638358167
  H   2.58710512659481     -0.32177615775376      0.62129784484607
  H   1.76761563248006      0.67373027563222     -0.59432702245851
  N   -1.09911346205193     -0.85402569616125     -0.91716516246215
  O   -1.87972805497010     -1.77796848735488     -0.71725004691763
  O   -0.47321091134837     -0.62036474561317     -1.94654657350186
  N   -0.98318816175611      1.47598480978489     -0.32237368541378
  O   -1.97411258851045      1.67598911583209     -1.01269482033359
  O   -0.13219528957194      2.29792571355130     -0.00002283778243
