15
Coordinates from ORCA-job run
  C   0.53638673398325     -0.22604758703792      0.85190634807117
  C   -0.85014552742511      0.03101498898575      0.27783900076505
  Cl  0.50531872011246     -1.85729730036689      1.57676059022553
  H   -1.60455658197013      0.02769208205241      1.06337110159586
  H   0.62959532226547      0.47116263879015      1.68584973026798
  C   1.71247601910281     -0.06009821150778     -0.09085768610678
  H   1.71201983783315      0.94493112666335     -0.52066919246450
  H   2.63518637155331     -0.18005676835984      0.47854564935931
  H   1.69029988959144     -0.79264796630176     -0.89260649777293
  N   -1.31394440788123     -0.95708045513812     -0.74327790428686
  O   -0.50828666411494     -1.33209236145323     -1.58608382616365
  O   -2.49318023807362     -1.28917056475647     -0.65310470372409
  N   -0.88194330091207      1.40396530571799     -0.34637351953983
  O   -1.14884461986182      1.50516290493211     -1.53565879054781
  O   -0.61838155420298      2.31056216778026      0.43535970032154
