14
Coordinates from ORCA-job run
  C   -0.42200538452981     -0.11379416297175      0.37329125228127
  C   1.06168605475673     -0.26380938092948      0.70287694358260
  Br  -1.43709880790808     -0.47711458003341      1.99504113920361
  H   1.26015916557074     -1.26095913373941      1.09562252369447
  H   1.31800147242870      0.46823472441189      1.47306937361054
  N   -0.81770591538424     -1.21454819618796     -0.61398242548718
  O   -1.77089458715530     -0.98206881434752     -1.34676860279992
  O   -0.16847242660236     -2.25393867846825     -0.57471662221205
  C   -0.79248858304399      1.23786658950870     -0.18910936107486
  H   -0.27252508943971      1.39591301163586     -1.13718589054791
  H   -0.49443196267310      2.01415509099802      0.51769770498762
  H   -1.86418280251653      1.30228653359959     -0.36188234267232
  C   1.88168936265671     -0.03037036260628     -0.48482479616246
  N   2.51926950384027      0.17714735912999     -1.44812889640340
