14
Coordinates from ORCA-job run
  C   -0.31755993460419     -0.02082338162103      0.27864600655331
  C   1.18779955960752      0.20731562020271      0.15970262991608
  Br  -0.74417271228702     -0.62819652185163      2.06422438450962
  H   1.41142725936902      0.59621204867330     -0.83580817965498
  H   1.47420856341869      0.96098579498292      0.89779567395938
  N   -0.74074071891044     -1.08747365130684     -0.73745422252369
  O   -1.72081852908819     -1.77252458078278     -0.49232047514394
  O   -0.09206914447558     -1.08701964725952     -1.78093595953663
  C   -1.11426556539526      1.22620424834628     -0.06063905759051
  H   -0.88718151709097      1.53154081239914     -1.08583724505939
  H   -0.85026614904382      2.03271378894492      0.62468348327221
  H   -2.18243741368744      1.02468682980683      0.02821180503455
  C   1.96847094337075     -1.00632777689891      0.38168204466307
  N   2.60460535881694     -1.97629358363539      0.55804911160091
