14
Coordinates from ORCA-job run
  C   -0.34433356777802     -0.23132539278442      0.18163540241180
  C   1.13159289810346     -0.48394650999292     -0.12730393221973
  Br  -0.76584411739666     -0.90918329846584      1.95556159587994
  H   1.36889118384230     -1.53946060546730      0.00658618300515
  H   1.31332549963567     -0.23731242197023     -1.17938411890331
  N   -1.16623735322019     -1.08246440749748     -0.79010566519136
  O   -2.29637764696968     -0.69066105706897     -1.05090184372142
  O   -0.63870457251597     -2.10367134654199     -1.21891270568651
  C   -0.75328513909121      1.21739075284716      0.06006773149916
  H   -0.55559808844138      1.56641694042058     -0.95779080987617
  H   -1.81328910232837      1.33651156538713      0.27103472921857
  H   -0.17488893129621      1.81810468674330      0.76256968676299
  C   1.99707536120597      0.33652393706615      0.71303785932559
  N   2.69767357625031      1.00507715732482      1.37590588749532
