12

C	-0.424741	0.014274	-1.474485
C	0.0	0.0	0.0
Br	0.269877	-1.565401	-2.407267
H	1.096558	0.0	0.0
H	-1.508474	-0.056447	-1.584971
C	0.034544	1.218917	-2.159471
N	0.317816	2.196824	-2.746652
C	-0.502402	-1.176598	0.682976
N	-0.852104	-2.144113	1.255343
C	-0.467405	1.206444	0.656942
N	-0.80295	2.203234	1.186719
H	2.451508	0.0	0.0
