12

C	-0.307294	0.023051	-1.488257
C	0.0	0.0	0.0
Br	-2.222484	0.239488	-1.91495
H	1.098756	0.0	0.0
H	0.189989	0.896263	-1.919315
C	0.166977	-1.181751	-2.158504
N	0.501742	-2.159577	-2.717789
C	-0.496157	-1.183817	0.669603
N	-0.832291	-2.165643	1.224449
C	-0.443595	1.216026	0.651159
N	-0.757375	2.234184	1.150127
H	2.451302	0.0	0.0
