12

C	-0.309848	-0.012134	-1.499746
C	0.0	0.0	0.0
Br	0.270679	1.65881	-2.329873
H	1.096495	0.0	0.0
H	0.318312	-0.792102	-1.943899
C	-1.714182	-0.224357	-1.821212
N	-2.848001	-0.399379	-2.079414
C	-0.429553	-1.251966	0.595196
N	-0.751141	-2.291558	1.043572
C	-0.542552	1.141608	0.704595
N	-0.912714	2.079013	1.312813
H	2.454409	0.0	0.0
