12

C	-0.375437	-0.118754	-1.484542
C	0.0	0.0	0.0
Br	0.282947	-1.81529	-2.219149
H	1.104001	0.0	0.0
H	-1.455813	-0.155131	-1.634796
C	0.167805	0.974991	-2.287419
N	0.512686	1.837691	-3.00726
C	-0.525859	-1.105744	0.770787
N	-0.905246	-2.023295	1.403974
C	-0.471161	1.2687	0.518894
N	-0.832203	2.311282	0.93509
H	2.440048	0.0	0.0
