12

C	-0.403703	0.080863	-1.476074
C	0.0	0.0	0.0
Br	0.371315	-1.418257	-2.481743
H	1.103516	0.0	0.0
H	-1.480657	-0.029084	-1.613751
C	0.010869	1.336865	-2.093513
N	0.239092	2.351564	-2.64173
C	-0.498327	-1.212727	0.616301
N	-0.84058	-2.216053	1.128597
C	-0.458297	1.174075	0.714734
N	-0.773605	2.148965	1.295462
H	2.433231	0.0	0.0
