12

C	-0.387161	0.14727	-1.47864
C	0.0	0.0	0.0
Br	0.266598	-1.384564	-2.513434
H	1.094801	0.0	0.0
H	-1.469062	0.136597	-1.622518
C	0.144748	1.378622	-2.058091
N	0.476525	2.382463	-2.571569
C	-0.519264	-1.224097	0.574329
N	-0.883271	-2.232612	1.061356
C	-0.455811	1.15666	0.746796
N	-0.77218	2.117525	1.349455
H	2.44651	0.0	0.0
