18

C	-0.394251	0.004624	-1.49747
C	0.0	0.0	0.0
Cl	0.070765	1.580282	-2.172192
H	1.090581	0.0	0.0
C	0.295431	-1.095977	-2.265327
H	-0.027271	-2.07349	-1.912244
H	1.368362	-0.989004	-2.087656
H	0.073278	-1.011783	-3.32953
N	-1.914132	-0.093271	-1.634121
O	-2.372477	-1.123265	-2.120513
O	-2.582005	0.846039	-1.209988
N	-0.502092	-1.319859	0.543233
O	-1.686685	-1.348339	0.882783
O	0.273374	-2.270169	0.589526
N	-0.472231	1.040577	0.841051
H	-1.371219	1.402515	0.557443
H	0.222838	1.771696	0.88431
Cl	3.300681	0.0	0.0
