18

C	-0.443537	0.096072	-1.459927
C	0.0	0.0	0.0
Cl	-2.165557	0.536391	-1.615339
H	1.095194	0.0	0.0
C	0.416585	1.119254	-2.17909
H	0.262203	2.102357	-1.735209
H	1.466646	0.838675	-2.052564
H	0.140114	1.154355	-3.234419
N	-0.207804	-1.22058	-2.197309
O	-0.917811	-1.484924	-3.15898
O	0.765163	-1.855772	-1.814309
N	-0.508346	-1.262205	0.661133
O	-0.072569	-1.490667	1.780422
O	-1.339575	-1.950055	0.064242
N	-0.38871	1.113649	0.805344
H	0.405907	1.698866	1.012499
H	-1.174324	1.634677	0.446929
Cl	3.281298	0.0	0.0
