18

C	-0.551026	0.176129	-1.417057
C	0.0	0.0	0.0
Cl	-2.336399	0.192723	-1.358554
H	1.091574	0.0	0.0
C	-0.028944	1.467476	-2.014935
H	1.061155	1.465349	-1.935855
H	-0.432651	2.304811	-1.449269
H	-0.333055	1.540572	-3.062451
N	-0.096638	-0.955304	-2.353889
O	1.110796	-0.967615	-2.551475
O	-0.9263	-1.706051	-2.851568
N	-0.439626	-1.353846	0.549507
O	-1.027724	-1.372899	1.630226
O	-0.161503	-2.342273	-0.122371
N	-0.412048	1.085165	0.823422
H	0.259068	1.197405	1.571884
H	-1.326824	0.915713	1.22065
Cl	3.260877	0.0	0.0
