18

C	-0.472612	-0.001858	-1.460475
C	0.0	0.0	0.0
Cl	0.323823	1.363396	-2.248632
H	1.090392	0.0	0.0
C	-0.226761	-1.249454	-2.285917
H	0.833859	-1.494192	-2.230707
H	-0.50736	-1.042439	-3.320744
H	-0.806557	-2.086313	-1.901388
N	-1.98464	0.241128	-1.474099
O	-2.603851	-0.395352	-0.621674
O	-2.48628	0.954445	-2.330652
N	-0.358587	-1.294403	0.729767
O	-0.988493	-1.207298	1.781569
O	0.060453	-2.343719	0.252186
N	-0.483704	1.149868	0.685982
H	-1.321643	0.921458	1.204986
H	0.227453	1.468269	1.330607
Cl	3.249683	0.0	0.0
