18

C	-0.430331	0.045078	-1.467702
C	0.0	0.0	0.0
Cl	-2.141984	0.506144	-1.667549
H	1.087881	0.0	0.0
C	0.454373	1.023544	-2.218663
H	0.315481	2.024898	-1.811345
H	0.184685	1.024359	-3.275948
H	1.498654	0.730136	-2.074223
N	-0.208109	-1.305192	-2.145761
O	-0.857514	-1.557256	-3.153195
O	0.696287	-1.982576	-1.675981
N	-0.515373	-1.236231	0.699983
O	-0.015696	-1.482605	1.788434
O	-1.425866	-1.87615	0.169094
N	-0.398935	1.138135	0.766891
H	-1.190826	1.634731	0.389363
H	0.389375	1.742268	0.941766
Cl	3.291328	0.0	0.0
