18

C	-0.443706	-0.064183	-1.472766
C	0.0	0.0	0.0
Cl	-0.492934	1.588753	-2.141693
H	1.097527	0.0	0.0
C	0.467327	-0.894893	-2.347495
H	0.193382	-0.77838	-3.394265
H	0.401396	-1.941949	-2.065821
H	1.488955	-0.548411	-2.175686
N	-1.890186	-0.549999	-1.565167
O	-2.242803	-1.106517	-2.597821
O	-2.619754	-0.307088	-0.606517
N	-0.367311	-1.331016	0.680508
O	-0.540231	-2.336	-0.008135
O	-0.435354	-1.305936	1.903599
N	-0.452267	1.111776	0.74349
H	-1.413565	1.004275	1.032847
H	0.15043	1.247103	1.541002
Cl	3.269553	0.0	0.0
