18

C	-0.575914	0.075767	-1.414514
C	0.0	0.0	0.0
Cl	-2.352085	-0.045206	-1.331805
H	1.092387	0.0	0.0
C	-0.171514	1.375077	-2.07964
H	-0.497349	1.370025	-3.122403
H	-0.63282	2.20193	-1.54682
H	0.913889	1.463643	-2.025489
N	-0.038933	-1.049766	-2.310641
O	1.166648	-0.987742	-2.498544
O	-0.813359	-1.858777	-2.804999
N	-0.406823	-1.328384	0.632431
O	-0.134573	-2.343367	-0.002234
O	-0.962622	-1.305794	1.730382
N	-0.419381	1.124415	0.767167
H	0.278451	1.309299	1.476331
H	-1.307709	0.941098	1.216669
Cl	3.260597	0.0	0.0
