18

C	-0.562189	0.121512	-1.41897
C	0.0	0.0	0.0
Cl	-2.344616	0.16488	-1.341122
H	1.091591	0.0	0.0
C	-0.031295	1.379424	-2.074685
H	-0.409793	2.243764	-1.531955
H	1.059707	1.36119	-2.019066
H	-0.357686	1.418307	-3.116882
N	-0.136615	-1.058973	-2.305361
O	-0.980249	-1.837684	-2.727523
O	1.062591	-1.084072	-2.54385
N	-0.434838	-1.329073	0.604901
O	-0.135449	-2.343292	-0.015522
O	-1.039268	-1.306763	1.67646
N	-0.406525	1.115765	0.784409
H	-1.299686	0.946952	1.225046
H	0.292496	1.27746	1.495553
Cl	3.249526	0.0	0.0
