18

C	-0.467178	-0.008757	-1.465167
C	0.0	0.0	0.0
Cl	-2.228792	0.277032	-1.583088
H	1.092005	0.0	0.0
C	0.283149	1.058843	-2.221456
H	1.354452	0.879895	-2.114246
H	0.033743	2.018448	-1.773198
H	0.000919	1.049878	-3.274103
N	-0.223825	-1.378639	-2.105027
O	0.682845	-1.456644	-2.925141
O	-0.953673	-2.297557	-1.757051
N	-0.466441	-1.246654	0.728698
O	0.257082	-2.234003	0.677611
O	-1.54136	-1.177648	1.330107
N	-0.444773	1.195032	0.636127
H	-1.374849	1.064202	1.015768
H	0.204451	1.426969	1.377554
Cl	3.282196	0.0	0.0
