15

C	-0.598339	-0.02466	-1.410262
C	0.0	0.0	0.0
Cl	0.2639	-1.167552	-2.486211
H	1.088242	0.0	0.0
H	-0.368639	0.884402	0.520568
C	-2.084223	-0.383148	-1.406334
H	-2.627353	0.29143	-0.739467
H	-2.208641	-1.409695	-1.060546
H	-2.49075	-0.301021	-2.414784
C	-0.440512	1.318185	-1.97717
N	-0.403729	2.402779	-2.427571
N	-0.497354	-1.154944	0.786079
O	-0.180884	-2.281563	0.41283
O	-1.223159	-0.909013	1.754163
Br	3.447945	0.0	0.0
