15

C	-0.46363	-0.053677	-1.452168
C	0.0	0.0	0.0
Cl	-0.122953	1.529007	-2.234301
H	1.088434	0.0	0.0
H	-0.372645	-0.882885	0.52727
C	0.359481	-1.127953	-2.161649
H	0.142793	-2.103242	-1.717128
H	0.10642	-1.155536	-3.222605
H	1.420734	-0.904448	-2.026039
C	-1.894191	-0.330474	-1.612889
N	-3.011826	-0.639609	-1.803242
N	-0.550743	1.174337	0.728895
O	0.224602	1.868485	1.375652
O	-1.768282	1.348587	0.647954
Br	3.538213	0.0	0.0
