15

C	-0.468594	-0.135198	-1.453143
C	0.0	0.0	0.0
Cl	-0.28508	1.519326	-2.159321
H	1.088947	0.0	0.0
H	-0.38825	0.899586	0.471978
C	0.391598	-1.089394	-2.272026
H	1.436693	-0.79884	-2.145714
H	0.10703	-1.040369	-3.324568
H	0.258608	-2.103065	-1.899514
C	-1.893734	-0.467754	-1.540148
N	-3.032562	-0.750583	-1.606914
N	-0.434032	-1.133987	0.857334
O	-0.589393	-2.239786	0.337782
O	-0.566592	-0.892237	2.054463
Br	3.454637	0.0	0.0
