15

C	-0.567527	0.053414	-1.412751
C	0.0	0.0	0.0
Br	0.188426	-1.381867	-2.480026
H	1.090094	0.0	0.0
H	-0.32046	0.896457	0.538791
C	-2.083091	-0.006442	-1.479661
H	-2.433787	-0.938915	-1.037302
H	-2.497373	0.834876	-0.913459
H	-2.416795	0.053742	-2.515183
N	-0.174996	1.382087	-2.066315
O	-0.439438	1.507262	-3.256981
O	0.286012	2.254589	-1.338746
C	-0.506645	-1.175114	0.697963
N	-0.941799	-2.111617	1.257302
Cl	3.322511	0.0	0.0
