15

C	-0.596077	0.005667	-1.40158
C	0.0	0.0	0.0
Br	0.13722	-1.506	-2.384208
H	1.090005	0.0	0.0
H	-0.30205	-0.943431	0.467159
C	-2.110785	-0.056321	-1.431526
H	-2.444651	-0.942664	-0.889864
H	-2.469793	-0.101085	-2.457991
H	-2.519494	0.832922	-0.943282
N	-0.179863	1.265011	-2.162613
O	-0.674169	1.414236	-3.277398
O	0.582783	2.040579	-1.60134
C	-0.544612	1.094393	0.79474
N	-1.04045	1.953893	1.422409
Cl	3.323708	0.0	0.0
