15

C	-0.444975	-0.027051	-1.45412
C	0.0	0.0	0.0
Br	0.064603	1.612193	-2.341596
H	1.09296	0.0	0.0
H	-0.324967	-0.932395	0.468936
C	0.16556	-1.214066	-2.176661
H	-0.174873	-2.133161	-1.694323
H	1.251031	-1.14234	-2.090422
H	-0.12982	-1.219222	-3.227886
N	-1.973206	-0.186463	-1.52051
O	-2.413147	-1.084087	-0.805034
O	-2.641123	0.502779	-2.278513
C	-0.550449	1.119206	0.750711
N	-1.023854	2.001634	1.363134
Cl	3.314827	0.0	0.0
