15

C	-0.398329	0.029666	-1.463238
C	0.0	0.0	0.0
Br	-2.344458	0.213216	-1.669017
H	1.09276	0.0	0.0
H	-0.299406	0.965309	0.42157
C	0.320419	1.149502	-2.181574
H	1.395804	0.996275	-2.039907
H	0.068631	1.153749	-3.240078
H	0.039483	2.103729	-1.733182
N	-0.046312	-1.28258	-2.162471
O	-0.126385	-1.285474	-3.388342
O	0.286519	-2.230482	-1.460442
C	-0.593155	-1.047331	0.816111
N	-1.070273	-1.840188	1.538567
Cl	3.299214	0.0	0.0
