15

C	-0.430226	-0.055665	-1.459718
C	0.0	0.0	0.0
Br	0.048539	1.581726	-2.366824
H	1.092921	0.0	0.0
H	-0.325011	-0.924205	0.484382
C	0.214364	-1.241488	-2.151858
H	1.294898	-1.149786	-2.057308
H	-0.071933	-1.270826	-3.205078
H	-0.107891	-2.158346	-1.655799
N	-1.954718	-0.259841	-1.548343
O	-2.394171	-1.126412	-0.795615
O	-2.616448	0.365436	-2.364134
C	-0.555088	1.134608	0.721463
N	-1.027924	2.034256	1.30729
Cl	3.316817	0.0	0.0
