15

C	-0.402706	-0.008256	-1.464601
C	0.0	0.0	0.0
Br	-0.093465	1.738791	-2.262263
H	1.094117	0.0	0.0
H	-0.313697	-0.950574	0.441948
C	0.374582	-1.065759	-2.222743
H	1.439903	-0.889053	-2.059273
H	0.117065	-2.050876	-1.818736
H	0.130819	-1.035573	-3.283417
N	-1.893659	-0.306363	-1.640387
O	-2.550148	-0.534521	-0.626357
O	-2.323139	-0.352045	-2.788699
C	-0.558518	1.090468	0.783466
N	-1.008017	1.970395	1.416819
Cl	3.320018	0.0	0.0
