15

C	-0.442516	0.06887	-1.477393
C	0.0	0.0	0.0
Cl	-0.088494	-1.502201	-2.273736
H	1.096538	0.0	0.0
H	-1.530589	0.178535	-1.535438
C	0.274222	1.181011	-2.217411
H	1.35208	1.044635	-2.110422
H	-0.001252	2.146769	-1.786551
H	0.004741	1.182177	-3.275517
N	-0.463309	-1.138134	0.776665
H	-1.403814	-1.398084	0.499789
H	0.153662	-1.916795	0.582109
C	-0.479309	1.235632	0.637929
N	-0.928566	2.203089	1.130108
Cl	3.360406	0.0	0.0
