15

C	-0.38042	-0.037115	-1.475357
C	0.0	0.0	0.0
Cl	-2.179454	-0.12231	-1.657182
H	1.096761	0.0	0.0
H	-0.091009	0.91164	-1.931784
C	0.279991	-1.200492	-2.180743
H	0.046832	-1.189383	-3.247357
H	1.360203	-1.112658	-2.036225
H	-0.057619	-2.137731	-1.740186
N	-0.432543	-1.205264	0.694963
H	0.17664	-1.35527	1.490201
H	-1.385759	-1.106396	1.023171
C	-0.472224	1.240481	0.635289
N	-0.850323	2.209945	1.181582
Cl	3.334481	0.0	0.0
