17

C	0.063615	0.145578	0.006175
C	-0.519517	0.01383	-1.404661
F	1.466202	0.081532	-0.05419
H	-1.605169	-0.070442	-1.274725
C	-0.207045	1.514957	0.531743
N	-0.459982	2.577495	0.964859
N	-0.414977	-0.889452	0.838235
H	-0.371916	-0.647426	1.818094
H	-1.367926	-1.183465	0.589721
C	-0.014847	-1.262723	-2.055358
H	1.065913	-1.204746	-2.199385
H	-0.503367	-1.392488	-3.025855
H	-0.261572	-2.125967	-1.439768
N	-0.112038	1.177125	-2.202688
H	-0.260593	0.95459	-3.180255
H	-0.722066	1.95901	-1.988169
Cl	-3.420189	-1.669062	-0.134859
