17

C	0.145573	-0.010407	-0.008075
C	-0.603202	0.461579	-1.26968
F	1.476692	0.413572	-0.1123
H	0.056468	0.107153	-2.072414
C	-0.364004	0.63453	1.228768
N	-0.756708	1.094318	2.236004
N	0.109699	-1.430993	0.05291
H	-0.829129	-1.687396	-0.250153
H	0.281989	-1.77029	0.990232
C	-0.716128	1.978044	-1.322227
H	0.258506	2.449883	-1.170536
H	-1.418675	2.333835	-0.566202
H	-1.129841	2.282609	-2.283788
N	-1.881525	-0.237397	-1.344504
H	-2.011414	-0.59533	-2.281989
H	-2.662008	0.417257	-1.22268
Cl	-4.326572	1.86587	-1.855156
