12

C	-0.49932	-0.056499	-1.419969
C	0.0	0.0	0.0
F	-1.922575	-0.254171	-1.436696
H	1.091843	0.0	0.0
H	-0.097533	-0.930949	-1.93678
H	-0.341871	0.931487	0.46862
N	-0.161602	1.117933	-2.140204
H	-0.443998	1.939741	-1.622762
H	-0.619082	1.117222	-3.04223
C	-0.50919	-1.114906	0.778342
N	-0.896831	-2.023405	1.415266
F	2.580986	0.0	0.0
