12

C	-0.184448	-0.142288	-1.515759
C	0.0	0.0	0.0
F	-0.183185	1.195382	-2.036743
H	1.094508	0.0	0.0
H	-1.151409	-0.538387	-1.845863
H	-0.417189	0.943195	0.351937
N	0.891735	-0.91257	-1.993903
H	0.979254	-0.862734	-2.998967
H	1.757292	-0.636022	-1.497559
C	-0.555246	-1.121493	0.728035
N	-1.022161	-2.021419	1.322965
F	2.667114	0.0	0.0
