12

C	-0.489427	-0.018575	-1.438178
C	0.0	0.0	0.0
F	-0.080367	-1.207094	-2.022253
H	1.09206	0.0	0.0
H	0.001389	0.798764	-1.974252
H	-0.304474	0.949429	0.456904
N	-1.92147	0.070658	-1.668322
H	-2.229802	0.997618	-1.392384
H	-2.377328	-0.599986	-1.05605
C	-0.59424	-1.084455	0.756306
N	-1.112217	-1.959434	1.345882
F	2.588165	0.0	0.0
