12

C	-0.093525	0.061486	-1.522924
C	0.0	0.0	0.0
F	-1.38709	0.336365	-1.977447
H	1.092963	0.0	0.0
H	0.18198	-0.923833	-1.910683
H	-0.429056	-0.908953	0.426658
N	0.824008	1.029334	-2.076627
H	0.534458	1.941252	-1.733136
H	1.713611	0.817749	-1.595915
C	-0.536868	1.186104	0.633831
N	-0.952142	2.156155	1.15199
F	2.631106	0.0	0.0
