12

C	-0.131324	0.055354	-1.51956
C	0.0	0.0	0.0
F	-1.395573	0.496197	-1.926281
H	1.093451	0.0	0.0
H	0.003718	-0.949335	-1.931949
H	-0.34974	0.943964	0.429435
N	0.874231	0.923636	-2.090932
H	1.743113	0.65397	-1.59637
H	0.667966	1.862196	-1.756317
C	-0.641074	-1.129255	0.634124
N	-1.15578	-2.051729	1.150276
F	2.64198	0.0	0.0
