15

C	0.0	0.0	0.0
C	-0.462921	0.071906	-1.459452
F	1.41783	0.0	0.0
H	-1.56608	0.11948	-1.303033
C	-0.380389	1.262264	0.679923
N	-0.556754	2.278434	1.238398
N	-0.505889	-1.100415	0.74124
H	-0.291229	-1.952667	0.231681
H	-1.539325	-0.910695	0.664136
C	-0.097022	-1.183659	-2.137598
N	0.217624	-2.145568	-2.736484
N	0.0576	1.254468	-2.123992
H	1.03783	1.129997	-2.343395
H	-0.450668	1.422156	-2.981551
F	-2.724298	0.0	0.0
