15

C	0.0	0.0	0.0
C	-0.494917	-0.049368	-1.454751
F	1.409526	0.0	0.0
H	-1.578902	-0.226783	-1.321999
C	-0.348035	1.323021	0.594476
N	-0.509009	2.363427	1.116606
N	-0.503817	-1.114978	0.711666
H	-0.236694	-1.032041	1.686869
H	-1.538473	-0.94641	0.620129
C	0.156203	-1.171972	-2.138947
N	0.634583	-2.066632	-2.729968
N	-0.299618	1.178302	-2.214663
H	0.619019	1.562018	-2.019143
H	-0.99202	1.846167	-1.894911
F	-2.722714	0.0	0.0
