15

C	0.0	0.0	0.0
C	-0.288634	0.023915	-1.522453
F	1.410674	0.0	0.0
H	0.149008	0.962828	-1.899341
C	-0.419698	1.263937	0.633989
N	-0.549367	2.322141	1.125825
N	-0.451618	-1.126704	0.727682
H	-1.481531	-0.958942	0.696267
H	-0.249349	-1.930244	0.137897
C	-1.690575	0.002211	-1.981943
N	-2.476738	-0.032645	-2.863536
N	0.372994	-1.161906	-2.091817
H	0.047248	-1.283407	-3.042335
H	1.371211	-0.99791	-2.104974
F	-2.587224	0.0	0.0
