15

C	0.0	0.0	0.0
C	-0.470767	-0.170432	-1.464055
F	1.384378	0.0	0.0
H	-1.570422	-0.213216	-1.31987
C	-0.406701	1.356644	0.447803
N	-0.561279	2.474134	0.771901
N	-0.500807	-0.969004	0.913604
H	-0.27547	-1.888408	0.542587
H	-1.533367	-0.80644	0.807213
C	0.040267	-1.451058	-1.96265
N	0.451614	-2.482544	-2.346615
N	-0.098831	0.904324	-2.375266
H	0.854346	1.192432	-2.181926
H	-0.705146	1.693127	-2.183427
F	-2.714391	0.0	0.0
