15

C	0.0	0.0	0.0
C	-0.289484	0.05635	-1.52233
F	1.408208	0.0	0.0
H	0.171588	0.99029	-1.881377
C	-0.419893	1.25112	0.66002
N	-0.544594	2.299406	1.172116
N	-0.45272	-1.141052	0.704788
H	-0.25516	-1.931241	0.094414
H	-1.483013	-0.969846	0.67703
C	-1.689663	0.077825	-1.983329
N	-2.478667	0.09148	-2.862268
N	0.343769	-1.132873	-2.112556
H	0.00862	-1.236067	-3.062015
H	1.344496	-0.988967	-2.13091
F	-2.590089	0.0	0.0
