15

C	0.0	0.0	0.0
C	-0.360035	0.10725	-1.508492
F	1.419172	0.0	0.0
H	-0.247157	1.163279	-1.802379
C	-0.41455	1.208595	0.734047
N	-0.571928	2.232014	1.287078
N	-0.413289	-1.18951	0.662107
H	-1.442718	-1.072152	0.642084
H	-0.166426	-1.950844	0.034812
C	-1.727481	-0.311321	-1.890783
N	-2.459738	-0.715038	-2.726895
N	0.547748	-0.792474	-2.237739
H	0.189219	-0.89781	-3.178044
H	1.467618	-0.375076	-2.274158
F	-2.558726	0.0	0.0
