15

C	0.0	0.0	0.0
C	-0.507537	0.001087	-1.437947
F	1.382185	0.0	0.0
H	-1.609153	0.02965	-1.273679
C	-0.354275	1.303926	0.641871
N	-0.509772	2.281503	1.273677
N	-0.529288	-1.129603	0.676526
H	-1.563635	-0.944381	0.57612
H	-0.282417	-1.064295	1.658912
C	-0.110133	-1.250289	-2.102899
N	0.213107	-2.17766	-2.74905
N	-0.033386	1.186326	-2.14055
H	-0.596301	1.333543	-2.968037
H	0.929028	1.057524	-2.429005
F	-2.765442	0.0	0.0
