15

C	0.0	0.0	0.0
C	-0.49056	0.032236	-1.457246
F	1.408739	0.0	0.0
H	-1.579582	-0.125666	-1.333648
C	-0.345013	1.293297	0.66192
N	-0.50602	2.30677	1.233954
N	-0.509458	-1.150025	0.646969
H	-1.545323	-0.968726	0.564668
H	-0.242038	-1.125098	1.625984
C	0.138588	-1.070957	-2.189743
N	0.633411	-1.9258	-2.824378
N	-0.257631	1.288177	-2.157768
H	0.668666	1.638545	-1.939327
H	-0.935915	1.958396	-1.815484
F	-2.726921	0.0	0.0
