15

C	0.0	0.0	0.0
C	-0.504045	-0.060984	-1.456256
F	1.403229	0.0	0.0
H	-1.563237	-0.337878	-1.325772
C	-0.350646	1.322904	0.595992
N	-0.50458	2.363986	1.11837
N	-0.501225	-1.117314	0.711865
H	-0.212481	-1.050875	1.68275
H	-1.535391	-0.942263	0.633138
C	0.25163	-1.0934	-2.171566
N	0.845002	-1.904858	-2.777934
N	-0.460465	1.196457	-2.189325
H	-1.221693	1.763446	-1.833502
H	0.409351	1.681744	-1.999296
F	-2.714741	0.0	0.0
