19

C	-0.223977	-5.5e-05	-1.501067
C	0.0	0.0	0.0
Cl	-2.03117	5.6e-05	-1.895292
H	1.097494	0.0	0.0
C	0.408333	1.245025	-2.091684
H	1.444314	1.23168	-1.731752
H	-0.08284	2.143555	-1.72201
H	0.379531	1.219881	-3.185334
C	0.408272	-1.24523	-2.091559
H	-0.083246	-2.14367	-1.721989
H	0.379816	-1.220011	-3.185325
H	1.444246	-1.23213	-1.731253
N	-0.466678	-1.241927	0.608558
H	0.063384	-1.388607	1.458476
H	-1.448278	-1.160304	0.855034
N	-0.466695	1.241989	0.608415
H	0.063555	1.388887	1.458283
H	-1.448312	1.160249	0.85506
F	2.713567	0.0	0.0
