19

C	-0.221279	0.026811	-1.499839
C	0.0	0.0	0.0
Cl	-2.026558	0.033593	-1.899826
H	1.110657	0.0	0.0
C	0.412993	1.282729	-2.067787
H	1.447016	1.263374	-1.704752
H	-0.078487	2.174767	-1.684555
H	0.386621	1.275972	-3.161432
C	0.413456	-1.207788	-2.110868
H	1.448615	-1.199664	-1.749831
H	-0.077718	-2.112052	-1.757745
H	0.384885	-1.164156	-3.203629
N	-0.463457	-1.253348	0.591465
H	-1.437503	-1.165619	0.873941
H	0.092941	-1.422658	1.422275
N	-0.470555	1.229526	0.628238
H	0.021257	1.338528	1.506209
H	-1.466177	1.162909	0.820831
F	2.717786	0.0	0.0
