19

C	-0.156983	-0.068471	-1.515412
C	0.0	0.0	0.0
Cl	-1.938555	-0.189328	-2.00024
H	1.104995	0.0	0.0
C	0.440672	1.180375	-2.133358
H	-0.099247	2.067452	-1.809098
H	1.464679	1.221297	-1.74413
H	0.447666	1.11651	-3.225651
C	0.572616	-1.297488	-2.03042
H	0.105102	-2.221399	-1.685473
H	0.603232	-1.308766	-3.122955
H	1.584946	-1.215856	-1.613962
N	-0.464858	-1.18287	0.725027
H	-1.262533	-1.602729	0.256183
H	0.28719	-1.860926	0.74404
N	-0.541089	1.239261	0.533171
H	-1.529406	1.090128	0.71922
H	-0.098665	1.370201	1.436116
F	2.732387	0.0	0.0
