19

C	-0.158903	0.048959	-1.519666
C	0.0	0.0	0.0
Cl	-1.910648	0.206071	-2.039452
H	1.104993	0.0	0.0
C	0.619615	1.246436	-2.041726
H	0.160592	2.185993	-1.726366
H	0.674149	1.23828	-3.134558
H	1.621907	1.153449	-1.601975
C	0.418326	-1.229303	-2.097949
H	-0.163224	-2.091628	-1.771286
H	1.439507	-1.288413	-1.704442
H	0.438024	-1.200249	-3.191079
N	-0.580098	-1.224816	0.573324
H	-0.797988	-0.974297	1.533156
H	0.16908	-1.910654	0.619275
N	-0.513603	1.154798	0.717224
H	-1.343234	1.517468	0.258494
H	0.199785	1.871065	0.715637
F	2.754899	0.0	0.0
