19

C	-0.379489	-0.024288	-1.495286
C	0.0	0.0	0.0
Cl	-0.088305	1.635373	-2.200866
H	1.095644	0.0	0.0
C	0.599239	-0.966575	-2.181606
H	0.519315	-0.906692	-3.271513
H	0.371713	-1.985555	-1.856238
H	1.605736	-0.70898	-1.831879
C	-1.832996	-0.366221	-1.770332
H	-2.032548	-0.375324	-2.845529
H	-2.030451	-1.354145	-1.350216
H	-2.513506	0.356523	-1.307753
N	-0.420679	-1.301123	0.565339
H	0.401535	-1.669682	1.0312
H	-1.098856	-1.093231	1.288535
N	-0.53798	1.113806	0.776499
H	-1.259694	1.597876	0.25733
H	0.217836	1.777246	0.899999
F	2.730695	0.0	0.0
