14

C	-0.338972	-0.00501	-1.475853
C	0.0	0.0	0.0
Br	-2.280499	0.170817	-1.869632
H	1.098275	0.0	0.0
H	0.119598	0.861228	-1.958046
C	0.11739	-1.219423	-2.14228
N	0.456359	-2.196084	-2.701594
C	-0.459106	-1.230652	0.768414
H	-1.547748	-1.327222	0.8008
H	-0.027111	-2.122738	0.308707
H	-0.073245	-1.169834	1.788616
C	-0.45398	1.232432	0.615703
N	-0.795496	2.229374	1.138807
H	2.635392	0.0	0.0
