14

C	-0.509151	-0.001914	-1.441948
C	0.0	0.0	0.0
Br	0.138874	-1.56431	-2.450924
H	1.095679	0.0	0.0
H	-1.597861	-0.099043	-1.478646
C	-0.134805	1.197453	-2.18547
N	0.09193	2.165381	-2.8114
C	-0.438225	-1.231743	0.788541
H	0.06343	-2.111486	0.383749
H	-1.521985	-1.387221	0.772519
H	-0.112239	-1.115916	1.824
C	-0.489091	1.214005	0.63275
N	-0.895607	2.189764	1.151102
H	2.672472	0.0	0.0
