14

C	-0.346129	-0.053517	-1.484618
C	0.0	0.0	0.0
Br	0.007267	1.643716	-2.391961
H	1.095486	0.0	0.0
H	0.354038	-0.7641	-1.940015
C	-1.722332	-0.445427	-1.765183
N	-2.836218	-0.763713	-1.966524
C	-0.372134	-1.317094	0.683905
H	0.133753	-2.137305	0.16506
H	0.01296	-1.297664	1.706013
H	-1.449168	-1.505579	0.706324
C	-0.57817	1.139104	0.680723
N	-1.051325	2.058842	1.24227
H	2.644276	0.0	0.0
