14

C	-0.498382	-0.003818	-1.446516
C	0.0	0.0	0.0
Br	0.130541	-1.585982	-2.436384
H	1.095709	0.0	0.0
H	-1.588404	-0.081205	-1.493022
C	-0.093597	1.183398	-2.194275
N	0.159538	2.143006	-2.823689
C	-0.452112	-1.222984	0.793303
H	-0.119927	-1.110058	1.827372
H	0.032044	-2.112915	0.389033
H	-1.539163	-1.359754	0.782192
C	-0.48615	1.221165	0.622054
N	-0.890548	2.202741	1.130883
H	2.671804	0.0	0.0
