14

C	-0.344494	-0.030525	-1.48534
C	0.0	0.0	0.0
Br	0.018932	1.678298	-2.366061
H	1.095518	0.0	0.0
H	0.351336	-0.738282	-1.950656
C	-1.72185	-0.410132	-1.775119
N	-2.829878	-0.748991	-1.976236
C	-0.373527	-1.326501	0.663845
H	0.00398	-1.318817	1.689049
H	0.13952	-2.13791	0.138218
H	-1.450264	-1.518553	0.675202
C	-0.578345	1.128035	0.699001
N	-1.0519	2.020447	1.302863
H	2.642652	0.0	0.0
