14

C	-0.51153	0.007878	-1.441603
C	0.0	0.0	0.0
Br	0.155765	-1.536493	-2.464879
H	1.095717	0.0	0.0
H	-1.598997	-0.104903	-1.476893
C	-0.154995	1.219451	-2.174606
N	0.095323	2.175692	-2.810034
C	-0.438772	-1.238884	0.776429
H	-0.115107	-1.134831	1.814194
H	-1.5233	-1.392871	0.755629
H	0.062957	-2.115131	0.364076
C	-0.489717	1.208191	0.6429
N	-0.89627	2.180033	1.168343
H	2.669844	0.0	0.0
