14

C	-0.509326	0.007375	-1.44157
C	0.0	0.0	0.0
Br	0.113243	-1.563774	-2.452441
H	1.095639	0.0	0.0
H	-1.599502	-0.074332	-1.478986
C	-0.112901	1.201376	-2.181841
N	0.14623	2.167166	-2.800151
C	-0.440379	-1.23253	0.785346
H	-1.52553	-1.377251	0.782899
H	0.046634	-2.114327	0.368747
H	-0.098625	-1.126452	1.816928
C	-0.489062	1.211516	0.63705
N	-0.897754	2.18495	1.157811
H	2.669847	0.0	0.0
