17

C	-0.346234	-0.111501	-1.48971
C	0.0	0.0	0.0
F	-1.642366	-0.582739	-1.682405
H	1.091843	0.0	0.0
C	-0.322058	1.216355	-2.163435
N	-0.255203	2.248281	-2.721898
N	0.560547	-1.055823	-2.052821
H	1.516585	-0.876442	-1.737389
H	0.521069	-1.040665	-3.064486
C	-0.535147	-1.174069	0.792724
H	-0.16034	-2.09284	0.342345
H	-1.623913	-1.180903	0.795367
H	-0.162982	-1.112367	1.817384
N	-0.525544	1.279332	0.550168
O	0.270072	2.190613	0.766191
O	-1.744527	1.343327	0.733469
Br	3.477844	0.0	0.0
