17

C	-0.347584	-0.115739	-1.490426
C	0.0	0.0	0.0
F	-1.65959	-0.587302	-1.642596
H	1.090866	0.0	0.0
C	-0.342899	1.164058	-2.246426
N	-0.355967	2.075956	-2.987974
N	0.546685	-1.080963	-2.04146
H	0.535995	-1.051227	-3.053034
H	1.498968	-0.922718	-1.704948
C	-0.515124	-1.187533	0.780801
H	-1.603204	-1.194717	0.832504
H	-0.10564	-1.156251	1.79255
H	-0.162884	-2.094501	0.286322
N	-0.467263	1.290232	0.583813
O	0.061439	2.313792	0.156103
O	-1.335427	1.260135	1.458436
Br	3.426251	0.0	0.0
