17

C	-0.324777	0.053005	-1.499568
C	0.0	0.0	0.0
F	-0.070672	-1.253505	-1.987541
H	1.092122	0.0	0.0
C	-1.759188	0.274062	-1.792632
N	-2.897235	0.416269	-2.042519
N	0.466921	1.033887	-2.112198
H	1.432301	0.964912	-1.79082
H	0.409091	0.989821	-3.120289
C	-0.586745	-1.188656	0.719995
H	-1.668511	-1.244913	0.596762
H	-0.359683	-1.114899	1.784188
H	-0.121171	-2.093196	0.331971
N	-0.463288	1.282419	0.61598
O	0.311856	2.233126	0.62075
O	-1.610567	1.301239	1.072534
Br	3.472629	0.0	0.0
