17

C	-0.412302	-0.066325	-1.477309
C	0.0	0.0	0.0
F	-1.6143	-0.776301	-1.622535
H	1.0896	0.0	0.0
C	-0.684642	1.261663	-2.092657
N	-0.859141	2.283069	-2.644824
N	0.616907	-0.723814	-2.202538
H	0.280016	-1.448161	-2.814557
H	1.466354	-0.930283	-1.686831
C	-0.458728	-1.234466	0.761827
H	-0.108252	-2.125802	0.24083
H	-1.545946	-1.266774	0.843145
H	-0.00341	-1.216467	1.753382
N	-0.544789	1.185691	0.710706
O	0.144679	1.689255	1.593038
O	-1.695717	1.526536	0.42176
Br	3.464825	0.0	0.0
