17

C	-0.537074	0.079525	-1.440277
C	0.0	0.0	0.0
F	-0.102257	1.288831	-1.955402
H	1.089776	0.0	0.0
C	0.060339	-1.011894	-2.239001
N	0.439273	-1.903969	-2.901061
N	-1.959842	0.014997	-1.609658
H	-2.279048	-0.934049	-1.734589
H	-2.4201	0.436745	-0.811531
C	-0.484025	-1.231475	0.738704
H	-0.080171	-1.219255	1.753341
H	-1.572263	-1.286708	0.786037
H	-0.084329	-2.118205	0.241809
N	-0.473201	1.23196	0.703584
O	0.334281	2.116366	0.952239
O	-1.681223	1.281404	0.986489
Br	3.478025	0.0	0.0
