17

C	-0.342657	-0.08417	-1.490671
C	0.0	0.0	0.0
F	-1.690295	-0.425252	-1.658508
H	1.093458	0.0	0.0
C	-0.198378	1.190109	-2.24184
N	-0.120064	2.101306	-2.979851
N	0.461972	-1.131546	-2.037164
H	1.425728	-1.02988	-1.71248
H	0.448011	-1.099145	-3.049211
C	-0.528176	-1.194174	0.761642
H	-0.180049	-1.144322	1.793725
H	-1.616397	-1.226519	0.752597
H	-0.130043	-2.096918	0.299461
N	-0.476296	1.283127	0.592139
O	-1.371787	1.240714	1.438615
O	0.067318	2.313052	0.19809
Br	3.418281	0.0	0.0
