11
Coordinates from ORCA-job run
  C   0.62349064458359     -0.50837407726533      0.44370335036893
  C   -0.32449553472079      0.42581122908419     -0.29709650306630
  F   0.54034475307909     -0.25617767125280      1.80129897856426
  H   -0.13148961889748      1.43176030730993      0.08859635437306
  H   0.32083765109276     -1.54585607570971      0.28299930621784
  H   -0.06250003343102      0.43039234611743     -1.36029978277174
  C   2.01712887968956     -0.31958729332148      0.00800258372274
  N   3.11217324177301     -0.15455446199284     -0.37956925531693
  N   -1.69902338347599      0.00862949498670     -0.05586488933544
  H   -2.23669834441182      0.73911244355068      0.38462588753672
  H   -2.15976825528091     -0.25015624150676     -0.91539603029314
