11
Coordinates from ORCA-job run
  C   0.63057757316498     -0.31077707331877      0.53382097174644
  C   -0.38727234932878      0.10808976074034     -0.50849899226955
  F   0.76072026698188      0.71236251981880      1.46462120517284
  H   -0.45766492840530     -0.68655051091431     -1.25605654567718
  H   0.27511450318582     -1.19556829955472      1.06710414591214
  H   -0.00635963255646      1.01029527417175     -1.00833795796967
  C   1.94536889220916     -0.57631952170866     -0.06812744071802
  N   2.97766102949012     -0.79738536420131     -0.57984065997065
  N   -1.67506917768331      0.26215891951705      0.15159317666092
  H   -2.40676504930354      0.38869764277454     -0.53501245728076
  H   -1.65731112775456      1.08599665267529      0.73873455439348
