11
Coordinates from ORCA-job run
  C   0.59387437927644     -0.51703666717173      0.61298893141277
  C   -0.71841390102689     -0.32560460206455     -0.12106288986550
  F   0.60458808057366      0.31957056986685      1.72342772177258
  H   -1.51810820046968     -0.63808885928673      0.56723680374099
  H   0.69241308190038     -1.54339383713683      0.97891987248318
  H   -0.73151853751592     -1.00197905038574     -0.98019273312862
  C   1.74878663084662     -0.19400094195323     -0.23749781854653
  N   2.66293365708791      0.02235827297361     -0.93951498681146
  N   -0.80724315661429      1.04626284412217     -0.58768017438755
  H   -1.59208256398495      1.16155976497140     -1.21391774726329
  H   -0.93622947007327      1.66935250606478      0.19829302059343
