11
Coordinates from ORCA-job run
  C   0.62057543757001     -0.56063168864384      0.62529988040169
  C   -0.75208639091831     -0.27686315545933      0.03310702180866
  F   0.77299717799815      0.10838092239502      1.82130648498762
  H   -0.92345476136842     -0.99803469722167     -0.78029223596400
  H   0.73780772340376     -1.63065827947931      0.82610527110525
  H   -1.47789171538225     -0.48948463543335      0.82199843112996
  C   1.68017565918879     -0.13759396352798     -0.30553595045847
  N   2.50649122057321      0.16427553044068     -1.08158505543056
  N   -0.85295464184582      1.12019234791467     -0.35063639549492
  H   -0.49964154192443      1.26551145124588     -1.28710513235204
  H   -1.81201816729467      1.43490616776923     -0.32266231973319
