11
Coordinates from ORCA-job run
  C   0.70067510496714     -0.04715813071249      0.39469113793998
  C   -0.56279492965683     -0.14355932571267     -0.45906776192592
  F   1.19718421673012      1.24673528032548      0.30987887926230
  H   -0.27946187985576      0.06665017338481     -1.49381715598961
  H   0.47279755511759     -0.23674906383046      1.44832357688557
  H   -0.93427585136104     -1.17144070390337     -0.42392138797713
  C   1.73364894261781     -0.98951795450120     -0.05683504809705
  N   2.52314123880519     -1.76855119127915     -0.44023472853489
  N   -1.61900800629859      0.76827070386137     -0.06930358817427
  H   -1.96001654797337      0.55642345861193      0.85980885372894
  H   -1.27288984309226      1.71889675375575     -0.06952277711793
