11
Coordinates from ORCA-job run
  C   0.59990757688341     -0.50092515389148      0.61278408673518
  C   -0.70877698476151     -0.34722950872401     -0.13587751283546
  F   0.56834224132040      0.32517904210470      1.73074205272887
  H   -1.50646759526692     -0.69174426773890      0.53919773941448
  H   0.73006225321629     -1.52672144394346      0.97041509328247
  H   -0.68831689374954     -1.01626347131063     -1.00058136206287
  C   1.75508796373466     -0.13134352857276     -0.21859900327522
  N   2.69434942831422      0.10545596175360     -0.87963165219295
  N   -0.83578844979908      1.02503445886747     -0.59265260354326
  H   -0.98732787923868      1.63745670263583      0.19774740865384
  H   -1.62107166065325      1.12210120881964     -1.22154424690507
