11
Coordinates from ORCA-job run
  C   0.56461681374719     -0.50357023176764      0.60658456119574
  C   -0.80278647675128     -0.40018702861890     -0.06648943738941
  F   0.57505877885195      0.32423794218810      1.72157403814776
  H   -0.83159543030502     -1.09844948422181     -0.90775323978126
  H   0.76816321790429     -1.52259606850930      0.94995784239657
  H   -1.54326130070929     -0.73564550025082      0.66521904995253
  C   1.63220353209388     -0.07190694681646     -0.30846835282830
  N   2.44457756446345      0.26955985761158     -1.08341114498332
  N   -1.16360714652645      0.92316177984073     -0.52802669071100
  H   -1.08805594736363      1.59012344850572      0.22900136665347
  H   -0.55731360540510      1.22527223203880     -1.28018799265278
