15

C	-0.570284	-0.004164	-1.428203
C	0.0	0.0	0.0
Cl	0.143155	-1.293172	-2.396305
H	1.093396	0.0	0.0
C	-2.025122	-0.136664	-1.411052
N	-3.187054	-0.295059	-1.328831
N	-0.224599	1.350955	-2.066016
O	-1.169463	2.073986	-2.360204
O	0.961201	1.584508	-2.204411
C	-0.444843	-1.222366	0.680307
N	-0.837556	-2.158409	1.273219
N	-0.434953	1.223003	0.65127
H	-1.252051	1.086909	1.231467
H	0.330199	1.579598	1.210263
Cl	3.219766	0.0	0.0
