15

C	-0.566882	-0.00221	-1.429052
C	0.0	0.0	0.0
Cl	0.119157	-1.312047	-2.389466
H	1.093392	0.0	0.0
C	-2.024297	-0.098935	-1.413739
N	-3.191101	-0.217896	-1.334008
N	-0.187724	1.342341	-2.072446
O	1.003476	1.554407	-2.186383
O	-1.114063	2.077714	-2.395827
C	-0.452762	-1.217428	0.682194
N	-0.851431	-2.148668	1.278769
N	-0.431784	1.227462	0.64593
H	-1.240143	1.092746	1.238614
H	0.339393	1.591883	1.191769
Cl	3.22451	0.0	0.0
