15

C	-0.518393	0.064248	-1.443959
C	0.0	0.0	0.0
Cl	-2.289949	0.176158	-1.473516
H	1.093989	0.0	0.0
C	0.034535	1.211127	-2.154046
N	0.396062	2.148084	-2.764525
N	-0.074765	-1.217641	-2.178803
O	-0.849284	-2.163605	-2.191765
O	1.05651	-1.171814	-2.640047
C	-0.48308	-1.217912	0.658322
N	-0.893072	-2.140618	1.260416
N	-0.387358	1.225057	0.676779
H	0.376515	1.509884	1.276054
H	-1.2316	1.110754	1.22011
Cl	3.173802	0.0	0.0
