15

C	-0.513243	0.048115	-1.449202
C	0.0	0.0	0.0
Cl	-2.287728	0.098627	-1.491798
H	1.093999	0.0	0.0
C	0.005301	1.219097	-2.145705
N	0.365482	2.174256	-2.729041
N	-0.036365	-1.217378	-2.192397
O	-0.719523	-2.222383	-2.054755
O	1.017214	-1.110232	-2.80002
C	-0.485221	-1.201614	0.684389
N	-0.898502	-2.110658	1.305332
N	-0.390872	1.23844	0.653879
H	0.370992	1.539971	1.244373
H	-1.22707	1.128034	1.206273
Cl	3.200851	0.0	0.0
