15

C	-0.5612	-0.001456	-1.431152
C	0.0	0.0	0.0
Cl	0.114943	-1.324136	-2.379115
H	1.093424	0.0	0.0
C	-2.018692	-0.087249	-1.423418
N	-3.186654	-0.196992	-1.351094
N	-0.167231	1.331368	-2.088567
O	1.02607	1.529802	-2.212362
O	-1.086981	2.074598	-2.408934
C	-0.45764	-1.215198	0.683023
N	-0.858329	-2.144491	1.281216
N	-0.429319	1.230338	0.642106
H	-1.244635	1.102532	1.223852
H	0.336624	1.588564	1.196455
Cl	3.223441	0.0	0.0
