15

C	-0.57318	-0.037801	-1.426415
C	0.0	0.0	0.0
Cl	0.121455	-1.36242	-2.359146
H	1.093434	0.0	0.0
C	-2.030263	-0.148443	-1.403489
N	-3.195665	-0.279598	-1.3187
N	-0.210311	1.295061	-2.105238
O	0.97882	1.504368	-2.258393
O	-1.145008	2.025359	-2.412613
C	-0.448211	-1.202052	0.712676
N	-0.844676	-2.120776	1.329608
N	-0.430765	1.240924	0.620463
H	-1.232405	1.118649	1.223568
H	0.344091	1.619669	1.150127
Cl	3.21711	0.0	0.0
