18

C	0.0	0.0	0.0
C	-0.552023	0.269783	-1.411075
Cl	1.805758	0.0	0.0
H	-1.637005	0.309861	-1.242895
C	-0.496748	1.035528	0.994411
H	-1.588998	0.971285	1.007695
H	-0.1821	2.020554	0.651857
H	-0.095052	0.834085	1.989785
C	-0.36974	-1.349936	0.440803
N	-0.583492	-2.448922	0.796787
C	-0.246734	-0.84611	-2.403186
H	0.832679	-0.961624	-2.547592
H	-0.700495	-0.597504	-3.366508
H	-0.662094	-1.800711	-2.072942
N	-0.103845	1.591178	-1.845188
H	-0.796751	1.978931	-2.472854
H	0.771366	1.50607	-2.351186
Cl	-3.79848	0.0	0.0
