18

C	0.0	0.0	0.0
C	-0.433354	0.35032	-1.479905
Cl	1.801228	0.0	0.0
H	0.340785	-0.112215	-2.103483
C	-0.59262	0.884861	1.07663
H	-0.270346	1.917706	0.946613
H	-0.288012	0.540312	2.067139
H	-1.684716	0.820392	0.996837
C	-0.35243	-1.403459	0.253031
N	-0.563057	-2.547481	0.423385
C	-0.411197	1.856463	-1.700705
H	0.521287	2.313559	-1.359876
H	-1.253244	2.323572	-1.184918
H	-0.53146	2.045531	-2.768363
N	-1.698608	-0.179149	-1.913625
H	-1.689554	-1.19191	-1.900675
H	-2.491411	0.103289	-1.330036
Cl	-4.268928	0.0	0.0
