18

C	0.0	0.0	0.0
C	-0.431181	-0.06899	-1.519083
Cl	1.803055	0.0	0.0
H	0.32253	-0.717215	-1.982513
C	-0.58938	1.155523	0.783291
H	-0.244744	2.105182	0.372006
H	-1.682059	1.090419	0.714767
H	-0.293165	1.097507	1.832599
C	-0.357932	-1.279094	0.624176
N	-0.580898	-2.332111	1.095293
C	-0.359587	1.308475	-2.164416
H	-0.493404	1.185685	-3.240677
H	-1.174527	1.938765	-1.799928
H	0.594957	1.806944	-1.976117
N	-1.71679	-0.657804	-1.78294
H	-2.496999	-0.196215	-1.308139
H	-1.74153	-1.620769	-1.469361
Cl	-4.309452	0.0	0.0
