18

C	0.0	0.0	0.0
C	-0.434436	-0.062052	-1.516886
Cl	1.802538	0.0	0.0
H	0.32856	-0.690534	-1.990688
C	-0.586408	1.152418	0.790593
H	-0.240188	2.104375	0.387561
H	-1.678998	1.090698	0.719449
H	-0.295225	1.084354	1.840328
C	-0.357653	-1.278116	0.626266
N	-0.569189	-2.32181	1.123385
C	-0.387945	1.323528	-2.145808
H	0.554112	1.840072	-1.944222
H	-0.510099	1.211989	-3.224237
H	-1.219135	1.9304	-1.779549
N	-1.711316	-0.666782	-1.78463
H	-2.496397	-0.219487	-1.303244
H	-1.723284	-1.636277	-1.491243
Cl	-4.298513	0.0	0.0
