18

C	0.0	0.0	0.0
C	-0.437495	-0.046614	-1.478489
Cl	1.807298	0.0	0.0
H	-0.004219	0.862729	-1.928665
C	-0.524751	1.217778	0.740346
H	-1.610433	1.13444	0.83685
H	-0.274216	2.123465	0.182918
H	-0.082144	1.276808	1.735868
C	-0.396874	-1.231359	0.687661
N	-0.705203	-2.188714	1.294529
C	-1.949373	-0.01548	-1.61959
H	-2.405099	0.897056	-1.242995
H	-2.207739	-0.09308	-2.680651
H	-2.43515	-0.832431	-1.087227
N	0.079344	-1.271612	-2.079566
H	-0.465907	-1.498378	-2.900586
H	1.047426	-1.164947	-2.353012
Cl	-4.927037	0.0	0.0
