18

C	0.0	0.0	0.0
C	-0.444668	-0.081725	-1.510663
Cl	1.803928	0.0	0.0
H	0.31238	-0.720238	-1.980875
C	-0.582427	1.159001	0.783872
H	-1.675411	1.093174	0.724061
H	-0.24321	2.107961	0.368381
H	-0.281367	1.101435	1.831471
C	-0.349417	-1.272097	0.644613
N	-0.574427	-2.309598	1.148334
C	-0.396935	1.294398	-2.159439
H	0.550271	1.807449	-1.973089
H	-1.220787	1.912029	-1.794115
H	-0.529304	1.169616	-3.235218
N	-1.726053	-0.684769	-1.756187
H	-2.509844	-0.215229	-1.294887
H	-1.747693	-1.643309	-1.429201
Cl	-4.329376	0.0	0.0
