18

C	0.0	0.0	0.0
C	-0.43647	-0.168355	-1.508385
Cl	1.797958	0.0	0.0
H	0.323625	-0.83278	-1.935929
C	-0.589925	1.203643	0.70649
H	-0.243873	2.125802	0.239519
H	-1.68193	1.134184	0.636182
H	-0.30213	1.209289	1.759394
C	-0.35753	-1.232293	0.712841
N	-0.587578	-2.246103	1.260607
C	-0.385843	1.168945	-2.234555
H	-1.217821	1.800389	-1.915771
H	-0.504225	0.981249	-3.302151
H	0.555241	1.698335	-2.06728
N	-1.7155	-0.785728	-1.730535
H	-2.498875	-0.301627	-1.283412
H	-1.730176	-1.730047	-1.364621
Cl	-4.30438	0.0	0.0
