12

C	0.0	0.0	0.0
C	-0.423342	-0.066748	-1.490222
Br	1.942691	0.0	0.0
H	0.223727	0.633515	-2.030882
H	-0.326931	0.943788	0.42409
C	-0.454331	-1.113104	0.821784
N	-0.580839	-2.038912	1.533927
C	-1.826196	0.32727	-1.796299
N	-2.560996	0.747543	-2.625995
C	-0.134528	-1.395192	-2.041822
N	0.108708	-2.442554	-2.513338
F	-2.374217	0.0	0.0
