12

C	0.0	0.0	0.0
C	-0.493574	0.05602	-1.480028
Br	1.933845	0.0	0.0
H	0.385267	0.046054	-2.141728
H	-0.331739	0.884376	0.531019
C	-0.440711	-1.18558	0.725771
N	-0.555566	-2.170322	1.358515
C	-1.194874	1.31911	-1.726607
N	-1.58783	2.380199	-2.041121
C	-1.324167	-1.086712	-1.873945
N	-1.813402	-2.031065	-2.372751
F	-2.304291	0.0	0.0
