12

C	0.0	0.0	0.0
C	-0.483921	-0.324861	-1.446886
Br	1.940833	0.0	0.0
H	0.391516	-0.576645	-2.062228
H	-0.332068	0.987469	0.293792
C	-0.433544	-0.979986	0.989569
N	-0.557696	-1.789438	1.833629
C	-1.082961	0.873745	-2.039836
N	-1.390025	1.847975	-2.619281
C	-1.409902	-1.458169	-1.548914
N	-1.98434	-2.431467	-1.875527
F	-2.304456	0.0	0.0
