12

C	0.0	0.0	0.0
C	-0.48914	-0.142653	-1.465394
Br	1.943182	0.0	0.0
H	0.288446	0.273949	-2.117136
H	-0.311059	0.971152	0.373336
C	-0.451816	-1.038612	0.917507
N	-0.579715	-1.902881	1.703986
C	-1.728588	0.621982	-1.735618
N	-2.33983	1.351765	-2.437405
C	-0.627944	-1.552845	-1.837928
N	-0.68146	-2.674891	-2.180697
F	-2.376028	0.0	0.0
