16

C	0.0	0.0	0.0
C	-0.538733	0.159977	-1.410493
Cl	1.807832	0.0	0.0
H	-1.627149	0.131583	-1.273929
H	-0.282804	-0.99699	0.336319
C	-0.508175	1.061219	0.947233
H	-0.149037	0.875326	1.962262
H	-1.600913	1.01368	0.93456
H	-0.184842	2.048019	0.616375
N	-0.16913	-1.005479	-2.211394
H	-0.715199	-1.003735	-3.064806
H	0.811811	-0.944686	-2.463888
N	-0.190383	1.474612	-1.942416
H	-0.774619	1.673148	-2.74511
H	0.77873	1.474522	-2.243047
Br	-4.05264	0.0	0.0
