16

C	0.0	0.0	0.0
C	-0.568938	0.382599	-1.366167
Cl	1.792114	0.0	0.0
H	-1.645423	0.195979	-1.25845
H	-0.295393	-1.033697	0.192138
C	-0.497811	0.896552	1.114516
H	-0.106245	1.906913	0.982885
H	-0.167405	0.527559	2.08819
H	-1.592334	0.902922	1.086199
N	-0.087689	-0.415893	-2.480855
H	0.920881	-0.501308	-2.4154
H	-0.488723	-1.343099	-2.419402
N	-0.271374	1.780635	-1.674946
H	-0.909946	2.365384	-1.145009
H	-0.51451	1.896403	-2.651614
Br	-4.031136	0.0	0.0
