16

C	0.0	0.0	0.0
C	-0.555856	-0.152524	-1.421721
Cl	1.790856	0.0	0.0
H	-1.636991	-0.002395	-1.303463
H	-0.298811	-0.874875	0.582
C	-0.50205	1.259355	0.676521
H	-0.128669	1.325103	1.700705
H	-0.159742	2.145477	0.135225
H	-1.595345	1.231388	0.688689
N	-0.228257	-1.481496	-1.933887
H	-0.775284	-2.159166	-1.411037
H	-0.572522	-1.501736	-2.887711
N	-0.078162	0.81175	-2.39536
H	-0.500854	1.713233	-2.216552
H	0.928976	0.89966	-2.318119
Br	-4.007238	0.0	0.0
