16

C	0.0	0.0	0.0
C	-0.507797	0.509862	-1.37658
Cl	1.791327	0.0	0.0
H	0.362865	0.789724	-1.97555
H	-0.274781	-1.050977	0.074427
C	-0.498331	0.758287	1.210452
H	-0.216825	1.808812	1.146404
H	-0.081782	0.31999	2.120957
H	-1.588078	0.682894	1.249807
N	-1.303866	1.721378	-1.221609
H	-1.51316	2.073252	-2.150419
H	-2.203371	1.47264	-0.804637
N	-1.131034	-0.632805	-2.054327
H	-1.386464	-0.335835	-2.991235
H	-2.01374	-0.819051	-1.575725
Br	-4.123166	0.0	0.0
