15

C	-0.295782	0.019138	-1.480596
C	0.0	0.0	0.0
Br	-2.283061	0.011053	-1.907145
H	1.098224	0.0	0.0
C	0.218068	1.23761	-2.106372
N	0.624732	2.215697	-2.616153
C	0.251299	-1.155434	-2.157838
N	0.676138	-2.099723	-2.714656
C	-0.495687	-1.218045	0.603444
N	-0.898799	-2.190284	1.129769
C	-0.455417	1.244478	0.747486
H	-0.091854	1.174754	1.774638
H	0.003811	2.128297	0.29821
H	-1.54416	1.361952	0.759799
F	2.463248	0.0	0.0
