15

C	-0.238996	0.037412	-1.492668
C	0.0	0.0	0.0
Br	-2.194697	0.163107	-2.004595
H	1.098309	0.0	0.0
C	0.390397	1.215669	-2.092097
N	0.878348	2.157395	-2.598121
C	0.257953	-1.171641	-2.147607
N	0.632758	-2.144638	-2.68999
C	-0.546124	-1.202188	0.584253
N	-0.994331	-2.160945	1.09903
C	-0.432768	1.262065	0.73126
H	0.099491	2.119578	0.312474
H	-0.129215	1.17192	1.776258
H	-1.512475	1.438618	0.685106
F	2.463627	0.0	0.0
