15

C	-0.226557	0.028392	-1.495243
C	0.0	0.0	0.0
Br	-2.177375	0.156667	-2.025705
H	1.098296	0.0	0.0
C	0.412069	1.200065	-2.096987
N	0.903594	2.137213	-2.60816
C	0.27331	-1.186305	-2.138839
N	0.65124	-2.161985	-2.674026
C	-0.549419	-1.19962	0.587283
N	-0.994758	-2.157852	1.106163
C	-0.434737	1.268259	0.719369
H	-0.164353	1.175298	1.772818
H	0.121604	2.116852	0.314534
H	-1.50986	1.460156	0.642119
F	2.464134	0.0	0.0
