15

C	-0.290279	0.020823	-1.482354
C	0.0	0.0	0.0
Br	-2.270873	0.030436	-1.917855
H	1.09829	0.0	0.0
C	0.240339	1.234382	-2.103741
N	0.653464	2.205938	-2.620339
C	0.251254	-1.158502	-2.155791
N	0.667787	-2.104884	-2.71471
C	-0.500518	-1.215944	0.602447
N	-0.910082	-2.18542	1.129482
C	-0.451142	1.247241	0.745541
H	-0.092125	1.175829	1.774051
H	-1.538568	1.373146	0.753153
H	0.017318	2.126592	0.298229
F	2.463177	0.0	0.0
