15

C	-0.341153	0.046122	-1.496217
C	0.0	0.0	0.0
Br	0.337087	-1.567807	-2.398295
H	1.095969	0.0	0.0
C	-1.782797	0.109342	-1.754084
N	-2.946806	0.189702	-1.905256
C	0.302586	1.200628	-2.129324
N	0.792026	2.117543	-2.678258
C	-0.576965	-1.175812	0.614659
N	-1.05932	-2.106243	1.150661
C	-0.437859	1.281009	0.71015
H	0.107173	2.127464	0.287044
H	-0.146424	1.201726	1.759409
H	-1.516166	1.46814	0.656455
F	2.494704	0.0	0.0
