12
Coordinates from ORCA-job run
  C   -0.76320273139342     -0.20576695341322     -0.20038625606799
  C   0.65508583516596      0.39169833495483     -0.11068574833268
  F   -1.50282687007627      0.70903060372544     -0.95862460537877
  H   0.57802305715733      1.33786337810213      0.44038652280013
  H   -0.74634426626318     -1.14180852931148     -0.76150154517285
  N   -1.27910661600106     -0.42358786744826      1.08952990403897
  H   -2.14106899218846     -0.95113047598849      1.06884809944249
  H   -1.42393039473348      0.44410916044410      1.58968600381694
  C   1.18704018288657      0.68142981390867     -1.44613843726042
  N   1.60832972858901      0.90107678469183     -2.51891288556768
  C   1.55182352301697     -0.50970914447838      0.61729133317086
  N   2.27717754384002     -1.23220510518716      1.19050761451100
