12
Coordinates from ORCA-job run
  C   -0.63537853634477     -0.48391857522048      0.00597801739134
  C   0.79870696315716      0.06382514501710      0.17003134515688
  F   -0.90118657225651     -0.54522524274038     -1.34049173819752
  H   0.97783855935000      0.18895808484891      1.24430920713496
  H   -0.66899941798781     -1.50930459190333      0.39458089805646
  N   -1.56597152995319      0.41765874975134      0.62642086627973
  H   -1.90257030270204      0.05055143247346      1.50623900929507
  H   -2.35433585798997      0.56123741595936      0.00938023245695
  C   0.91066067618119      1.37593532516584     -0.47314468682954
  N   1.00415755497999      2.42282713456679     -0.99379765209110
  C   1.78636764744616     -0.87684468809499     -0.36830886868067
  N   2.55071081611981     -1.66570018982362     -0.78119662997257
