12
Coordinates from ORCA-job run
  C   -0.61481945189173     -0.56695444733517      0.11762669090118
  C   0.79449037053812      0.05156102072774      0.20137459335099
  F   -0.85343885341125     -0.84323550393581     -1.22969091868433
  H   1.02684525344371      0.19156081044636      1.26265079880555
  H   -0.61493952985713     -1.52597186762733      0.64039520269816
  N   -1.55974590023967      0.30157987266067      0.69953295403037
  H   -2.46366416880768     -0.14332088715360      0.78574991609426
  H   -1.65945170952295      1.15613966290453      0.16381562440448
  C   0.80317693730189      1.36450780710810     -0.45184491411624
  N   0.75196380258169      2.42415686906381     -0.95351750943572
  C   1.79554297916345     -0.83764884714365     -0.39402176674358
  N   2.59204027070155     -1.57337448971567     -0.84207067130512
