12
Coordinates from ORCA-job run
  C   -0.72613520100975     -0.27660670626674     -0.27885840354127
  C   0.59438274811580      0.51703248829322     -0.19476505061867
  F   -1.46404327647728      0.28519278174899     -1.29287164275941
  H   0.30517083760697      1.55978583820660     -0.02260085732146
  H   -0.52110563979989     -1.31346763681898     -0.57781798428662
  N   -1.45401394016827     -0.10028064330879      0.94236481780580
  H   -1.00379864356254     -0.58921534630278      1.70716664184661
  H   -2.38743340267775     -0.47762743511140      0.82909261671611
  C   1.34846824188209      0.41524568801597     -1.44637554671884
  N   1.93640260636903      0.33194892791696     -2.45839784905788
  C   1.38969984967597      0.04108083584823      0.93873594491389
  N   1.98140582004563     -0.39208879222128      1.85532731302171
