12
Coordinates from ORCA-job run
  C   -0.78936883082081     -0.43158938983501     -0.22067124339686
  C   0.70466402147343     -0.19710946691257     -0.52438106053717
  F   -1.48607645565709     -0.14613492143369     -1.37183135739556
  H   0.97551322150152     -0.85102187923511     -1.36132625829780
  H   -0.93893531707832     -1.50384156134496     -0.02862184304439
  N   -1.23184328492451      0.46135528753745      0.79979105584160
  H   -2.22251647756618      0.33654234553812      0.96629236027100
  H   -0.73238502937098      0.31125978806732      1.66780730281100
  C   1.50733853675366     -0.56705644418799      0.64404048396818
  N   2.09169277172312     -0.89780290765530      1.60698310568663
  C   0.94950807317423      1.19347020891015     -0.91816878913556
  N   1.17240877079189      2.29292894055162     -1.26091375677106
