12
Coordinates from ORCA-job run
  C   -0.62582839981669     -0.44961372961881      0.29869049504174
  C   0.66350164494133     -0.07328392274246     -0.46103655011662
  F   -0.97388477425195     -1.71447490138227     -0.11049954828843
  H   0.41672711014436     -0.15138806913111     -1.52574333140405
  H   -0.41983322292539     -0.51463384656289      1.37563793813153
  N   -1.67547085580112      0.44251573536523     -0.09392504828313
  H   -2.55426411471067      0.10686736134630      0.28229999019364
  H   -1.51185248158849      1.37606770572773      0.26438437108624
  C   1.75074231489583     -0.99948350372470     -0.13651297963365
  N   2.60887701455639     -1.75277479779402      0.13380939105228
  C   1.03871726690194      1.30810420464292     -0.15272280537731
  N   1.28356849765450      2.42209776387404      0.12461807759777
