12
Coordinates from ORCA-job run
  C   -0.73499124941738     -0.26020330508534     -0.27028475402049
  C   0.61107559359497      0.49194863990718     -0.21073887561827
  F   -1.45625417822246      0.29613312445429     -1.29925517141581
  H   0.35685339405249      1.54816182261883     -0.06813992121066
  H   -0.56451697221742     -1.31127582585613     -0.53984248383702
  N   -1.45424786584225     -0.02522836974777      0.94608036930367
  H   -2.39832648886321     -0.37918761998096      0.84637204152931
  H   -1.01606620433976     -0.50271466380109      1.72498608330730
  C   1.35734780952232      0.32808439545230     -1.46051682637502
  N   1.93623339941373      0.18752693277220     -2.47155085796185
  C   1.39314179327436      0.02314378435862      0.93488337142045
  N   1.96875096904461     -0.39638891509215      1.86800702487839
