12
Coordinates from ORCA-job run
  C   -0.61559449611035     -0.57256185139054      0.07911662988095
  C   0.79615746908785      0.03470382706575      0.19791466660225
  F   -0.86496743110054     -0.74466125607716     -1.28382940316893
  H   1.04027290288133      0.09120365565255      1.26433318970473
  H   -0.61453168495396     -1.56902032405723      0.52648815890503
  N   -1.55343515180038      0.25060600048329      0.73273562878442
  H   -1.65468673815964      1.14470376970322      0.26681563876095
  H   -2.45759835291336     -0.19729549817941      0.79417726081960
  C   0.80180783665189      1.39448923949340     -0.35161179016038
  N   0.75261214495273      2.48753599262175     -0.77543449708157
  C   1.78880483255580     -0.80755870810813     -0.47483329078498
  N   2.58115866890865     -1.51314484720750     -0.97587219226206
