12
Coordinates from ORCA-job run
  C   -0.82077060387890      0.03724233759838     -0.19493039433461
  C   0.69074229486214     -0.17909646862104     -0.40514032280636
  F   -0.99875530206605      1.39701615463327      0.06739908784921
  H   0.83489321933583     -1.22446981188753     -0.69914875126282
  H   -1.34508425747332     -0.17362645347354     -1.12963832004902
  N   -1.29369593871047     -0.80926014963814      0.82689375392001
  H   -0.90352889501151     -0.56088335782599      1.72848587823905
  H   -2.30281700136542     -0.79002673749925      0.88392569593912
  C   1.40756764300976      0.05073874383990      0.85362269662849
  N   1.93494604379887      0.20789463555639      1.89021243930673
  C   1.20309140557111      0.69009297448142     -1.46799553795987
  N   1.59341139192796      1.35337813283616     -2.35368622546995
