12
Coordinates from ORCA-job run
  C   -0.61741801652923     -0.49285691455812      0.29805590842256
  C   0.81405048304191      0.04277891089997      0.10007014392272
  F   -1.02132520292698     -1.02297928547222     -0.92879864964628
  H   1.17472577476246      0.38239209405621      1.07711363892791
  H   -0.59324983080037     -1.32380516648151      1.00655722574249
  N   -1.45499730550633      0.53160464469378      0.78182935932558
  H   -2.35855933922345      0.16994547253128      1.05524931159400
  H   -1.58295431238554      1.26465881665497      0.09400752955575
  C   0.79580845674224      1.19248715557641     -0.81042055431413
  N   0.72617522164419      2.13428410272599     -1.50703390059995
  C   1.70407205207392     -1.00841064197657     -0.40035166525352
  N   2.41367201910719     -1.86809918865022     -0.76627834767712
