12
Coordinates from ORCA-job run
  C   -0.57216396358655     -0.33867858757783      0.47186401283742
  C   0.62882990813058     -0.03591758603936     -0.44617671961540
  F   -0.85786326765007     -1.69416244732798      0.27258665474049
  H   0.29672121900008     -0.18567661739217     -1.48160540870743
  H   -0.28695336709439     -0.22579228562819      1.51941997672673
  N   -1.64354327378942      0.51939279789057      0.16667758823723
  H   -2.38905105095347      0.45169354640392      0.84535119872850
  H   -2.01154998527018      0.35042054542584     -0.76080753547703
  C   1.73546339919255     -0.96103500007643     -0.18231392448687
  N   2.61830904187534     -1.69936831231572      0.04555509889427
  C   1.06641701260974      1.35290963789598     -0.28574281101332
  N   1.41638432753580      2.46621430874138     -0.16280813086460
