12
Coordinates from ORCA-job run
  C   -0.65502218370737     -0.52462998233181     -0.09512797474082
  C   0.78195577671606     -0.07934964571703      0.24111380791719
  F   -0.82360217620473     -0.33350269773269     -1.46782298928839
  H   0.95625161248816     -0.30603968919463      1.29854855509979
  H   -0.74831078269827     -1.59765494789408      0.08640183841504
  N   -1.57917305084154      0.18288568446619      0.69847771323986
  H   -1.59111558873757      1.16955102940735      0.46795671537027
  H   -2.51249500763196     -0.19312144898311      0.60116148271194
  C   0.91305955288247      1.36873904650982      0.04932744638496
  N   0.96459643724481      2.53256824977277     -0.09251165274824
  C   1.76060741797861     -0.80569151575544     -0.57270494908003
  N   2.53224799251129     -1.41375408254738     -1.21381999328156
