12
Coordinates from ORCA-job run
  C   -0.70196947913137     -0.45946479987341     -0.33101006542031
  C   0.50156378896119      0.51888079332320     -0.22051829187762
  F   -1.36079285438900     -0.06028882517380     -1.47953684368913
  H   0.08030358712163      1.53000523517381     -0.15314789083072
  H   -0.33601314162367     -1.47676416453461     -0.48765062016349
  N   -1.57932894857738     -0.43427017431097      0.77277135909590
  H   -1.37161184732604     -1.12925026947115      1.47189254103649
  H   -1.71055894231829      0.47673178527570      1.18777599223946
  C   1.36437076847405      0.45113611628494     -1.40220805052957
  N   2.04012432512562      0.36925329861513     -2.35827754562113
  C   1.25746533743858      0.23415620160869      1.00086533336483
  N   1.81844740624467     -0.02012519691752      2.00004408239530
