12
Coordinates from ORCA-job run
  C   -0.63698857541830     -0.52271334854566      0.36842656224939
  C   0.59763599259822     -0.05905174296597     -0.45560537451447
  F   -0.91353891908141     -1.78822028535579     -0.11523759844537
  H   0.29345769382092     -0.06651020985342     -1.51004763620230
  H   -0.36222020301298     -0.61527862666358      1.42168888080094
  N   -1.76968730090996      0.30824535141343      0.24443127182134
  H   -1.83426450212496      1.01578247899577      0.95868584719568
  H   -1.90658131444920      0.70058340944632     -0.67575188641909
  C   1.73194073691473     -0.97106836464594     -0.29204363201711
  N   2.63003681974488     -1.71114791407426     -0.13980253071202
  C   0.96079167299604      1.30643423991695     -0.07164912154603
  N   1.21041789892200      2.40194501233218      0.26790521778907
