12
Coordinates from ORCA-job run
  C   -0.79727170484910     -0.09544893720263     -0.19291358626644
  C   0.65675274162435      0.41993226722666     -0.22758121085457
  F   -1.52964755577662      0.72572038367995     -1.01643960046270
  H   0.61069882766371      1.46557032535079      0.09660015842949
  H   -0.84784955483917     -1.10200353705723     -0.62964704915601
  N   -1.31065417383312      0.04662094368903      1.13674601498463
  H   -0.86808901484200     -0.61008241742818      1.76887330091574
  H   -2.30633513984652     -0.14067959353932      1.12942656663949
  C   1.20472683499444      0.34705875510491     -1.58416488999592
  N   1.62526331852013      0.27639293313923     -2.67733985728738
  C   1.47921637495274     -0.34304476045692      0.71320319339490
  N   2.08318904623112     -0.99003636250628      1.48423695965878
