12
Coordinates from ORCA-job run
  C   -0.72737560430862     -0.42934330419836     -0.31798037276831
  C   0.51021838670990      0.50763187035009     -0.22536001666029
  F   -1.40923519951044      0.01693362302915     -1.43516787239532
  H   0.12480771265511      1.52992162295228     -0.12171333998680
  H   -0.39937208167627     -1.45381275115037     -0.50847992959287
  N   -1.56849951582390     -0.40263764157006      0.81366437329479
  H   -1.66203583162934      0.50355550155941      1.24893435977531
  H   -1.35755469827614     -1.11611361536377      1.49290479509845
  C   1.33222052497843      0.44031615507259     -1.43572125529717
  N   1.98137125764968      0.36431018628052     -2.41052140514325
  C   1.29509025608397      0.17004416992027      0.96376315870168
  N   1.88036479314762     -0.13080581688177      1.93567750497377
