12
Coordinates from ORCA-job run
  C   -0.67192964361475     -0.58980661941913     -0.09698407611704
  C   0.73706896347595      0.01161267431198      0.18670037382015
  F   -0.76459503042745     -0.67322439968424     -1.47002826784870
  H   0.87851257652853      0.02651367236574      1.27387622275612
  H   -0.69968958653332     -1.60427511303834      0.31029108004522
  N   -1.75942708006332      0.15373384902521      0.40917733983011
  H   -1.68518165376081      1.15079673320317      0.26205997969214
  H   -2.00304413225584     -0.07202237381147      1.36021308446533
  C   0.78830933238479      1.39256503436976     -0.30015678842744
  N   0.75612295404881      2.50823514918287     -0.66329963657992
  C   1.79610501424803     -0.80545537179283     -0.41002362598007
  N   2.62774828596942     -1.49867323471273     -0.86282568565590
