12
Coordinates from ORCA-job run
  C   -0.70763892309221     -0.54181230117860      0.12164744234183
  C   0.75312964481991     -0.00011855591687      0.10492811670840
  F   -0.96081574450579     -0.95198167010955     -1.17005771563013
  H   1.01746872215954      0.27123716479063      1.13389866262474
  H   -0.73986323127796     -1.42029757636252      0.77204861385187
  N   -1.69173576782000      0.38498230015037      0.52768618653392
  H   -1.58492213034549      1.30583995079083      0.12511089946543
  H   -1.83211849038928      0.42196168959156      1.52463584357376
  C   0.81834542170504      1.21045516426832     -0.71771158120891
  N   0.80210384033398      2.20178012959090     -1.34585931732406
  C   1.69443371354864     -1.01870194206269     -0.36543480344439
  N   2.43161294486363     -1.86434435355237     -0.70989234749247
