12
Coordinates from ORCA-job run
  C   -0.80625551121770     -0.30269461859452     -0.27064351899683
  C   0.54658180652640      0.46261174375809     -0.23517580846923
  F   -1.53418639037291      0.33894122759426     -1.25639185285414
  H   0.31150367325308      1.50682351941812      0.00736014839116
  H   -0.63794422940204     -1.33305915767341     -0.59213878360216
  N   -1.51416117160448     -0.29433329556231      0.94859902710100
  H   -1.43209348723287      0.55945171591510      1.48099163785245
  H   -1.34411919928844     -1.10385628487047      1.52337856127854
  C   1.22323068169317      0.42779566893931     -1.53371298146359
  N   1.75251408957093      0.38199800647114     -2.58019202657801
  C   1.39935369997930     -0.09098069606404      0.81860026648912
  N   2.03757603809556     -0.55169782933121      1.68932533085167
