12
Coordinates from ORCA-job run
  C   -0.76692187856081     -0.58040998870225     -0.23874731418393
  C   0.71146105409327     -0.16546393806735     -0.51582434541197
  F   -1.40185496195237     -0.41106634798843     -1.45401738564689
  H   1.08044631758369     -0.74228868442334     -1.37105862474498
  H   -0.78040436507760     -1.64431844850187      0.01215415820341
  N   -1.44049659149551      0.14723232137827      0.76205292764961
  H   -1.28789347234273      1.14560556380469      0.72139843691846
  H   -1.29808663382932     -0.21551304701656      1.69154236963167
  C   1.52238204250132     -0.46619216240719      0.66532779841309
  N   2.11931527310519     -0.73977826747998      1.63823595187212
  C   0.77251964568401      1.26156750875943     -0.83872798463847
  N   0.76953357029085      2.41162549064461     -1.07333598806212
