12
Coordinates from ORCA-job run
  C   -0.76909492938008     -0.45770578078325     -0.24652277609890
  C   0.73513112497833     -0.20463163392875     -0.47525324138774
  F   -1.40381673646921     -0.23646358478353     -1.44685514114286
  H   1.06514419474335     -0.88494538126230     -1.26865787721604
  H   -0.90941382290276     -1.52389949613012     -0.01739302369420
  N   -1.28608118705141      0.46728642127497      0.70760768007692
  H   -0.82266021809689      0.37808822655519      1.60343474289168
  H   -2.27920113647736      0.31947596127153      0.83563682056828
  C   1.47763816440782     -0.51044200778582      0.75034357319448
  N   2.01684760330611     -0.78472697448190      1.75639034312186
  C   0.97673005826504      1.17430800000615     -0.91043871399715
  N   1.19777688467709      2.26265625004783     -1.28829238631630
