12
Coordinates from ORCA-job run
  C   -0.71955064944717     -0.56069904864658     -0.09346183763743
  C   0.72116832398355     -0.19648297080563     -0.50651737778816
  F   -1.48038306801896     -0.42824931753107     -1.26433216802898
  H   0.96867221551155     -0.77484006065724     -1.40318685197374
  H   -0.75831125910392     -1.61523073595101      0.18713449903399
  N   -1.16046630649549      0.23869783325691      0.97204073536530
  H   -2.04098603113067     -0.08078642225984      1.35024034144339
  H   -1.22913356904184      1.21614690252315      0.71644629621067
  C   1.66289582492889     -0.54243840998642      0.56071487844770
  N   2.41209603732387     -0.86050724839313      1.40600842876307
  C   0.80179688579937      1.23016983853140     -0.83696710750853
  N   0.82120159569081      2.37621963991947     -1.08811983632728
