12
Coordinates from ORCA-job run
  C   -0.79556060212477      0.08422224341698     -0.12812827433104
  C   0.72036406584116     -0.12959540491057     -0.31252131276688
  F   -1.00731359321295      1.40561530505663      0.16940882981784
  H   0.89377564966678     -1.19957053408226     -0.48377714745635
  H   -1.29847620654674     -0.10979059514369     -1.08584582873535
  N   -1.24975605973540     -0.69372381155644      0.98816924938554
  H   -2.14573812047432     -0.33718377846279      1.29790940115060
  H   -1.36416125633686     -1.66582884428453      0.72862872852481
  C   1.44430399799210      0.27002132723055      0.89768946238356
  N   2.04403743949009      0.58213777156708      1.85614039822775
  C   1.20285773903651      0.60830945759731     -1.48438131660425
  N   1.55366694640439      1.18638686357172     -2.44329218959621
