12
Coordinates from ORCA-job run
  C   -0.81901210308362      0.03634980553695     -0.20338910426118
  C   0.69657216245115     -0.15942913653573     -0.40555925868524
  F   -1.01236179899467      1.38266884794301      0.11033994218939
  H   0.85060544891715     -1.19101832906933     -0.74052467930661
  H   -1.33106416386216     -0.14266173622900     -1.15146165366398
  N   -1.29515734372917     -0.85391141367700      0.77920970080668
  H   -0.91879193255362     -0.63599039422218      1.69444343388741
  H   -2.30504627345463     -0.84713699261075      0.82427279856077
  C   1.39829348065415      0.02415462269542      0.86901309015115
  N   1.91451342464186      0.15601394715501      1.91451666483095
  C   1.21356885230684      0.75727751214653     -1.42514073538478
  N   1.60988024670673      1.47368326686708     -2.26572019912459
