12
Coordinates from ORCA-job run
  C   -0.77197097354975     -0.58060117915200     -0.22294001777823
  C   0.68961894412417     -0.14358751469293     -0.54999125047548
  F   -1.45932097032023     -0.38365653654317     -1.40483778633536
  H   1.02706104837424     -0.69268031867619     -1.43596346892885
  H   -0.76551638170270     -1.65113783786330     -0.00167347007662
  N   -1.40895578911064      0.11222019282056      0.82597426462434
  H   -1.26332665899425      1.11240955992346      0.80885533640425
  H   -1.22259416248547     -0.27613644745951      1.73730101093684
  C   1.55262118921324     -0.46938273117092      0.58673978050207
  N   2.19257228312120     -0.76790237458145      1.52431712575756
  C   0.72484315535947      1.29247643490839     -0.83475863598471
  N   0.70496831597074      2.44897875248705     -1.03402288864580
