12
Coordinates from ORCA-job run
  C   -0.87227453418818      0.13917660050080     -0.17473972988060
  C   0.65242825183948     -0.11312517425679     -0.37192123665184
  F   -0.98943165373137      1.48748736187159      0.08797604941939
  H   0.77996118363238     -1.16453264774591     -0.65550388129852
  H   -1.37925935042423     -0.07079358058297     -1.12061593342908
  N   -1.47816154624025     -0.60215693680998      0.86214370954161
  H   -0.93936180379387     -0.63881306081438      1.71631522540673
  H   -1.80284844459982     -1.51285934103154      0.57936403755719
  C   1.35515400373549      0.10797041289845      0.89454941359478
  N   1.86566047102701      0.25475672872264      1.94108541422549
  C   1.19943415238599      0.72802927206903     -1.43883870284095
  N   1.60969927035738      1.38586036517905     -2.31981436564421
