15

C	0.0	0.0	0.0
C	-0.272474	0.11938	-1.530029
F	1.385647	0.0	0.0
H	0.038744	-0.850964	-1.922902
C	-0.373688	1.198463	0.789442
N	-0.513139	2.100895	1.529384
N	-0.485994	-1.238679	0.481123
H	-1.511707	-1.185095	0.376935
H	-0.285756	-1.300346	1.475096
N	0.742213	1.10791	-2.077141
O	0.5917	2.281363	-1.759182
O	1.625724	0.655787	-2.796869
C	-1.540744	0.508095	-2.142442
N	-2.251789	0.838556	-3.02358
Cl	-3.28751	0.0	0.0
