15

C	0.0	0.0	0.0
C	-0.172329	0.088084	-1.565241
F	1.380442	0.0	0.0
H	0.231406	1.061966	-1.847962
C	-0.389968	1.268404	0.661708
N	-0.553219	2.269051	1.256263
N	-0.51783	-1.197179	0.530174
H	-1.541281	-1.147732	0.388146
H	-0.357021	-1.21225	1.532825
N	-1.514064	0.013639	-2.258196
O	-1.963974	-1.102543	-2.467562
O	-1.962198	1.084285	-2.647503
C	0.655992	-0.959133	-2.169098
N	1.336385	-1.739734	-2.721515
Cl	-3.412104	0.0	0.0
