15

C	0.0	0.0	0.0
C	-0.523352	0.165897	-1.437226
F	1.37232	0.0	0.0
H	-1.625721	0.184522	-1.371964
C	-0.366407	1.219607	0.776087
N	-0.568774	2.192801	1.402408
N	-0.476962	-1.232999	0.515773
H	-0.229196	-1.299332	1.496557
H	-1.502123	-1.21118	0.444722
N	-0.115634	-1.049314	-2.231128
O	-0.968504	-1.913451	-2.389216
O	1.040761	-1.083498	-2.643414
C	0.024575	1.353125	-2.076509
N	0.445917	2.316488	-2.600096
Cl	-3.420444	0.0	0.0
