18
Coordinates from ORCA-job run
  C   -0.54199317714623     -0.47019642398909      0.01788507459911
  C   0.91876939202224     -0.06425567042383      0.29695661558199
  Br  -0.57684442926290     -2.44576030100278     -0.18924109604194
  H   1.20497993145544     -0.55660165343798      1.23935581431424
  C   -1.42460560832117     -0.14317804104604      1.21004921696495
  H   -1.41980077595250      0.93705059789626      1.36206835692425
  H   -2.44698259678762     -0.48273163963705      1.03306742570719
  H   -1.05440801521001     -0.62618715142216      2.11742479378534
  C   -1.07332890207364      0.14330652475246     -1.26511231093676
  H   -1.10124707570916      1.23062339274364     -1.14665070004067
  H   -2.08891357654773     -0.20483605442421     -1.46244600879626
  H   -0.43781171118388     -0.10242759731728     -2.11491699677551
  N   0.95374187978233      1.37295818053173      0.52921114463057
  H   1.12509961667669      1.82964110697956     -0.36001281773021
  H   1.71339105608399      1.61002325481018      1.15427883869113
  N   1.78340513028487     -0.41332438755359     -0.82535291051692
  H   1.72381950375884     -1.40603455152602     -1.02126981320809
  H   2.74372935813044     -0.20706958593378     -0.57429462715241
