18
Coordinates from ORCA-job run
  C   -0.54022947828055     -0.34938586979117     -0.11978940627647
  C   0.83780920436288      0.26123552827195      0.18587062637483
  Br  -0.29293017813467     -2.11465316741624     -0.96761843147647
  H   0.60672490775748      1.15968789455966      0.78555970856120
  C   -1.31829168149501     -0.56537088442730      1.16845894483578
  H   -0.75093547810345     -1.18690519713107      1.85866622383313
  H   -2.28114214871779     -1.03537413505019      0.96006629475390
  H   -1.50401612465001      0.40460463765619      1.64376995816442
  C   -1.32102934511114      0.51359278011749     -1.09958613537482
  H   -1.41085901284557      1.53058492439259     -0.69831714149066
  H   -2.32703946329581      0.11435931507232     -1.24046202288925
  H   -0.83476488981404      0.55237972263362     -2.07452354280053
  N   1.55186378175335      0.58740807467203     -1.04874946099142
  H   1.12691388273968      1.38209630944485     -1.51329300737259
  H   2.50021070098171      0.85389129222435     -0.81058568573261
  N   1.60635538737551     -0.61112935528399      1.04346973293195
  H   1.95705379739954     -1.38633455661771      0.49139281663338
  H   2.39530613807789     -0.11168731332737      1.43567052831622
