18
Coordinates from ORCA-job run
  C   -0.55598630550629     -0.29281601733209     -0.18256534681470
  C   0.84015518663703      0.31172049915057      0.04240070071693
  Br  -0.38817704820356     -1.91400883331749     -1.29598933428910
  H   0.63789614025390      1.27927767604248      0.53551973686693
  C   -1.19254640985995     -0.71574563992198      1.13284326449340
  H   -0.63501308664610     -1.52451641147511      1.60560775710193
  H   -2.21407029670874     -1.06261779005504      0.96713540192248
  H   -1.23054842840457      0.14437230061459      1.81263167708094
  C   -1.44045178065913      0.68913715337266     -0.93429526597469
  H   -0.97588237650123      0.98054136903322     -1.87442438655693
  H   -2.41976030761228      0.24917052405973     -1.13126372318008
  H   -1.58289474606964      1.58695586999302     -0.32200567669333
  N   1.47270238238265      0.62437680075787     -1.21826916908649
  H   1.80012826496630     -0.23687560240818     -1.64224755544166
  H   2.26809389154454      1.23359948681710     -1.07025891409316
  N   1.66579243810973     -0.56952896944585      0.86840196346840
  H   1.34013748736958     -0.57532101958463      1.82852083943693
  H   2.61242499490774     -0.20772139630086      0.87725803104218
