18
Coordinates from ORCA-job run
  C   -0.55521974065525     -0.51622490491729      0.04518889080811
  C   0.92171729455796     -0.17478787505628      0.33330858092380
  Br  -0.68951637293763     -2.48012359390605     -0.06404835075305
  H   1.21176079820127     -0.75637020941683      1.21381520130631
  C   -1.45610780031388     -0.07391494205708      1.18832803393141
  H   -2.47382917459857     -0.43613465040153      1.03034444009601
  H   -1.46112456738954      1.01463179750947      1.25251071697547
  H   -1.09348195611465     -0.46690391360915      2.14068059893610
  C   -1.02754744261056      0.04673398844638     -1.28697688438246
  H   -2.07281303884043     -0.21623236181029     -1.45870920070785
  H   -0.95954244638941      1.14061252531374     -1.27741921952960
  H   -0.44010830730633     -0.34906520702219     -2.11628250474974
  N   1.00319583959430      1.23672987726238      0.72200883659632
  H   0.90896021425513      1.82301134324588     -0.10106667925445
  H   1.92292672605284      1.41817689984643      1.10803972305241
  N   1.77649624986462     -0.60644374458554     -0.76406898816457
  H   1.74993388315214      0.07209619161979     -1.51649233665838
  H   2.73629984147800     -0.67579122046184     -0.44916085842583
