18
Coordinates from ORCA-job run
  C   -0.53780791022056     -0.43331972147692     -0.19534899135381
  C   0.93416539697209      0.02148887034012     -0.25179997215418
  Br  -0.57296133615908     -2.37179968194394     -0.63018633702391
  H   1.27446710305610     -0.15113487415866     -1.28463428390534
  C   -1.14232826752197     -0.25335214632166      1.18545655668632
  H   -1.16754907798212      0.81535127004250      1.41861908935424
  H   -0.55479187472296     -0.76612361874700      1.94587238010194
  H   -2.16620259242580     -0.63138485832917      1.20566707853365
  C   -1.35503468140411      0.26693678955988     -1.26727963930776
  H   -1.35032645435171      1.33888257239525     -1.06504469828389
  H   -2.38283761197904     -0.10114259678563     -1.26570363700978
  H   -0.93046451185384      0.09620693791328     -2.25941046350686
  N   1.73700228793652     -0.67601412950250      0.74749427942697
  H   1.67082197836139     -1.67882347447201      0.61498692699000
  H   2.70874022409558     -0.41394764606353      0.62506606797934
  N   0.97491597815592      1.45765523759668     -0.01430487196782
  H   1.09537774805376      1.60712938406971      0.98155990273206
  H   1.76581360198981      1.87139168588361     -0.49100938729115
