18
Coordinates from ORCA-job run
  C   -0.54717306086353     -0.46345481304698      0.02665715176596
  C   0.91827300703296     -0.06889698314919      0.29774889987595
  Br  -0.60431197673230     -2.44262155769788     -0.14149964059369
  H   1.19936677749992     -0.54785261676507      1.24856375501963
  C   -1.42586451364560     -0.10316822182198      1.21215636896183
  H   -1.41146301400237      0.98002936730288      1.34080473535977
  H   -1.05872377549755     -0.56939741035489      2.12954908226977
  H   -2.45127847015465     -0.43784092898323      1.04357559627152
  C   -1.07208442840798      0.13037761078586     -1.26816992458192
  H   -0.44142164097429     -0.14082197889408     -2.11383418261163
  H   -1.08521400270248      1.22022767877355     -1.17187982127628
  H   -2.09265157238066     -0.20805115038445     -1.45670155332317
  N   0.96937814371512      1.37182799573106      0.50438217333807
  H   1.73155044532726      1.61127644632403      1.12556177345846
  H   1.14715435777343      1.81030528283422     -0.39277116068729
  N   1.77810146599969     -0.44759509059245     -0.81865864412696
  H   1.70527531560552     -1.44270029442021     -0.99749629841558
  H   2.74108694240750     -0.25064333564117     -0.56998831070441
