18
Coordinates from ORCA-job run
  C   -0.51627645306104     -0.26846142805718     -0.15185022187421
  C   0.92335231765141      0.24930406218946      0.08559185496858
  Br  -0.45880950704352     -1.83385941447746     -1.34748244899560
  H   0.77476037854048      1.19390284228947      0.64156674649165
  C   -1.15698598885629     -0.71454916965940      1.15417174331319
  H   -0.63403910449212     -1.57306499491715      1.57552520875450
  H   -2.20002705974813     -0.99650488059109      0.99775012730917
  H   -1.13113622364876      0.11274749197323      1.87408761201716
  C   -1.36459542568536      0.79300311616085     -0.83671335081822
  H   -2.37968095206160      0.42688173568509     -0.99916666338114
  H   -1.41778293638909      1.68537550601569     -0.20281589522524
  H   -0.95231584961973      1.07472041521755     -1.80651546097128
  N   1.69674845234329      0.58794070721880     -1.08983834435461
  H   1.71245402371366     -0.20716728412719     -1.71923515103651
  H   1.30005339716667      1.38080067992882     -1.57528852910650
  N   1.70644510437465     -0.72622691102516      0.82266029985729
  H   1.42646879389732     -0.76211120720614      1.79434224548377
  H   2.67136703291816     -0.42073126661823      0.78321022756801
