18
Coordinates from ORCA-job run
  C   -0.50017036086466     -0.46430963850318      0.05666281133857
  C   0.97860221314488     -0.09156949188452      0.33801017502921
  Br  -0.55481329785943     -2.42536713325106     -0.22481054983482
  H   1.25566321814898     -0.61803306643381      1.25777175849195
  C   -1.37265926496251     -0.16672972086801      1.26522570599410
  H   -0.98185569710498     -0.66375027127713      2.15594718965217
  H   -1.37337169507320      0.90897128003127      1.44565574347439
  H   -2.39520771310018     -0.51227633048483      1.09957080867350
  C   -1.05017153192117      0.18887474588402     -1.20056502485334
  H   -1.08920240121491      1.27393990099203     -1.06325459419027
  H   -0.44702367041087     -0.04301940270667     -2.08047441945189
  H   -2.06644631770210     -0.15743079999087     -1.39575248926569
  N   1.02225420673348      1.33564188303068      0.62607865733085
  H   0.93366606819075      1.85371922950388     -0.24266144229004
  H   1.94907262850400      1.54248072824905      0.98225569809210
  N   1.96823661790690     -0.46326248788197     -0.66360723403015
  H   1.97677170301290     -1.46708456022811     -0.80061384375108
  H   1.74765529457214     -0.03179486418079     -1.55443895040957
