18
Coordinates from ORCA-job run
  C   -0.50464704270782     -0.41390062067321     -0.20725409695160
  C   0.97884370794105      0.01499788716198     -0.34928616174867
  Br  -0.58037110063035     -2.35666664769434     -0.59182200308691
  H   1.25369581642021     -0.17975085567869     -1.39160037659751
  C   -1.05231225704900     -0.20850524444073      1.19547252292760
  H   -2.07274870095336     -0.58893362164267      1.26492544409340
  H   -0.45463469933592     -0.72547263214300      1.94868477952314
  H   -1.07976649185540      0.86107903128768      1.42564050437706
  C   -1.36981387414457      0.27692253760545     -1.24873269024604
  H   -0.98102972733857      0.09906628121961     -2.25389610444030
  H   -1.35885552283342      1.35155315887909     -1.06235585914473
  H   -2.39642731752532     -0.09289291409279     -1.20688431569712
  N   1.96111718071953     -0.67841854490079      0.47234626215053
  H   1.95891199077842     -1.67091839873568      0.26877739421949
  H   1.74185277934095     -0.56434409876189      1.45586623028632
  N   1.03812596762856      1.45643592456196     -0.14790699350874
  H   1.96826268791016      1.75960012849017     -0.41544113216777
  H   0.95179660363486      1.65814862955789      0.84346659601186
