18
Coordinates from ORCA-job run
  C   -0.48912802524318     -0.41597086351291     -0.19569744648123
  C   1.01766846691372     -0.05802829891534     -0.22020054264012
  Br  -0.61834708815090     -2.33692497786023     -0.68688084119822
  H   1.37719700733221     -0.31105010340993     -1.23107321968813
  C   -1.12073063394645     -0.24817784423986      1.17470407733121
  H   -1.08802536290249      0.80772272486800      1.46238165394170
  H   -0.58608277888317     -0.82502479330635      1.92686573623698
  H   -2.16752656377598     -0.55751298421628      1.15325505784650
  C   -1.25108577660733      0.34994056851538     -1.26586811297461
  H   -1.29421439717571      1.41072346952559     -1.00256359650622
  H   -2.27605864241849     -0.01602052715601     -1.34467597704507
  H   -0.77440772256885      0.24570479856391     -2.24387153083670
  N   1.71936135872830     -0.75349002537375      0.84294458047355
  H   1.67282756543018     -1.75447355964087      0.69854308593725
  H   2.69008443789339     -0.46615571895352      0.80706033752955
  N   1.30777867768638      1.34922708338397     -0.01841073319340
  H   0.90963934409315      1.92818112287368     -0.74465158118119
  H   0.97205013359522      1.65032992885450      0.88813905244811
