18
Coordinates from ORCA-job run
  C   -0.44480558327306     -0.25322778943917     -0.11427834951925
  C   0.96942184600059      0.36226754194527      0.12841706830258
  Br  -0.22783252367934     -1.90449768589542     -1.18517928747421
  H   0.76507868026221      1.26485980350945      0.72274886053778
  C   -1.11630344052076     -0.64545057286972      1.19297996830516
  H   -1.19171979506102      0.23830516019240      1.83746137580186
  H   -2.12427139118770     -1.02411822360175      1.01354916312972
  H   -0.55809576805865     -1.41774731670988      1.72159676783492
  C   -1.33630319086132      0.68880482318254     -0.90894123402314
  H   -0.93760527680865      0.88379467221892     -1.90417658320127
  H   -2.33767848535281      0.27013273397850     -1.02532582735558
  H   -1.42289972102259      1.64044860666484     -0.37140859095861
  N   1.66472791503538      0.79743238309553     -1.06646087215638
  H   1.14380309100114      1.52083261829498     -1.54344487656446
  H   1.77940076746937      0.01874269964603     -1.70570337986381
  N   1.87171066431259     -0.45817633886128      0.91154673082881
  H   2.00576410471560     -1.35638511812097      0.46055851840523
  H   1.49760810702903     -0.62401799723027      1.83606054797066
