15

C	0.0	0.0	0.0
C	-0.506593	0.171582	-1.423597
F	1.352404	0.0	0.0
H	-1.582741	0.356465	-1.358526
H	-0.374087	0.861632	0.582723
N	-0.597572	-1.156157	0.649401
O	-0.355506	-1.272094	1.875171
O	-1.75097	-1.412301	0.087507
N	-0.36636	-1.090474	-2.222013
O	0.582106	-1.833857	-1.969474
O	-1.180618	-1.262901	-3.124153
N	0.174178	1.21456	-2.153451
H	-0.333835	2.082164	-2.057818
H	1.11244	1.332223	-1.794386
H	-2.810092	0.0	0.0
