15

C	0.0	0.0	0.0
C	-0.322737	-0.033018	-1.509055
F	1.353644	0.0	0.0
H	0.28229	-0.844783	-1.919503
H	-0.401715	0.831722	0.56634
N	-0.393114	-1.266359	0.700849
O	-0.438104	-1.204776	1.926759
O	-0.493312	-2.29095	0.028978
N	0.428398	1.218054	-2.023845
O	1.156021	1.077952	-3.009279
O	0.216182	2.288721	-1.456266
N	-1.639771	0.009364	-1.966786
H	-2.334123	0.069696	-1.090214
H	-1.846627	-0.844188	-2.471372
H	-2.980868	0.0	0.0
