15

C	0.0	0.0	0.0
C	-0.506849	-0.006257	-1.433691
F	1.350137	0.0	0.0
H	-1.583501	0.180356	-1.391889
H	-0.375687	0.926858	0.470896
N	-0.598127	-1.066428	0.78859
O	-1.751192	-1.391764	0.263132
O	-0.355865	-1.027134	2.019018
N	-0.360672	-1.355959	-2.072764
O	-1.17333	-1.639293	-2.948187
O	0.59223	-2.058603	-1.733211
N	0.169655	0.942322	-2.285603
H	-0.338557	1.81552	-2.291279
H	1.10961	1.102915	-1.946686
H	-2.808905	0.0	0.0
