15

C	0.0	0.0	0.0
C	-0.752886	-0.143707	-1.291422
F	1.35478	0.0	0.0
H	-1.772181	-0.539259	-0.900831
H	-0.360609	0.907124	0.480108
N	-0.345525	-1.106669	0.992225
O	-0.100489	-0.82601	2.166323
O	-0.759865	-2.185089	0.589996
N	-0.124013	-1.026994	-2.264925
O	0.639564	-1.911098	-1.859577
O	-0.430566	-0.878854	-3.457674
N	-1.01911	1.173229	-1.845024
H	-1.152588	1.043842	-2.842223
H	-1.94454	1.38743	-1.4491
H	-2.922253	0.0	0.0
