15

C	0.0	0.0	0.0
C	-0.33725	0.007739	-1.511099
F	1.357282	0.0	0.0
H	0.447994	-0.596604	-1.969515
H	-0.408566	0.79812	0.603884
N	-0.369659	-1.299195	0.649348
O	-0.531337	-1.277769	1.866483
O	-0.333914	-2.311289	-0.050511
N	0.033038	1.429766	-1.981289
O	0.343629	1.540873	-3.16315
O	-0.032203	2.365758	-1.183409
N	-1.608589	-0.317983	-2.012231
H	-1.603009	-1.295676	-2.274623
H	-2.318724	-0.17495	-1.201797
H	-2.922437	0.0	0.0
