15

C	0.0	0.0	0.0
C	-0.641914	-0.214834	-1.357748
F	1.3522	0.0	0.0
H	-1.680409	-0.511962	-1.108868
H	-0.402433	0.905425	0.449396
N	-0.348442	-1.115592	0.958547
O	-0.446994	-2.24463	0.48935
O	-0.376013	-0.820506	2.149738
N	0.039582	-1.274063	-2.169039
O	1.213868	-1.068784	-2.486288
O	-0.623037	-2.244608	-2.525234
N	-0.696527	0.978196	-2.156371
H	0.116214	1.563975	-2.013068
H	-1.538356	1.468889	-1.864312
H	-2.960644	0.0	0.0
