15

C	-0.394612	0.055228	-1.468362
C	0.0	0.0	0.0
Cl	-0.027562	1.540098	-2.336331
H	1.093923	0.0	0.0
H	0.122741	-0.763929	-1.961803
N	-1.868647	-0.252698	-1.630951
O	-2.141846	-1.421782	-1.916953
O	-2.683804	0.626868	-1.381221
N	-0.344472	-1.240719	0.615881
H	0.47208	-1.834382	0.600546
H	-1.163534	-1.713306	0.259988
N	-0.607111	1.142678	0.751551
O	-0.093196	2.249467	0.589127
O	-1.581895	0.923775	1.472535
F	2.522171	0.0	0.0
