18

C	-0.353659	-0.023819	-1.479814
C	0.0	0.0	0.0
Cl	-2.179094	-0.092765	-1.692489
H	1.09731	0.0	0.0
C	0.158548	1.237087	-2.147882
H	-0.331136	2.127171	-1.748571
H	1.234025	1.299039	-1.942512
H	-0.010957	1.196383	-3.226867
C	0.242594	-1.266569	-2.108132
H	1.322164	-1.237953	-1.919189
H	-0.170109	-2.159255	-1.641101
H	0.046872	-1.283078	-3.18365
N	-0.397157	-1.211966	0.705408
H	0.312145	-1.401242	1.40616
H	-1.292359	-1.092864	1.162153
C	-0.460173	1.223059	0.658185
N	-0.811347	2.194798	1.221357
H	2.73643	0.0	0.0
