18

C	-0.493642	-0.000174	-1.457621
C	0.0	0.0	0.0
Cl	0.116977	-1.509991	-2.234194
H	1.094687	0.0	0.0
C	-2.008294	-0.033352	-1.554007
H	-2.390398	-0.903763	-1.018581
H	-2.325202	-0.097248	-2.598689
H	-2.428127	0.875826	-1.113137
C	0.130321	1.174637	-2.1936
H	1.214525	1.143424	-2.055052
H	-0.251138	2.115604	-1.788505
H	-0.109352	1.129374	-3.259679
N	-0.428129	-1.177638	0.754463
H	0.391431	-1.518997	1.250378
H	-1.143676	-0.946361	1.432493
C	-0.436479	1.236496	0.646369
N	-0.819267	2.208012	1.190174
H	2.755934	0.0	0.0
