18

C	-0.458845	-0.029305	-1.472018
C	0.0	0.0	0.0
Cl	0.158683	1.480449	-2.25272
H	1.095947	0.0	0.0
C	0.199904	-1.202019	-2.175214
H	0.011649	-1.154983	-3.250497
H	-0.20733	-2.142691	-1.794852
H	1.272956	-1.171658	-1.980944
C	-1.968968	-0.01399	-1.637101
H	-2.398608	0.875372	-1.17261
H	-2.234638	-0.017267	-2.697494
H	-2.414082	-0.900677	-1.174826
N	-0.343162	-1.193329	0.770405
H	-1.250605	-1.568667	0.530507
H	0.380584	-1.885289	0.611104
C	-0.53261	1.176483	0.685651
N	-0.990062	2.10856	1.237155
H	2.770608	0.0	0.0
