18

C	-0.485138	0.022403	-1.458129
C	0.0	0.0	0.0
Cl	0.036642	-1.541809	-2.222272
H	1.101615	0.0	0.0
C	-1.996781	0.087766	-1.578253
H	-2.449211	-0.719735	-1.0026
H	-2.351326	1.043382	-1.181917
H	-2.301282	0.005956	-2.624943
C	0.232581	1.138263	-2.197168
H	-0.092458	2.105761	-1.803217
H	1.30958	1.038015	-2.037303
H	0.003695	1.099882	-3.265702
N	-0.531966	-1.161018	0.745312
H	0.01869	-1.950903	0.413398
H	-0.237779	-1.028535	1.708994
C	-0.453705	1.224176	0.653643
N	-0.799512	2.213526	1.187885
H	2.80823	0.0	0.0
