18

C	-0.501866	-0.037764	-1.451384
C	0.0	0.0	0.0
Cl	-0.051503	1.537967	-2.225919
H	1.094743	0.0	0.0
C	0.234829	-1.141773	-2.18977
H	-0.026309	-1.130874	-3.251779
H	1.311448	-1.001436	-2.062929
H	-0.047344	-2.102126	-1.752923
C	-2.010794	-0.174227	-1.546342
H	-2.327616	-0.203217	-2.592708
H	-2.509071	0.666163	-1.056463
H	-2.309183	-1.105965	-1.057866
N	-0.345818	-1.263221	0.672699
H	-1.079364	-1.127678	1.356494
H	0.497082	-1.562926	1.157227
C	-0.511412	1.153378	0.732496
N	-0.95515	2.034749	1.373804
H	2.74815	0.0	0.0
