18

C	-0.510955	-0.052459	-1.448224
C	0.0	0.0	0.0
Cl	-0.132729	1.539011	-2.225709
H	1.09475	0.0	0.0
C	0.260842	-1.126864	-2.193893
H	-0.016316	-1.132802	-3.251904
H	0.026319	-2.095586	-1.748667
H	1.331732	-0.941995	-2.082254
C	-2.013749	-0.249738	-1.52735
H	-2.26656	-1.194712	-1.040286
H	-2.340838	-0.28653	-2.570266
H	-2.540402	0.566497	-1.026844
N	-0.333501	-1.263743	0.680033
H	-1.066106	-1.131077	1.365447
H	0.513286	-1.553974	1.164513
C	-0.517205	1.151911	0.731183
N	-0.968818	2.028034	1.374409
H	2.75076	0.0	0.0
