18

C	-0.514261	-0.02127	-1.446434
C	0.0	0.0	0.0
Cl	0.075506	1.490438	-2.252028
H	1.098042	0.0	0.0
C	0.105362	-1.205982	-2.168263
H	-0.156351	-1.184356	-3.229824
H	-0.273134	-2.124985	-1.715782
H	1.19121	-1.171553	-2.048907
C	-2.030691	-0.013252	-1.531652
H	-2.436975	0.894744	-1.078992
H	-2.355702	-0.05576	-2.575364
H	-2.419901	-0.886197	-0.999349
N	-0.361893	-1.252475	0.682222
H	-1.008694	-1.086623	1.438122
H	0.502907	-1.610042	1.08118
C	-0.483886	1.16591	0.730986
N	-0.907654	2.061533	1.366502
H	2.736253	0.0	0.0
