13

C	0.0	0.0	0.0
C	-0.427448	-0.206736	-1.48157
Cl	1.781706	0.0	0.0
H	0.48676	-0.19373	-2.082698
H	-0.362986	-0.78245	0.656626
H	-0.344962	0.972242	0.341297
N	-1.357439	0.683869	-2.085506
H	-0.946237	1.607675	-2.121378
H	-2.213084	0.698473	-1.520798
N	-0.883261	-1.654038	-1.674345
O	-0.385056	-2.485542	-0.916541
O	-1.608732	-1.910939	-2.62201
Cl	-3.524424	0.0	0.0
