13

C	0.0	0.0	0.0
C	-0.440068	0.164606	-1.464004
Cl	1.772601	0.0	0.0
H	0.443665	0.1884	-2.107394
H	-0.352557	0.848969	0.576245
H	-0.357083	-0.930367	0.424807
N	-1.207416	1.32996	-1.695635
H	-2.087469	1.216582	-1.182563
H	-1.423009	1.397678	-2.681722
N	-1.093972	-1.146324	-1.984707
O	-1.723283	-1.040048	-3.032338
O	-0.822819	-2.20563	-1.430001
Cl	-3.422764	0.0	0.0
