13

C	0.0	0.0	0.0
C	-0.481754	-0.129345	-1.446972
Cl	1.776004	0.0	0.0
H	0.35898	0.010625	-2.132001
H	-0.339933	0.954618	0.39087
H	-0.350652	-0.81911	0.618777
N	-1.513586	0.77254	-1.778069
H	-1.792505	0.632103	-2.740649
H	-2.341087	0.61511	-1.184926
N	-0.823883	-1.623525	-1.742168
O	-0.407441	-2.499997	-0.989655
O	-1.425755	-1.823192	-2.793128
Cl	-3.987758	0.0	0.0
