13

C	0.0	0.0	0.0
C	-0.411158	0.0366	-1.475349
Cl	1.775842	0.0	0.0
H	0.198085	0.7818	-1.988762
H	-0.37163	-0.894517	0.494184
H	-0.356079	0.897274	0.502839
N	-1.774648	0.200248	-1.820848
H	-2.457295	-0.184436	-1.160717
H	-2.000729	1.178002	-1.929768
N	0.054346	-1.275893	-2.093454
O	-0.31299	-2.308431	-1.539466
O	0.718929	-1.219337	-3.125399
Cl	-4.316589	0.0	0.0
