13

C	0.0	0.0	0.0
C	-0.555415	-0.471926	-1.354196
Cl	1.778357	0.0	0.0
H	-0.428508	0.306294	-2.107355
H	-0.36098	1.005755	0.209584
H	-0.330698	-0.680932	0.78208
N	-1.885988	-0.969549	-1.359163
H	-2.617518	-0.270023	-1.202303
H	-2.01635	-1.65233	-0.617805
N	0.312271	-1.616066	-1.834645
O	0.292956	-2.63111	-1.144305
O	0.961031	-1.466679	-2.867406
Cl	-4.546157	0.0	0.0
