16

C	-0.498186	-0.020447	-1.45718
C	0.0	0.0	0.0
Cl	0.238293	-1.454294	-2.257151
H	1.092123	0.0	0.0
C	-1.955202	-0.179419	-1.542885
N	-3.111832	-0.377882	-1.605725
C	-0.079775	1.1638	-2.213214
N	0.244316	2.114314	-2.823131
C	-0.501757	-1.1661	0.833533
H	-0.169793	-2.105159	0.392163
H	-1.592327	-1.166198	0.921123
H	-0.053864	-1.083528	1.823271
N	-0.462796	1.262222	0.655428
O	-1.293104	1.960928	0.061368
O	-0.002891	1.496973	1.767444
Cl	3.237837	0.0	0.0
