16

C	-0.452871	0.034138	-1.464051
C	0.0	0.0	0.0
Cl	-2.261657	0.054296	-1.597929
H	1.092659	0.0	0.0
C	0.065521	1.164413	-2.243432
N	0.421512	2.038676	-2.942738
C	-0.009369	-1.202463	-2.118563
N	0.247314	-2.224058	-2.639586
C	-0.466412	-1.226444	0.759716
H	-6.4e-05	-1.212434	1.742533
H	-1.552184	-1.253635	0.874179
H	-0.127558	-2.124814	0.242286
N	-0.426556	1.243327	0.710457
O	-0.386887	1.214421	1.937336
O	-0.755635	2.221242	0.040866
Cl	3.161702	0.0	0.0
