16

C	-0.479897	-0.061392	-1.457597
C	0.0	0.0	0.0
Cl	0.170732	1.301124	-2.415261
H	1.091416	0.0	0.0
C	0.027439	-1.303255	-2.058155
N	0.41195	-2.291761	-2.563534
C	-1.945278	-0.098029	-1.583575
N	-3.105388	-0.224003	-1.724067
C	-0.483557	-1.182926	0.824997
H	-1.575083	-1.229001	0.881871
H	-0.066907	-1.081527	1.827462
H	-0.09787	-2.109813	0.39885
N	-0.480246	1.248587	0.663728
O	0.026486	1.505133	1.749266
O	-1.369356	1.909399	0.119773
Cl	3.211944	0.0	0.0
