16

C	-0.476392	-0.059986	-1.458421
C	0.0	0.0	0.0
Cl	0.150812	1.330104	-2.395681
H	1.091542	0.0	0.0
C	0.062062	-1.28481	-2.066661
N	0.471573	-2.262081	-2.57415
C	-1.939019	-0.126093	-1.599572
N	-3.096755	-0.264027	-1.748957
C	-0.488139	-1.184665	0.821786
H	-1.580296	-1.225461	0.875722
H	-0.073463	-1.086949	1.825268
H	-0.105151	-2.112208	0.393835
N	-0.487097	1.243039	0.666158
O	0.053538	1.524558	1.730178
O	-1.42292	1.864806	0.154798
Cl	3.202166	0.0	0.0
