16

C	-0.492298	-0.010154	-1.459189
C	0.0	0.0	0.0
Cl	0.19577	-1.473094	-2.25078
H	1.091017	0.0	0.0
C	-1.954675	-0.122123	-1.537214
N	-3.117052	-0.287028	-1.593045
C	-0.044254	1.147623	-2.237409
N	0.266604	2.057203	-2.91234
C	-0.494876	-1.175473	0.824965
H	-0.058743	-1.09173	1.818818
H	-0.147338	-2.108839	0.383134
H	-1.58633	-1.188361	0.906797
N	-0.470004	1.259008	0.658551
O	-0.140495	1.423373	1.828779
O	-1.16081	2.042046	-0.001891
Cl	3.207909	0.0	0.0
