18

C	-0.457611	0.005704	-1.459348
C	0.0	0.0	0.0
Cl	-2.286006	-0.009672	-1.530478
H	1.093832	0.0	0.0
C	0.029213	1.235426	-2.206384
H	-0.246279	1.146253	-3.260053
H	1.115476	1.298609	-2.103862
H	-0.414235	2.147491	-1.808884
C	0.042174	-1.268029	-2.123501
H	-0.351282	-2.153305	-1.6211
H	1.134281	-1.281785	-2.06859
H	-0.280191	-1.289421	-3.167305
C	-0.499929	-1.147695	0.736416
N	-0.841071	-2.118136	1.307713
N	-0.40984	1.253183	0.711209
O	-1.498296	1.280657	1.275519
O	0.284553	2.250924	0.495014
Br	3.239204	0.0	0.0
