18

C	-0.498782	-0.019331	-1.463504
C	0.0	0.0	0.0
Cl	0.137784	1.458385	-2.265325
H	1.092062	0.0	0.0
C	0.128365	-1.228268	-2.147439
H	-0.099537	-1.199513	-3.215556
H	-0.281933	-2.151825	-1.728177
H	1.211901	-1.217046	-2.005718
C	-2.013714	-0.001068	-1.594788
H	-2.27962	-0.051636	-2.653123
H	-2.439706	0.909101	-1.173039
H	-2.449216	-0.859838	-1.07712
C	-0.501841	-1.16835	0.712495
N	-0.889958	-2.134546	1.256314
N	-0.487079	1.227565	0.721868
O	-1.636344	1.196343	1.169843
O	0.28035	2.179594	0.787669
Br	3.423041	0.0	0.0
