18

C	-0.470606	-0.000442	-1.456854
C	0.0	0.0	0.0
Cl	-2.275446	-0.021321	-1.521534
H	1.093848	0.0	0.0
C	0.006811	1.235197	-2.209077
H	1.094302	1.312611	-2.13819
H	-0.2799	1.152314	-3.260401
H	-0.430848	2.148198	-1.805659
C	0.02928	-1.272718	-2.132755
H	1.121937	-1.292432	-2.110934
H	-0.351315	-2.162506	-1.628399
H	-0.305631	-1.296095	-3.17256
C	-0.495764	-1.132887	0.751029
N	-0.839254	-2.093832	1.340825
N	-0.399072	1.274576	0.684707
O	-1.439125	1.294365	1.34395
O	0.394836	2.208292	0.569455
Br	2.750939	0.0	0.0
