18

C	-0.418868	0.000437	-1.478529
C	0.0	0.0	0.0
Cl	-2.225354	-0.003706	-1.59519
H	1.093772	0.0	0.0
C	0.113094	1.22095	-2.210895
H	-0.102228	1.114499	-3.276759
H	-0.346563	2.14071	-1.85284
H	1.193185	1.281134	-2.0512
C	0.111765	-1.279712	-2.107196
H	-0.317999	-2.16342	-1.632826
H	-0.143357	-1.295522	-3.169224
H	1.199474	-1.299522	-1.987464
C	-0.491484	-1.168122	0.718231
N	-0.840578	-2.138553	1.280324
N	-0.4572	1.239664	0.713018
O	-1.434927	1.157474	1.456161
O	0.180452	2.263273	0.48234
Br	3.362031	0.0	0.0
