18

C	-0.493817	0.002961	-1.468981
C	0.0	0.0	0.0
Cl	-0.081174	-1.629998	-2.110936
H	1.091282	0.0	0.0
C	-2.00036	0.173264	-1.568465
H	-2.295744	1.159936	-1.202444
H	-2.309621	0.085187	-2.612259
H	-2.521437	-0.586934	-0.983773
C	0.276304	1.021016	-2.296005
H	0.040222	0.877342	-3.353371
H	1.348979	0.895333	-2.135193
H	-0.002618	2.034979	-2.007082
C	-0.535314	-1.114247	0.770703
N	-0.966802	-2.024128	1.375358
N	-0.444913	1.284254	0.65474
O	0.198528	2.291093	0.377485
O	-1.437303	1.252027	1.384635
Br	3.396353	0.0	0.0
