16

C	0.0	0.0	0.0
C	-0.503793	0.10554	-1.416366
F	1.357491	0.0	0.0
H	-0.00585	0.954488	-1.888591
H	-1.579936	0.305462	-1.327596
N	-0.240166	1.396511	0.72339
O	-0.342965	1.365342	1.948902
O	-0.210059	2.420844	0.048203
N	-0.590346	-1.032783	0.707527
H	-1.626063	-0.864683	0.561005
H	-0.387739	-0.925968	1.695569
C	-0.255151	-1.185061	-2.186354
H	0.804087	-1.45973	-2.17851
H	-0.57078	-1.066533	-3.227902
H	-0.824845	-2.003558	-1.744442
H	-3.057111	0.0	0.0
