16

C	0.0	0.0	0.0
C	-0.51207	0.125134	-1.411301
F	1.357267	0.0	0.0
H	-1.581299	0.358327	-1.313145
H	0.010942	0.957877	-1.884684
N	-0.230331	1.386471	0.743359
O	-0.267619	2.417739	0.079821
O	-0.243891	1.341963	1.972618
N	-0.586006	-1.042037	0.697909
H	-0.38015	-0.945943	1.68689
H	-1.622074	-0.884881	0.556998
C	-0.319456	-1.173022	-2.186533
H	0.717174	-1.519358	-2.141944
H	-0.960363	-1.953961	-1.777136
H	-0.584982	-1.024371	-3.237387
H	-3.075503	0.0	0.0
