16

C	0.0	0.0	0.0
C	-0.237893	0.489563	-1.455596
F	1.382478	0.0	0.0
H	0.074296	-0.356921	-2.078121
H	0.524723	1.26401	-1.56838
N	-0.563672	0.99502	0.941281
O	-1.741875	0.600562	1.360528
O	-0.229027	2.19922	0.761419
N	-0.465785	-1.317443	0.237646
H	-0.385124	-1.48359	1.238949
H	-1.477014	-1.258237	0.061159
C	-1.551423	1.087724	-1.953793
H	-1.395108	1.437211	-2.985487
H	-2.382924	0.384623	-1.924777
H	-1.831547	1.937659	-1.333543
H	-2.915943	0.0	0.0
