16

C	0.0	0.0	0.0
C	-0.474803	-0.013602	-1.44546
F	1.371327	0.0	0.0
H	-1.558943	0.160508	-1.375513
H	-0.357893	-1.062033	-1.749152
N	-0.319979	1.351447	0.681854
O	-0.348816	2.345778	-0.040002
O	-0.414482	1.369941	1.901679
N	-0.560991	-1.000415	0.818545
H	-1.590818	-0.77625	0.773531
H	-0.453222	-1.880236	0.323348
C	0.238832	0.873493	-2.461745
H	-0.027426	0.552158	-3.474017
H	1.325042	0.799897	-2.36269
H	-0.0455	1.916966	-2.347082
H	-3.051942	0.0	0.0
