16

C	0.0	0.0	0.0
C	-0.486223	0.106973	-1.427537
F	1.404233	0.0	0.0
H	-1.52874	0.441419	-1.359135
H	-0.529711	-0.927331	-1.780262
N	-0.221379	1.35667	0.772297
O	-0.123639	1.290246	1.996826
O	-0.404431	2.393802	0.144199
N	-0.586006	-1.054451	0.676164
H	-1.623304	-0.893279	0.51004
H	-0.406282	-0.952923	1.670437
C	0.379895	0.935918	-2.368772
H	0.428374	1.97663	-2.053487
H	-0.047512	0.904723	-3.375514
H	1.397073	0.542017	-2.424267
H	-3.039003	0.0	0.0
