14

C	0.0	0.0	0.0
C	-0.453001	-0.004012	-1.461006
F	1.379067	0.0	0.0
H	-1.547395	-0.106036	-1.442613
H	-0.378178	0.889729	0.505719
C	-0.401902	-1.21382	0.732889
N	-0.528181	-2.225028	1.315805
C	0.14534	-1.142933	-2.158698
N	0.64668	-2.019574	-2.758396
C	-0.042797	1.305781	-2.139473
H	-0.562019	2.137604	-1.658121
H	1.036235	1.458831	-2.065793
H	-0.320693	1.29277	-3.194593
Br	-3.486358	0.0	0.0
