14

C	0.0	0.0	0.0
C	-0.511641	-0.206098	-1.424989
F	1.379037	0.0	0.0
H	-1.588861	-0.411953	-1.324924
H	-0.368759	0.950763	0.389378
C	-0.400386	-1.097858	0.900637
N	-0.552331	-2.018519	1.612765
C	0.164345	-1.347804	-2.037793
N	0.720574	-2.238991	-2.563059
C	-0.320082	1.063377	-2.256213
H	0.724545	1.386175	-2.247036
H	-0.625032	0.892414	-3.290574
H	-0.956177	1.848027	-1.839802
Br	-3.547826	0.0	0.0
