14

C	0.0	0.0	0.0
C	-0.369477	-0.211781	-1.501176
F	1.381766	0.0	0.0
H	0.610612	-0.125673	-1.988354
H	-0.371018	0.94948	0.381781
C	-0.401832	-1.104053	0.88299
N	-0.47271	-2.027303	1.605105
C	-1.13404	0.8957	-2.083086
N	-1.550177	1.789843	-2.721786
C	-0.934896	-1.586322	-1.859942
H	-1.025964	-1.668148	-2.945128
H	-0.252346	-2.364725	-1.506497
H	-1.913278	-1.71116	-1.403148
Br	-3.313692	0.0	0.0
