14

C	0.0	0.0	0.0
C	-0.501264	0.265624	-1.420603
F	1.378008	0.0	0.0
H	-0.05564	-0.503185	-2.063041
H	-0.349792	0.77797	0.68406
C	-0.438878	-1.320742	0.479591
N	-0.702879	-2.398356	0.862268
C	0.035154	1.559396	-1.858088
N	0.443257	2.592826	-2.236995
C	-2.028729	0.219253	-1.510455
H	-2.351581	0.462392	-2.523978
H	-2.519217	0.914178	-0.827365
H	-2.413795	-0.771083	-1.260462
Br	-5.140933	0.0	0.0
