14

C	0.0	0.0	0.0
C	-0.478529	0.31746	-1.419165
F	1.3781	0.0	0.0
H	0.054543	-0.380236	-2.077032
H	-0.356474	0.746929	0.714432
C	-0.437229	-1.341756	0.41713
N	-0.700593	-2.436849	0.746927
C	-0.019441	1.666001	-1.768725
N	0.32569	2.737539	-2.101882
C	-1.990708	0.158651	-1.589992
H	-2.576355	0.711459	-0.855746
H	-2.288418	0.491297	-2.585513
H	-2.280559	-0.886344	-1.477241
Br	-5.082982	0.0	0.0
