14

C	0.0	0.0	0.0
C	-0.509636	-0.05189	-1.439904
F	1.37889	0.0	0.0
H	-1.582468	-0.286396	-1.366223
H	-0.37078	0.902057	0.489772
C	-0.396524	-1.189242	0.777851
N	-0.539911	-2.172701	1.402416
C	0.184281	-1.106088	-2.177896
N	0.751009	-1.923911	-2.802292
C	-0.345231	1.306525	-2.121643
H	-1.005462	2.021615	-1.625808
H	-0.637639	1.245265	-3.171402
H	0.689457	1.654021	-2.065647
Br	-3.543768	0.0	0.0
