14

C	0.0	0.0	0.0
C	-0.364315	-0.155653	-1.51376
F	1.381791	0.0	0.0
H	0.621693	-0.083719	-1.98824
H	-0.377748	0.928548	0.423546
C	-0.403233	-1.148028	0.826268
N	-0.491689	-2.109328	1.496029
C	-1.100694	0.985389	-2.067223
N	-1.501903	1.91066	-2.67189
C	-0.955783	-1.504012	-1.92806
H	-1.928759	-1.637524	-1.46093
H	-1.066188	-1.530391	-3.016917
H	-0.280219	-2.30974	-1.627354
Br	-3.318509	0.0	0.0
