16

C	0.0	0.0	0.0
C	-0.450454	0.410272	-1.400609
Cl	1.776467	0.0	0.0
H	0.10558	1.316308	-1.665432
H	-1.517236	0.652907	-1.30762
C	-0.486569	1.003517	1.023634
H	-1.586422	0.943586	1.026064
H	-0.173948	2.015622	0.757267
H	-0.103124	0.725631	2.005456
N	-0.628623	-1.291544	0.372045
O	-0.378041	-1.736238	1.521793
O	-1.801671	-1.398852	-0.22154
N	-0.173081	-0.627013	-2.395058
H	-0.837842	-1.362499	-2.185198
H	-0.40659	-0.261712	-3.309388
H	-2.948541	0.0	0.0
