16

C	0.0	0.0	0.0
C	-0.445627	0.034471	-1.48725
Cl	1.783599	0.0	0.0
H	-0.303575	1.080951	-1.789609
H	0.278935	-0.55979	-2.049124
C	-0.60819	1.070335	0.856853
H	-0.350385	2.044311	0.435391
H	-0.25633	1.009743	1.886078
H	-1.699856	0.927533	0.821851
N	-0.327616	-1.378249	0.583104
O	-0.211807	-2.339	-0.172663
O	-0.621936	-1.445151	1.771161
N	-1.772095	-0.406525	-1.814559
H	-1.80238	-1.416245	-1.737719
H	-2.515328	-0.073507	-1.154499
H	-3.676032	0.0	0.0
