16

C	0.0	0.0	0.0
C	-0.563412	-0.060112	-1.421766
Cl	1.776747	0.0	0.0
H	-1.650241	-0.188208	-1.259789
H	-0.414575	0.943193	-1.833611
C	-0.564478	1.183619	0.73599
H	-1.662377	1.040078	0.712606
H	-0.192314	1.231235	1.758211
H	-0.29349	2.095342	0.199486
N	-0.354837	-1.270142	0.7844
O	-0.35404	-1.192325	2.007138
O	-0.54729	-2.303494	0.150086
N	-0.043633	-1.030901	-2.367542
H	0.967673	-0.976469	-2.390372
H	-0.287735	-1.951418	-2.032067
H	-3.281228	0.0	0.0
