16

C	0.0	0.0	0.0
C	-0.381927	0.138946	-1.480336
Cl	1.776954	0.0	0.0
H	-0.071092	-0.795602	-1.962793
H	0.29845	0.917488	-1.854941
C	-0.57491	1.077949	0.878211
H	-1.662205	0.933683	0.911812
H	-0.157051	1.030069	1.882972
H	-0.356365	2.046725	0.424686
N	-0.387397	-1.373354	0.556235
O	-0.433977	-2.315484	-0.226509
O	-0.559229	-1.451286	1.767665
N	-1.756391	0.52742	-1.722988
H	-2.44785	0.279684	-0.959742
H	-2.09751	0.022957	-2.532484
H	-3.625571	0.0	0.0
