15

C	-0.563811	-0.000311	-1.412505
C	0.0	0.0	0.0
Br	0.162205	-1.544889	-2.371008
H	1.092014	0.0	0.0
H	-1.64116	-0.177117	-1.389302
C	-0.216183	1.273339	-2.1633
H	-0.680287	2.130803	-1.668027
H	0.864665	1.423422	-2.189263
H	-0.588968	1.223291	-3.18844
N	-0.434571	-1.25498	0.7257
O	-1.637217	-1.516185	0.729039
O	0.450108	-1.93408	1.231191
C	-0.516714	1.126981	0.749741
N	-0.938958	2.062329	1.3299
Cl	2.687541	0.0	0.0
