15

C	-0.523544	-0.000272	-1.429968
C	0.0	0.0	0.0
Br	0.179342	1.573459	-2.349341
H	1.092246	0.0	0.0
H	-0.075192	-0.854627	-1.941018
C	-2.037291	-0.012489	-1.535085
H	-2.430303	-0.911711	-1.050496
H	-2.359576	-0.013074	-2.578314
H	-2.463606	0.860117	-1.036273
N	-0.428897	-1.316921	0.587263
O	0.17462	-2.29647	0.154065
O	-1.262699	-1.3321	1.497104
C	-0.518478	1.092665	0.79589
N	-0.926678	2.006708	1.415979
Cl	2.679691	0.0	0.0
