15

C	-0.498159	0.096332	-1.444962
C	0.0	0.0	0.0
Br	-0.08579	-1.569523	-2.37991
H	1.092094	0.0	0.0
H	-1.586757	0.165134	-1.460454
C	0.182265	1.259718	-2.144206
H	-0.109109	1.296414	-3.19507
H	1.266157	1.149793	-2.065127
H	-0.112007	2.200012	-1.667871
N	-0.561277	-1.227989	0.662877
O	-1.789896	-1.316485	0.673003
O	0.223445	-2.043204	1.12736
C	-0.497382	1.155057	0.743484
N	-0.899399	2.105938	1.304369
Cl	3.252863	0.0	0.0
