15

C	-0.506206	-0.000586	-1.445555
C	0.0	0.0	0.0
Br	0.079929	1.646449	-2.307012
H	1.092191	0.0	0.0
H	0.019752	-0.802136	-1.963674
C	-2.013204	-0.129928	-1.561367
H	-2.316168	-0.12294	-2.609751
H	-2.345237	-1.071534	-1.114343
H	-2.51084	0.697408	-1.051292
N	-0.418973	-1.316878	0.602698
O	-0.02356	-2.315951	0.007941
O	-1.125922	-1.316774	1.609161
C	-0.544544	1.095713	0.787234
N	-0.967389	2.006115	1.397363
Cl	3.196596	0.0	0.0
