16

C	-0.416521	-0.026216	-1.462301
C	0.0	0.0	0.0
Br	-0.182125	1.937921	-2.19269
H	1.101352	0.0	0.0
H	-0.318136	-0.9728	0.396917
N	0.433322	-0.90656	-2.138001
H	1.410536	-0.750622	-1.897054
H	0.30014	-0.902047	-3.139848
C	-1.8838	-0.307627	-1.697929
H	-2.486541	0.395226	-1.1249
H	-2.08767	-1.327677	-1.355902
H	-2.142794	-0.229695	-2.756472
N	-0.65519	1.045537	0.781956
H	-0.220935	1.927323	0.531784
H	-0.415981	0.880982	1.753676
Cl	3.535132	0.0	0.0
