16

C	-0.535736	0.042508	-1.430387
C	0.0	0.0	0.0
Br	-0.062305	-1.684579	-2.290571
H	1.096081	0.0	0.0
H	-0.376006	-0.905469	0.480895
N	-1.975829	0.126874	-1.388934
H	-2.332777	0.408798	-2.2942
H	-2.177106	0.853267	-0.704836
C	0.153332	1.135724	-2.234956
H	-0.182492	1.122279	-3.276034
H	-0.119627	2.100963	-1.794612
H	1.238352	1.018425	-2.197335
N	-0.514468	1.191646	0.716858
H	0.236613	1.872857	0.751541
H	-0.697785	0.932933	1.678127
Cl	3.571826	0.0	0.0
