16

C	-0.302791	-0.001225	-1.489764
C	0.0	0.0	0.0
Br	-2.295266	0.175863	-1.719418
H	1.097783	0.0	0.0
H	-0.336086	0.960542	0.42086
N	0.293135	1.129488	-2.164438
H	0.097035	1.970441	-1.628838
H	1.303674	0.986744	-2.111237
C	0.143014	-1.286084	-2.150795
H	-0.073481	-1.251866	-3.218845
H	1.223024	-1.373966	-1.993782
H	-0.341914	-2.140169	-1.685728
N	-0.502384	-1.170974	0.701061
H	0.105563	-1.363467	1.48828
H	-1.436907	-0.99473	1.049995
Cl	3.498981	0.0	0.0
