16

C	-0.319368	0.052178	-1.483477
C	0.0	0.0	0.0
Br	-2.321034	0.261544	-1.708957
H	1.098602	0.0	0.0
H	-0.336242	0.940274	0.453212
N	0.294923	1.240908	-2.011218
H	1.254265	1.267146	-1.663866
H	0.326024	1.197841	-3.023294
C	0.05669	-1.234746	-2.192208
H	1.134811	-1.369307	-2.053637
H	-0.166753	-1.165004	-3.26007
H	-0.463798	-2.08622	-1.758747
N	-0.494858	-1.203269	0.652857
H	0.171193	-1.47951	1.362661
H	-1.383088	-1.018318	1.099613
Cl	3.462496	0.0	0.0
