15

C	0.0	0.0	0.0
C	-0.474419	-0.056016	-1.454916
Cl	1.747523	0.0	0.0
H	0.371557	0.189912	-2.102974
H	-0.361703	0.916749	0.43973
N	-0.443027	-1.101623	0.915052
O	-0.517824	-2.237912	0.467216
O	-0.545943	-0.783498	2.092741
N	-1.457266	1.026537	-1.776992
O	-1.182091	2.121753	-1.298548
O	-2.259669	0.821056	-2.67453
N	-0.858798	-1.423009	-1.978632
O	-2.007601	-1.818741	-1.979798
O	0.122053	-2.036897	-2.40882
F	-2.289001	0.0	0.0
