18
Coordinates from ORCA-job run
  C   -0.85013408538904     -0.34846402389255      0.07728088170544
  C   0.58155673308995     -0.44765776697649     -0.50075032585142
  Br  -2.02529505826418     -1.49454280659371     -0.96975063971347
  H   0.80808330837097     -1.51769651435245     -0.54226137520108
  C   -1.42416182692738      1.04534133855541      0.11539211832191
  H   -1.44917980176278      1.42173144722002     -0.90608499168440
  H   -2.43199835311214      1.03337122132845      0.52869789743306
  H   -0.80907841157032      1.69861472473088      0.73478527473329
  N   -0.78355364096188     -0.95094591816469      1.47366369126172
  O   -0.39521113071740     -2.11074679104922      1.56215393774192
  O   -1.03428613663028     -0.20798891044306      2.42011914631009
  C   1.60187481387357      0.22809779718160      0.41088220468629
  H   2.59728845881677      0.09007511084415     -0.01757910003058
  H   1.61357425822961     -0.19827075984130      1.41490634525027
  H   1.41246897352401      1.30129229337506      0.49288260113484
  N   0.57613866679123      0.14417408667481     -1.83160457726771
  H   1.28129557671604      0.86280691378469     -1.91566145038864
  H   0.73161765592326     -0.55019144238161     -2.54707163844152
