18
Coordinates from ORCA-job run
  C   -0.63376763442257     -0.14104005059144      0.46000698640947
  C   0.68955374745253      0.27105273482811     -0.19710001651795
  Br  -0.42022249726250     -1.79640079818821      1.45566915219414
  H   0.45688726301338      1.22500463931837     -0.68203639592683
  C   -1.80128019652390     -0.28189485345555     -0.49945066992199
  H   -2.72913478475124     -0.42920573313140      0.05635170111440
  H   -1.88729152058633      0.62426557438806     -1.10182701080751
  H   -1.65371320895447     -1.14301436139222     -1.14976937274443
  N   -0.98100974353931      0.99136075029690      1.43375520231940
  O   -1.15347975603717      2.07074145450175      0.87295725304681
  O   -1.07845341078446      0.77933116905840      2.62977053010665
  C   1.16955928516705     -0.71422731223856     -1.25933415907020
  H   2.08447280798612     -0.32265243565788     -1.71109350074309
  H   1.39820525040766     -1.68614287337415     -0.81739116710832
  H   0.44021043147395     -0.85751654794173     -2.05995748736790
  N   1.64820351031412      0.56468555353678      0.85813573077698
  H   2.39934863053419      1.13738833764433      0.49465800038853
  H   2.05191182651294     -0.29273524760155      1.21765522385184
