18
Coordinates from ORCA-job run
  C   -0.79193375418404     -0.36778217917747      0.13504429102351
  C   0.54756139277182     -0.20196291909294     -0.62204984259260
  Br  -1.31896998029390     -2.23874429344766      0.09288166064169
  H   0.40620459607735     -0.76480972155799     -1.55021474862545
  C   -1.92475817685648      0.47618355634875     -0.41284424411918
  H   -2.84083756275727      0.28785446273234      0.15019900999498
  H   -1.65471682923002      1.52772626575429     -0.36266419278199
  H   -2.08879216745003      0.21018000678076     -1.45773582929711
  N   -0.53777571096284      0.04717116594940      1.58355212065339
  O   -0.28210869405481      1.24558761104229      1.70954053552404
  O   -0.54188018403814     -0.77559660311519      2.48633280910527
  C   1.72473066350349     -0.80293145808688      0.14796862373238
  H   1.94294807269925     -0.20784956682007      1.03930083472670
  H   2.61399778860133     -0.78574804071736     -0.48659061529539
  H   1.54304329257979     -1.83472782073312      0.45391013331446
  N   0.72861454929029      1.19334321938002     -1.00988636978488
  H   1.00060811422975      1.74343694701835     -0.20315365651235
  H   1.47506459007446      1.24866936774248     -1.69259051970747
