18
Coordinates from ORCA-job run
  C   -0.80091437616434     -0.31312043256782      0.05065666094557
  C   0.63504558819059     -0.50959592170779     -0.50566894116999
  Br  -2.05612559690566     -1.34899013095941     -1.03263122928466
  H   0.79231025926664     -1.59101813549016     -0.54175872451650
  C   -1.28212074608684      1.11640158340205      0.11764330945647
  H   -0.61933394877724      1.71622374242930      0.74176436896823
  H   -2.28413820710104      1.16477988959880      0.54134415136340
  H   -1.31239791323650      1.53102064924887     -0.89006658890002
  N   -0.81385288160751     -0.94621604395025      1.43387553570682
  O   -0.49377451481787     -2.12745503362588      1.50344797794092
  O   -1.06976011903461     -0.21446592059196      2.38749877958172
  C   1.67343167104957      0.10088906175104      0.43055613974629
  H   2.66108676784225     -0.12593455097601      0.02767810721504
  H   1.57587630602095      1.18841399046349      0.48467135294029
  H   1.61435697969420     -0.30281527684870      1.44219117729587
  N   0.83923839501891      0.01308645652503     -1.83966705972481
  H   0.17427627145639     -0.37593782681293     -2.49623027960479
  H   0.76579606519210      1.02273390011233     -1.85530473795986
