16

C	0.0	0.0	0.0
C	-0.421424	0.03076	-1.487001
Cl	1.840559	0.0	0.0
H	0.428362	-0.353417	-2.060232
H	-0.219213	-1.00818	0.363274
N	-0.567632	1.055935	0.777794
H	-0.414165	0.847493	1.759657
H	-1.587447	0.951237	0.6279
C	-0.697973	1.456595	-1.96978
H	0.14756	2.122086	-1.768679
H	-0.875942	1.433842	-3.052267
H	-1.589784	1.855625	-1.486363
N	-1.516954	-0.919434	-1.669876
H	-1.84589	-0.831043	-2.628127
H	-2.311672	-0.619893	-1.063636
H	-3.389079	0.0	0.0
