16

C	0.0	0.0	0.0
C	-0.480563	0.054034	-1.466485
Cl	1.846722	0.0	0.0
H	0.234455	-0.549981	-2.039351
H	-0.251156	-0.975194	0.416191
N	-0.549944	1.004827	0.805244
H	-0.250424	1.933928	0.555113
H	-0.457459	0.839944	1.795078
C	-0.448295	1.481056	-1.99989
H	-0.657257	1.459323	-3.070246
H	0.521353	1.963435	-1.836125
H	-1.2397	2.06305	-1.521653
N	-1.800287	-0.499881	-1.668864
H	-1.792246	-1.494564	-1.465697
H	-2.538471	-0.11511	-1.035501
H	-4.015308	0.0	0.0
