18

C	0.0	0.0	0.0
C	-0.508037	0.007378	-1.452016
Cl	1.764038	0.0	0.0
H	-1.575235	0.249822	-1.436982
N	-0.509468	1.280572	0.650256
O	0.255249	1.96431	1.355177
O	-1.778296	1.335596	0.679839
C	-0.513235	-1.199346	0.78165
H	-1.609637	-1.211799	0.750793
H	-0.206294	-1.094714	1.824205
H	-0.137496	-2.129916	0.362789
N	-0.28806	-1.246396	-2.069258
H	-0.765804	-1.291881	-2.958577
H	0.700924	-1.387817	-2.237026
N	0.169422	1.176911	-2.159388
O	0.723608	0.94401	-3.244255
O	-0.056983	2.294649	-1.68744
H	-1.548562	0.0	0.0
