19

C	0.0	0.0	0.0
C	-0.63297	0.230818	-1.387565
Br	1.928792	0.0	0.0
H	-1.707152	0.371381	-1.175049
C	-0.505011	0.976811	1.039936
H	-1.593559	0.901448	1.076842
H	-0.077838	0.733305	2.011466
H	-0.21551	1.988155	0.75998
N	-0.376995	-1.429894	0.461127
O	0.09029	-2.367105	-0.180631
O	-1.093911	-1.527204	1.448309
C	-0.430119	-0.819423	-2.458323
H	0.621123	-1.077157	-2.588008
H	-1.001242	-1.709758	-2.203346
H	-0.815127	-0.423167	-3.399789
N	-0.135202	1.556554	-1.896702
O	0.794082	1.547912	-2.704848
O	-0.686759	2.574206	-1.479005
Cl	-3.785749	0.0	0.0
