17

C	0.0	0.0	0.0
C	-0.661524	-0.001209	-1.371585
Cl	1.759063	0.0	0.0
H	-1.768761	-0.059218	-1.060208
C	-0.524087	1.156443	0.821603
H	-0.228614	2.09359	0.351124
H	-0.120597	1.111944	1.830791
H	-1.621649	1.054607	0.826785
N	-0.385067	-1.298232	0.742149
O	-0.668525	-2.289006	0.078151
O	-0.320046	-1.273274	1.964614
N	-0.194251	-1.043435	-2.295068
H	-0.509533	-0.790384	-3.224785
H	-0.670733	-1.897576	-2.033976
C	-0.435805	1.292607	-2.001329
N	-0.28014	2.309737	-2.570617
H	-3.126472	0.0	0.0
