17

C	0.0	0.0	0.0
C	-0.536782	-0.001771	-1.482547
Cl	1.778546	0.0	0.0
H	-0.549701	1.06587	-1.746714
C	-0.608368	1.108087	0.808806
H	-0.26479	1.075132	1.841587
H	-1.700667	0.97583	0.772643
H	-0.33248	2.0653	0.361447
N	-0.337491	-1.352826	0.630606
O	-0.198357	-2.338248	-0.087384
O	-0.671246	-1.369613	1.809261
N	-1.845819	-0.539776	-1.709959
H	-2.597868	-0.189805	-1.019723
H	-1.814459	-1.546605	-1.590913
C	0.409497	-0.639562	-2.417632
N	1.102353	-1.13143	-3.229249
H	-3.631634	0.0	0.0
