17

C	0.0	0.0	0.0
C	-0.699897	0.122763	-1.337584
Cl	1.774864	0.0	0.0
H	-1.81608	0.043192	-0.976188
C	-0.502264	1.069614	0.943997
H	-0.206806	2.050297	0.569194
H	-0.083172	0.916705	1.936801
H	-1.599921	0.978872	0.958304
N	-0.375342	-1.360747	0.626405
O	-0.850413	-2.22893	-0.094129
O	-0.144614	-1.491329	1.823176
N	-0.296866	-0.865538	-2.343056
H	-0.390308	-0.449028	-3.261766
H	-0.952702	-1.634537	-2.279406
C	-0.503334	1.462655	-1.861295
N	-0.380633	2.529442	-2.342529
H	-3.099031	0.0	0.0
