15

C	-0.335422	-0.039039	-1.488339
C	0.0	0.0	0.0
Cl	-0.004959	1.592416	-2.207679
H	1.092801	0.0	0.0
H	-0.303926	-0.964983	0.4302
C	0.655847	-1.004304	-2.135001
H	0.405826	-2.024027	-1.815126
H	0.602866	-0.953111	-3.223822
H	1.654708	-0.755909	-1.757189
N	-1.744621	-0.302737	-1.728858
H	-1.887914	-0.468679	-2.718608
H	-1.991591	-1.152278	-1.231168
C	-0.634867	1.065805	0.746274
N	-1.127326	1.920856	1.384816
F	2.626098	0.0	0.0
