15

C	-0.263761	0.125579	-1.492079
C	0.0	0.0	0.0
Cl	-2.053833	0.72311	-1.815119
H	1.094015	0.0	0.0
H	-0.394003	-0.936795	0.402604
C	0.668549	1.157806	-2.08786
H	0.602965	1.170451	-3.180045
H	0.423296	2.150673	-1.707514
H	1.667182	0.87157	-1.730525
N	-0.0817	-1.137381	-2.104587
H	-0.212232	-1.075622	-3.105935
H	-0.72067	-1.824116	-1.723937
C	-0.479787	1.123411	0.778962
N	-0.847912	2.043686	1.410767
F	2.614952	0.0	0.0
