13
Coordinates from ORCA-job run
  C   -0.50529023086479      0.15418734934616     -0.20096223234267
  C   0.71504147176817     -0.39899676457792      0.03113135577044
  N   -0.98130312571099      1.32877363385981      0.56024370261322
  O   -0.24931275030872      2.30812712176881      0.58467381467815
  O   -2.10690640372207      1.22295565765620      1.03993012509977
  N   -1.36810861083817     -0.19109863498325     -1.17779085274007
  H   -1.21637247704899     -1.06814879790090     -1.65504040722992
  H   -2.32895514329151      0.08877134209795     -1.04890304135712
  N   1.58670636894747      0.01924115124178      1.12422190127792
  O   2.78932621025218     -0.15015499985013      0.94534752061934
  O   1.05140520966102      0.46964860873415      2.13209644851012
  C   1.17139769071153     -1.45245339433273     -0.79864996049136
  N   1.44237179044486     -2.32985227305992     -1.53629837440782
