13
Coordinates from ORCA-job run
  C   -0.48364495007952      0.32576890042303      0.09311126478289
  C   0.71245048479294     -0.32343021670089      0.13224409927930
  N   -1.45377149339787      0.07127738069142     -0.99676385734924
  O   -2.51469694672248      0.68882878278250     -0.93178647164424
  O   -1.11659348969734     -0.70419369010117     -1.88439089226730
  N   -0.93314751676533      1.21182860045938      1.00678842647230
  H   -1.68695127206969      1.81761337827274      0.72339614032022
  H   -0.29058866029663      1.55082142123232      1.70604243807738
  N   1.11638003568849     -1.41666238539335     -0.76831557136990
  O   1.96811236070457     -1.12970103840351     -1.60187946128886
  O   0.61770750554917     -2.51499915644446     -0.56032117568090
  C   1.66267818400230      0.03368123966916      1.11680383251729
  N   2.40106575829138      0.38716678351284      1.96507122815106
