13
Coordinates from ORCA-job run
  C   -0.46818370413152      0.03432384260241      0.17220813019451
  C   0.90183369303676     -0.40198865204759     -0.20347658218631
  N   -0.71074497603351      1.52156190099067     -0.06785718179811
  O   0.27722370117818      2.21805756416946     -0.25932426669790
  O   -1.87412419435885      1.89674840983191      0.01849537596014
  N   -1.55837312241560     -0.68020999020587     -0.30258234617671
  H   -1.48549382851104     -1.66641324561928     -0.09441068045433
  H   -2.43684399778685     -0.28800931366988      0.01186060657282
  N   1.29303793182483     -0.44772279625571      1.07300563155936
  O   2.22315243894789     -0.66914076506733      1.77388793142727
  O   -0.09160895293677     -0.05997695469916      1.58835887705600
  C   1.65834977011198     -0.62873932713268     -1.36158221671404
  N   2.27077524107452     -0.82749067289695     -2.34858327874270
