13
Coordinates from ORCA-job run
  C   -0.53615651386749      0.22215784749328     -0.04435097505532
  C   0.77012463735599     -0.18340962489952      0.07323771838623
  N   -0.85694331871710      1.32508131363880     -0.99805238298233
  O   0.01740434878469      2.14765844066905     -1.23920184189690
  O   -2.00124272344012      1.31962718360501     -1.44652160974997
  N   -1.62202771513975     -0.19589746849430      0.60895829997215
  H   -2.51505195329684      0.06522169716565      0.21812150423157
  H   -1.53047496559485     -1.01617928290747      1.18957693662290
  N   1.11590863258974     -1.28502477806167      0.96786159674224
  O   2.28936526607392     -1.63609430114586      0.99219696079504
  O   0.21161153804253     -1.78804461772933      1.64404488690087
  C   1.86034759383624      0.32667249864560     -0.67748147171198
  N   2.79613517337304      0.69723109202073     -1.28838962225450
