13
Coordinates from ORCA-job run
  C   -0.54804296423851      0.18938494777196     -0.05877326900254
  C   0.77475218704534     -0.14971679161761      0.08908008768505
  N   -0.89207067392283      1.41683989928635     -0.83529647420227
  O   -2.02521068969109      1.44230702218257     -1.31117017004171
  O   -0.04797486700016      2.30059238266084     -0.91676332921953
  N   -1.63462545220983     -0.40122422197549      0.44030829302947
  H   -2.52480811744944     -0.12143988824932      0.05598235286300
  H   -1.51583037225891     -1.30570603692017      0.87281051576826
  N   1.14622445947109     -1.34169864851694      0.84796832695147
  O   0.23797465174750     -2.04417159232286      1.30606103955536
  O   2.34242703321123     -1.56336250067107      0.98633400344793
  C   1.87017985727642      0.53269282577049     -0.49862799791372
  N   2.81500494801918      1.04550260260126     -0.97891337892076
