13
Coordinates from ORCA-job run
  C   -0.49430059883949      0.29235238389199      0.13830371718697
  C   0.72056237268950     -0.32002009785407      0.09101349287709
  N   -1.42989552625154      0.21519413650598     -1.00669980685773
  O   -2.51962881290626      0.76268393601571     -0.85383302228776
  O   -1.03965845714313     -0.35993090393199     -2.01696980432404
  N   -0.99634706869869      0.97593531566016      1.18885251540667
  H   -1.76967851656373      1.59462677962499      1.00211218317621
  H   -0.37874503604854      1.20709354691588      1.95145096414995
  N   1.18527082858692     -1.20031471651509     -0.99511167465633
  O   0.74961761823121     -2.34450424011645     -0.99783724358790
  O   2.01678513338323     -0.71605138189280     -1.75404636665981
  C   1.62797184859435     -0.14745397641125      1.16152745526586
  N   2.32704621496616      0.03938921810695      2.09223759031083
