13
Coordinates from ORCA-job run
  C   -0.50181103216953      0.18162612334409     -0.18190070432530
  C   0.69610163836867     -0.43495108918661      0.00300108907538
  N   -0.88856580301624      1.37749103087363      0.59864172046384
  O   -0.10900868127168      2.31946215555228      0.59339256867886
  O   -1.99845775147052      1.32574208431447      1.12151100554709
  N   -1.41558862838401     -0.11069332480626     -1.12916275825118
  H   -1.32847023896948     -0.99000785907296     -1.61763938292748
  H   -2.35452171538790      0.21916027287553     -0.96345630833373
  N   1.62423822010334     -0.07473533834856      1.06959201413182
  O   1.15062870818422      0.41389502613607      2.09009532502095
  O   2.80745103792357     -0.32223380058091      0.85599523371674
  C   1.06313038054399     -1.50916073329756     -0.84423516391685
  N   1.25487386554559     -2.39559454780322     -1.59583463888015
