13
Coordinates from ORCA-job run
  C   -0.53631899977640      0.23072848575300     -0.01188617993948
  C   0.71542986675002     -0.32322993929663     -0.11237816962070
  N   -0.87582333721983      1.38105717755473     -0.89513562673730
  O   -1.70970771581461      2.16464025235154     -0.44625256020338
  O   -0.32799135371860      1.44516944070453     -1.98880797324530
  N   -1.56908664684305     -0.12563045100577      0.75576688751369
  H   -2.30697199627473      0.55503201774731      0.86010544492108
  H   -1.39400070081375     -0.80798300852711      1.47851743388668
  N   1.10278293657278     -1.42528534108865      0.76490043486619
  O   2.24434538167816     -1.85452651958721      0.64980518092381
  O   0.26017072645942     -1.85712427983071      1.55967953279501
  C   1.74915786838786      0.13311108688390     -0.96995927120561
  N   2.64901397061272      0.48404107834108     -1.64335513395469
