13
Coordinates from ORCA-job run
  C   -0.54597042915294      0.16018012138202     -0.12237116579189
  C   0.77433021239045     -0.17211612169020      0.05340926089027
  N   -0.87753509927960      1.53641401232577     -0.59697001085197
  O   -1.98642085715323      1.95469771592352     -0.27144597559604
  O   -0.04748862808365      2.12376750237940     -1.27908630023819
  N   -1.64172227517180     -0.58587911159652      0.03060980192274
  H   -1.53283665646754     -1.49197428187869      0.46131565741711
  H   -2.52242635661527     -0.09497200588506      0.07314159420541
  N   1.13485252313139     -1.49749862223511      0.55051781331070
  O   2.32620867564231     -1.72116178056819      0.72798446521467
  O   0.22367328737756     -2.30725886790586      0.75539708992825
  C   1.87473540924067      0.70350848602959     -0.13281982526274
  N   2.82260019414166      1.39229295371932     -0.24868240514832
