13
Coordinates from ORCA-job run
  C   -0.44872350396953      0.33777659623116      0.15026644444382
  C   0.73546218843341     -0.32649261114721      0.02749037520891
  N   -1.46637848915497      0.29993485446008     -0.92182609337343
  O   -1.08023531802889      0.03923071613959     -2.05692915323911
  O   -2.62356176157080      0.55481926859108     -0.58135253058142
  N   -0.80869640188704      1.12810396368700      1.18564477677894
  H   -1.79205946474864      1.37083289329752      1.20221176067160
  H   -0.33482024745808      1.03356976808486      2.07348286133352
  N   1.08899032705134     -1.23861476684465     -1.06335367453090
  O   0.32651481453312     -2.16930466503096     -1.29650308472426
  O   2.16686843020711     -1.01617231667115     -1.60636804897274
  C   1.74010692990450     -0.12365438761445      1.00806140370459
  N   2.49753249668848      0.10997068681711      1.88017496328050
