13
Coordinates from ORCA-job run
  C   -0.53353213809672      0.23210193315501     -0.01259288573614
  C   0.71872033782609     -0.32240697066802     -0.10438497336694
  N   -0.88122225866820      1.36233588150745     -0.92341402859230
  O   -0.31674708739150      1.41918883274496     -2.00876292102898
  O   -1.73934544966839      2.13554088594602     -0.50314483648953
  N   -1.56360504797794     -0.10853568653911      0.76513907620507
  H   -1.38966414506035     -0.78079373866425      1.49753263763830
  H   -2.30998632649494      0.56558626314565      0.84900367816128
  N   1.10628422521763     -1.40715398906750      0.79310582453094
  O   2.24951050468567     -1.83479754376660      0.68981305329372
  O   0.26202394781759     -1.82785552348673      1.59203494816471
  C   1.74894594704155      0.11579629130170     -0.97534286468229
  N   2.64661749076951      0.45199336439143     -1.65898670809784
