13
Coordinates from ORCA-job run
  C   -0.48007421001021      0.18608449436437     -0.22291017813234
  C   0.70974341121642     -0.40779173645195      0.06997725850933
  N   -1.05771269969482      1.24581856518241      0.62544751923466
  O   -1.70322296792704      0.85416469197643      1.58969622730403
  O   -0.89444952461021      2.39392877687746      0.23543485762714
  N   -1.24067087035633     -0.06718763277540     -1.30319053564234
  H   -2.20451038189067      0.22602317889197     -1.30102353044859
  H   -1.00672396965724     -0.85673291519376     -1.88733912668260
  N   1.54000599581668     -0.02193881764535      1.20166057424096
  O   2.51955547742338     -0.73019038897886      1.41420223781666
  O   1.20166983096665      0.96708359080381      1.84398090801938
  C   1.17361433820512     -1.46400370142269     -0.75408516330543
  N   1.44377557051827     -2.32425810562843     -1.51185104854087
