13
Coordinates from ORCA-job run
  C   -0.46317542026700      0.30512190191862      0.13219254840979
  C   0.76557177524072     -0.27797119377202      0.04425393050306
  N   -1.48972789788621      0.09247060237871     -0.91704959720121
  O   -1.08881435547151      0.03801024854486     -2.07315290569282
  O   -2.65680758940094      0.05882755267567     -0.53592155072492
  N   -0.88042657578139      1.12835951788170      1.10293028388047
  H   -0.28312893075737      1.34835917782066      1.88427392809848
  H   -1.74420999114153      1.63123504352124      0.99258601086448
  N   1.07540651328626     -1.36289948745096     -0.88380671805480
  O   2.23333434099353     -1.40165873306541     -1.29088668589903
  O   0.18009726126967     -2.15962057633506     -1.14363932234223
  C   1.78877302855028      0.11142827450061      0.94229541948338
  N   2.56310784136549      0.49033767138138      1.74492465867533
