13
Coordinates from ORCA-job run
  C   -0.51447975591670      0.27472353985504      0.00876097967037
  C   0.72365219765306     -0.31501096857753     -0.11154630111524
  N   -0.87622223225063      1.41292074538427     -0.89505092920121
  O   -0.08931721119688      1.72152111485013     -1.77945679161074
  O   -1.95500975537186      1.95270125804881     -0.66170666042058
  N   -1.52814328780026     -0.06287430760901      0.80936747518483
  H   -2.32538596234267      0.55522451921204      0.82301374504956
  H   -1.33495107809783     -0.70985760109222      1.56026039276529
  N   1.06064298040167     -1.45687372937725      0.74437142885840
  O   0.29123791311420     -1.73332625582847      1.66959718689866
  O   2.08318700954877     -2.07274538653290      0.47371557425494
  C   1.77242955790232      0.08074147821600     -0.97959857135168
  N   2.69235962435679      0.35385559345107     -1.66272752898261
