13
Coordinates from ORCA-job run
  C   -0.52604170784508      0.24811263747572      0.01047039940207
  C   0.70344764008301     -0.34284634282187     -0.14040784362037
  N   -0.84969719039002      1.44044555929335     -0.82651837849776
  O   -0.31939247814934      1.52935826166294     -1.92672584211986
  O   -1.65561661776116      2.22767095420863     -0.33530727667884
  N   -1.55223401546832     -0.09982909277965      0.79002444229531
  H   -2.26940654912048      0.59607624295266      0.93147744354520
  H   -1.39020655171430     -0.82088568629372      1.47733405593817
  N   1.07192735852746     -1.48670353005582      0.68947185158923
  O   2.20515120769661     -1.93184100729148      0.55391079807247
  O   0.22249917547868     -1.93536082714208      1.46731439996978
  C   1.73233538997591      0.11337629616795     -1.00396701934225
  N   2.62623433868702      0.46242653462337     -1.68607703055314
