13
Coordinates from ORCA-job run
  C   -0.50843755919140      0.24973597805861     -0.01070772773229
  C   0.79031450792904     -0.12684938872614      0.06719230385803
  N   -0.85922525458030      1.45765193960694     -0.80561769017539
  O   -2.03278521148265      1.53789020580163     -1.16411887813357
  O   0.03072974944176      2.27400370293800     -1.01882788714970
  N   -1.54475360809435     -0.39592766741022      0.58813691849017
  H   -1.61882611889133     -1.38938158668117      0.42308231140087
  H   -2.43008990843191      0.08307292408661      0.51486291904140
  N   1.08301380646589     -1.29797710714247      0.92242810781916
  O   1.05432309583708     -1.11801482630695      2.13327094136797
  O   1.32364461966944     -2.34642721610957      0.32922803333119
  C   1.89343909699323      0.35841020916999     -0.67192347592343
  N   2.81965278433549      0.71381283271473     -1.30800587619442
