13
Coordinates from ORCA-job run
  C   -0.53041777666496      0.23946527010294      0.00163848911791
  C   0.76663562283012     -0.20985738839223      0.01458899915017
  N   -0.87095849583593      1.40990914792310     -0.86064037039516
  O   0.01366729415782      2.22125414872803     -1.10225887412901
  O   -2.03909962000172      1.46545193003942     -1.23862774741453
  N   -1.58914365500135     -0.18863773902082      0.69203429105083
  H   -1.49025205720562     -1.04771212845574      1.21224511431509
  H   -2.49460524781565      0.12179790692293      0.37230080875093
  N   1.12931576675951     -1.37417021103811      0.81839034761578
  O   2.29195794797280     -1.75510740053232      0.75492840819112
  O   0.24929836271517     -1.89663699527853      1.51164463536975
  C   1.82679564012104      0.31616288501819     -0.76756443756363
  N   2.73680621796877      0.69808057398312     -1.40967966405925
