13
Coordinates from ORCA-job run
  C   -0.52762221411703      0.24655294291923      0.00680462129263
  C   0.70589081711085     -0.33927629395704     -0.13617634462431
  N   -0.86546597544741      1.41714158453878     -0.85379482359660
  O   -1.69437983641066      2.19523537739183     -0.38667453424000
  O   -0.32297304362403      1.49979968915841     -1.94858858486902
  N   -1.54492516046788     -0.09192167996372      0.80105023773079
  H   -1.38007818485052     -0.80718996119634      1.49374029867979
  H   -2.27591935929274      0.59325349239920      0.92161436188939
  N   1.08856709610559     -1.45592610110480      0.72331209314251
  O   2.23058750100219     -1.88401743558390      0.60630807457855
  O   0.24292007376132     -1.89958265230838      1.50845692826862
  C   1.72726929554597      0.09841825592578     -1.01814421886651
  N   2.61512899068438      0.42751278178098     -1.71790810938583
