13
Coordinates from ORCA-job run
  C   -0.54133524361410      0.14364312881484     -0.16166495986495
  C   0.77880535517477     -0.14948240522409      0.08177503024326
  N   -0.88508393732177      1.41398180867007     -0.87639166225768
  O   0.00247035337585      1.98734740813686     -1.49295376732949
  O   -2.05314403830759      1.78115145470062     -0.76752180256792
  N   -1.62986145396347     -0.54614641164550      0.17521073173655
  H   -1.52510593740571     -1.46519213049383      0.57515180042911
  H   -2.53121827575623     -0.10562969275330      0.08015447739747
  N   1.10981601995902     -1.28613103664131      0.93556768900744
  O   0.27756096127091     -2.19329303209598      1.02998057176794
  O   2.18181064440430     -1.24576137374565      1.52734699269984
  C   1.90565690224914      0.58019794310327     -0.37948537326750
  N   2.91062864993488      1.08531433917398     -0.72716972799408
