13
Coordinates from ORCA-job run
  C   -0.55155847462342      0.09260619466262     -0.16002756155721
  C   0.78028677789167     -0.11959155739846      0.09576830134704
  N   -0.93376491899976      1.22296033109691     -1.05831362794796
  O   -2.05544532268770      1.68934453177856     -0.87196908748198
  O   -0.12882576763356      1.57574987646224     -1.91072583756765
  N   -1.61986540825254     -0.59573018596153      0.24694634046469
  H   -1.47687506530262     -1.30501353555515      0.95045894188101
  H   -2.51708378387364     -0.14650140372206      0.13907432491487
  N   1.18931229926157     -1.19286336551469      0.99805806887537
  O   2.38814859082482     -1.30449761422251      1.22432195480746
  O   0.30826780445481     -1.91974087135499      1.47072113714898
  C   1.84794021815398      0.68026871559491     -0.38659749199869
  N   2.76946305078639      1.32300888413412     -0.73871546288592
