13
Coordinates from ORCA-job run
  C   -0.55029946187596      0.16512354401499     -0.08890483137927
  C   0.77392297286499     -0.10437154635173      0.15190471536062
  N   -0.89409475452963      1.32304117013261     -0.96599111196652
  O   -1.96783411177283      1.23679805189561     -1.55770958226839
  O   -0.10900610016809      2.26155351333921     -1.01091683911636
  N   -1.64348265235588     -0.43953243087467      0.38066151432526
  H   -2.51105725332734     -0.24046038110510     -0.09488704711333
  H   -1.51629960566482     -1.30454066578698      0.88476423091746
  N   1.14897121110699     -1.24917616331246      0.97761548545893
  O   0.24305408260326     -1.92397361454143      1.47941992152505
  O   2.34660920591934     -1.46225581616984      1.12332739863128
  C   1.87092877267376      0.60139048206045     -0.40563680466825
  N   2.81058769452622      1.13540385669934     -0.87264704970648
