13
Coordinates from ORCA-job run
  C   -0.52076778224128      0.26079400086104      0.00020892520085
  C   0.69297907978893     -0.36598030965627     -0.13305628316997
  N   -0.80361396469935      1.45173382074183     -0.85375927309918
  O   -1.60050359376702      2.26102335158868     -0.38407750777700
  O   -0.24964543779602      1.52092614584753     -1.94353346858338
  N   -1.56227250226083     -0.04860868443647      0.77560602133207
  H   -2.25972492272898      0.66989833127098      0.90273444963007
  H   -1.42653962961887     -0.76531425550314      1.47299947135136
  N   1.02445302531192     -1.50609668624230      0.71748772814473
  O   2.15038616020383     -1.97581665785389      0.60692926992022
  O   0.15356089455449     -1.92604804964730      1.48785688897117
  C   1.74384980002962      0.05316642725785     -0.98887189165158
  N   2.65783887322358      0.37132256577145     -1.65952433026935
