13
Coordinates from ORCA-job run
  C   -0.52834646617473      0.24509206569115      0.00673098584832
  C   0.76727827116750     -0.20514121283064      0.02825483635088
  N   -0.85196429415226      1.43429978921904     -0.83565011185247
  O   -2.00423979420623      1.48298482006577     -1.26001659628228
  O   0.02805253448246      2.26721904096118     -1.01097849278061
  N   -1.59840779316573     -0.19183983842136      0.67473772179737
  H   -2.49912187989764      0.11316488900049      0.33701366137620
  H   -1.50497472772290     -1.06142969343901      1.17859990655844
  N   1.11643298501941     -1.39043180892327      0.80679873855713
  O   2.27292390536108     -1.78699879272915      0.73034254123513
  O   0.23201039588787     -1.91165168277212      1.49569561614493
  C   1.83068460973181      0.31868410734128     -0.75076937200036
  N   2.73967225366935      0.68804831683663     -1.40175943495270
