13
Coordinates from ORCA-job run
  C   -0.54505221499843      0.19621946134650     -0.06075519022424
  C   0.74823669957046     -0.26404734364644     -0.04321024689727
  N   -0.86448969280489      1.39305583094268     -0.89461959872416
  O   -1.82955194821823      2.05529030127530     -0.51959075430646
  O   -0.16987149858475      1.60872660389563     -1.87949528650503
  N   -1.63209545422451     -0.28914795826378      0.54199982601338
  H   -1.49995605155644     -1.02649701498849      1.21827089623192
  H   -2.43544532115602      0.31988651215567      0.58831520328825
  N   1.10595640083437     -1.40802061779588      0.79109866074170
  O   0.20219117312657     -1.97424214283016      1.41630824277615
  O   2.28611271142211     -1.73605527807607      0.81164766815117
  C   1.84225956212884      0.33076927376920     -0.72274976916336
  N   2.78970563446091      0.79406237221584     -1.24621965138206
