13
Coordinates from ORCA-job run
  C   -0.54775569197705      0.17817094321997     -0.08711481486740
  C   0.74835749847796     -0.26491141708263     -0.02218113700647
  N   -0.84688611364484      1.35083294530940     -0.95715027125721
  O   -0.19080745250536      1.48348899733584     -1.98305384250620
  O   -1.75913747869890      2.07620344496936     -0.56766508013491
  N   -1.65179029295140     -0.30727979105363      0.48692646989495
  H   -2.44899055842238      0.31110045528578      0.52320384168734
  H   -1.52620896110538     -1.01422504179125      1.19635148595028
  N   1.10000229002286     -1.37910650757863      0.85359074891794
  O   0.18642661504124     -1.94220930231454      1.46720952296358
  O   2.28346842472665     -1.69037968538470      0.91308321475947
  C   1.85124829087561      0.35123134605135     -0.66782301057968
  N   2.80207343016099      0.84708361303368     -1.15337712782166
