13
Coordinates from ORCA-job run
  C   -0.55290199876051      0.16241839117897     -0.09293400583369
  C   0.74778606606072     -0.27701816782887     -0.05768290407147
  N   -0.87166512078055      1.34653880307083     -0.94000089451309
  O   -0.22153710202368      1.50992187241899     -1.96403982232784
  O   -1.79086218918951      2.05273626571908     -0.53223313276355
  N   -1.64253381711526     -0.33364266445937      0.50107477871343
  H   -1.50663248326546     -1.05405888341999      1.19521776751785
  H   -2.44276305249782      0.27769602583028      0.55979563482213
  N   1.12633346368160     -1.36668741774417      0.84357616143517
  O   2.32004585612659     -1.62784585461383      0.93008266638803
  O   0.22501733323750     -1.95721511067504      1.44749580518416
  C   1.83844699585045      0.36905205343680     -0.69982265354825
  N   2.77026604867593      0.89710468708633     -1.18852940100287
