13
Coordinates from ORCA-job run
  C   -0.54372292675774      0.18107046073432     -0.08451675764317
  C   0.77449612004397     -0.14808099445535      0.11752621373664
  N   -0.86914957782819      1.40546668848755     -0.88078675988366
  O   -1.98887094831348      1.42691997208806     -1.38569043536671
  O   -0.02277398402427      2.28712571271522     -0.94962816387656
  N   -1.64745496866876     -0.41642861783426      0.36674539708450
  H   -2.51889853352253     -0.13679131886560     -0.05762812040168
  H   -1.54827565200874     -1.31717771835474      0.80963128737936
  N   1.11870552336630     -1.34131933917343      0.88766557538796
  O   0.19667144141712     -2.03801715262727      1.32679247832865
  O   2.31121208449134     -1.56534152654026      1.06289067208741
  C   1.89086946021839      0.55787613341648     -0.39880350157022
  N   2.84719196158659      1.10469770040928     -0.81319788526252
