13
Coordinates from ORCA-job run
  C   -0.55145836808310      0.16328811517545     -0.08203419133640
  C   0.76455690678133     -0.22050220181876     -0.00492768348807
  N   -0.90304442491630      1.31855455889077     -0.95996726206957
  O   -0.20733414224163      1.51448622297473     -1.94939628441625
  O   -1.90374296761044      1.95275196522370     -0.63240865107271
  N   -1.63502321961801     -0.36974498507173      0.48430615833691
  H   -2.47310549800996      0.19257037709951      0.47818808624890
  H   -1.49224249781506     -1.08965999859380      1.17652361341762
  N   1.15461235228903     -1.33559152578354      0.85131488654215
  O   0.26180028104483     -1.93305088445605      1.46346601468406
  O   2.34640541817412     -1.61156236032295      0.90303244102342
  C   1.84643042591869      0.44598067206106     -0.63517930657719
  N   2.79314573408650      0.97348004462159     -1.09391782129288
