13
Coordinates from ORCA-job run
  C   -0.51263392260727      0.25160882705832     -0.08105366623215
  C   0.79236250805401     -0.11273415796290      0.03340383437073
  N   -0.88369755887693      1.47878758608715     -0.81823408824895
  O   -2.08617294341254      1.68102164219364     -0.96498068476338
  O   0.03117417071215      2.17514371462315     -1.24611967037141
  N   -1.56885465924281     -0.35925968516087      0.48908465969493
  H   -2.47698679514374     -0.15852789506860      0.10298499649432
  H   -1.44647157444375     -1.21213812441727      1.01008118760244
  N   1.00902122568109     -1.42287875623994      0.67807195399627
  O   1.34519007337505     -2.34319258081332     -0.05737919850935
  O   0.78933423805962     -1.47886071768550      1.88857029256975
  C   1.97107907185537      0.54075945622938     -0.38021882974509
  N   3.03765616598975      0.96027069115675     -0.65421078685810
