13
Coordinates from ORCA-job run
  C   -0.53298909060869      0.23574358258140     -0.00417461037665
  C   0.76813401711538     -0.20105427295246      0.02531310979363
  N   -0.87180155318717      1.40517679486852     -0.86726705514411
  O   -2.03590302676127      1.45373912870961     -1.25863596079330
  O   0.00957304676374      2.22375309750873     -1.09627558244289
  N   -1.59641075954530     -0.20350371122123      0.67154419042385
  H   -1.49681337178050     -1.06284293039279      1.19105707921878
  H   -2.50048145310743      0.10168955359809      0.34303538772058
  N   1.13154206954513     -1.36313742743429      0.83228692230170
  O   2.29808748571046     -1.73383301332126      0.78237762113419
  O   0.24762454509859     -1.89429835939317      1.51392225856732
  C   1.83198983856370      0.32969766444789     -0.74855230873229
  N   2.74644825219336      0.70986989300097     -1.38563105167081
