13
Coordinates from ORCA-job run
  C   -0.54109041274170      0.20983567076651     -0.05188813377833
  C   0.76967686860337     -0.16409821987640      0.10391798959773
  N   -0.84257920155577      1.39728540785565     -0.90151489482398
  O   -1.93285330704341      1.37635495832339     -1.46909651551636
  O   -0.00984021099492      2.29343984674084     -0.94915201605440
  N   -1.64887792829836     -0.30975539406538      0.48260079693217
  H   -2.52239472998161     -0.05300036404377      0.04646925476441
  H   -1.56078836229002     -1.18170489147557      0.98360427683710
  N   1.10312983974955     -1.35154807799180      0.88637026287401
  O   2.28052377260091     -1.68898761526557      0.91289188910383
  O   0.18527842361099     -1.93432727594014      1.47396819876799
  C   1.88170589253337      0.46863604728097     -0.50901245154424
  N   2.83910935580759      0.93786990769126     -1.00815865715993
