13
Coordinates from ORCA-job run
  C   -0.52904771260429      0.13293590164210     -0.13244897556189
  C   0.72648152116346     -0.38114362046073     -0.02119289318432
  N   -0.93444540536384      1.37455594832916      0.55134716997720
  O   -1.45831217094442      1.21969933134684      1.64831170676902
  O   -0.77761923662564      2.41246777968808     -0.07543741222458
  N   -1.51751783836603     -0.36387339312762     -0.90002927723155
  H   -2.46570314596691     -0.08733135908620     -0.69978674781573
  H   -1.39282581100105     -1.27937721079650     -1.30851997785969
  N   1.78144230881836      0.23958550360058      0.76677776101962
  O   2.85703346683181     -0.35121826667199      0.78295767556536
  O   1.51674602693684      1.28778131326803      1.34619019010278
  C   1.03457723094276     -1.59583580925445     -0.68391948400514
  N   1.16019076617895     -2.60724611847727     -1.27424973555109
