13
Coordinates from ORCA-job run
  C   -0.54631206664576      0.20601933556459     -0.07764643275537
  C   0.76806900339120     -0.14968037734661      0.06079731191727
  N   -0.91174834452701      1.30335701733939     -1.03618599304707
  O   -0.01072575345700      1.98877470768645     -1.49916188702106
  O   -2.11709652118533      1.44655344836631     -1.23628233305921
  N   -1.63162050841983     -0.43250866878103      0.40240749809420
  H   -1.45861705746192     -1.02627668230298      1.19816580507594
  H   -2.47582891191363      0.11730842572853      0.41395306839869
  N   1.11757129522383     -1.28139693131471      0.93554293943392
  O   0.34144088339514     -1.55976463197387      1.84964220366971
  O   2.17836458104886     -1.84981756082405      0.70371907010847
  C   1.88360996741000      0.42425383474244     -0.59995569373934
  N   2.86389343314144      0.81417808311555     -1.11599555707615
