13
Coordinates from ORCA-job run
  C   -0.54941938975533      0.19144648489258     -0.05758780456764
  C   0.77680451559777     -0.15314376994627      0.06785501733428
  N   -0.90891646142375      1.48312375715526     -0.72915085108419
  O   -0.00515854496155      2.24518923604118     -1.04439818999996
  O   -2.11174959417126      1.67522905033923     -0.90000708357977
  N   -1.62956891503766     -0.45001695174937      0.38525131572077
  H   -2.52889918223622     -0.09830809670649      0.09321098480929
  H   -1.50652510558285     -1.37837083975332      0.76066068647978
  N   1.14392435121026     -1.41020084454226      0.72082162736535
  O   0.23647453076884     -2.13816868567012      1.13768370152517
  O   2.33946050413806     -1.65858581875195      0.81679663803976
  C   1.88691209922029      0.57688590257780     -0.42850663787483
  N   2.85766119223339      1.11492057611372     -0.82262940416800
