14

C	-0.508931	-0.029154	-1.435167
C	0.0	0.0	0.0
Cl	-2.436903	-0.256277	-1.277907
H	1.092174	0.0	0.0
H	-0.357521	-0.897332	0.51363
N	-0.179993	1.133851	-2.107878
H	-0.608627	1.238874	-3.013185
H	-0.310039	1.927442	-1.489339
C	-0.126519	-1.231369	-2.173214
N	0.162988	-2.192899	-2.781925
N	-0.428786	1.256195	0.610832
H	0.291959	1.558512	1.25392
H	-1.297114	1.13746	1.115417
Cl	3.436595	0.0	0.0
