14

C	-0.562852	0.000828	-1.41962
C	0.0	0.0	0.0
Cl	-0.089347	-1.472215	-2.308419
H	1.09092	0.0	0.0
H	-0.316463	0.961891	0.441139
N	-2.020291	0.029936	-1.364799
H	-2.294931	0.912876	-0.943497
H	-2.391734	0.011758	-2.308862
C	-0.043756	1.153241	-2.183129
N	0.229152	2.123331	-2.788114
N	-0.465321	-1.165272	0.725791
H	0.247153	-1.442523	1.385454
H	-1.331385	-0.988614	1.21053
Cl	3.459778	0.0	0.0
