15

C	0.0	0.0	0.0
C	-0.3365	-0.088202	-1.515019
Cl	1.779712	0.0	0.0
H	0.070087	-1.06014	-1.811667
H	0.266807	0.678901	-2.000714
N	-0.331033	1.431418	0.535978
O	-0.355642	2.355624	-0.268294
O	-0.506348	1.528562	1.745602
N	-0.596351	-0.995181	0.776477
H	-0.446993	-0.811935	1.761967
H	-1.605914	-0.959183	0.60137
N	-1.689168	0.023285	-1.970486
H	-2.110415	0.893209	-1.673598
H	-2.296235	-0.69008	-1.588538
Cl	-4.103221	0.0	0.0
