15

C	0.0	0.0	0.0
C	-0.509281	-0.116255	-1.421684
Cl	1.873352	0.0	0.0
H	-1.570842	0.143193	-1.353175
H	0.004122	0.628037	-2.035386
N	-0.243602	1.459216	0.493563
O	-0.182702	2.358155	-0.335895
O	-0.438489	1.60589	1.694307
N	-0.505416	-0.944825	0.867796
H	-0.532312	-0.58936	1.814651
H	-1.443433	-1.208998	0.565051
N	-0.392884	-1.490769	-1.885679
H	0.528986	-1.660349	-2.264798
H	-1.081261	-1.655482	-2.605457
Cl	-3.673871	0.0	0.0
