15

C	0.0	0.0	0.0
C	-0.500569	-0.226362	-1.414118
Cl	1.846927	0.0	0.0
H	-0.063675	0.543539	-2.054067
H	-1.581342	-0.063973	-1.356639
N	-0.257526	1.506228	0.378128
O	-0.239633	2.341781	-0.516963
O	-0.411846	1.743234	1.570528
N	-0.51634	-0.871061	0.94063
H	-0.362429	-0.508833	1.872811
H	-1.524147	-0.94899	0.770342
N	-0.233112	-1.59269	-1.839763
H	0.657665	-1.64744	-2.314719
H	-0.960204	-1.887258	-2.476437
Cl	-3.620949	0.0	0.0
