15

C	0.0	0.0	0.0
C	-0.524738	-0.18833	-1.412463
Cl	1.76825	0.0	0.0
H	-1.581935	0.092722	-1.384083
H	0.013378	0.488894	-2.074412
N	-0.298275	1.488247	0.423626
O	-0.413822	1.691533	1.626398
O	-0.336494	2.341645	-0.453364
N	-0.56363	-0.911411	0.896216
H	-0.302317	-0.677272	1.846125
H	-1.58584	-0.82358	0.800529
N	-0.283516	-1.570688	-1.831593
H	-0.800856	-2.171208	-1.199115
H	-0.70851	-1.682596	-2.745792
Cl	-3.632682	0.0	0.0
