15

C	0.0	0.0	0.0
C	-0.528851	-0.228261	-1.405557
Cl	1.768247	0.0	0.0
H	-1.585071	0.057405	-1.378344
H	0.008607	0.428836	-2.088618
N	-0.297357	1.497944	0.38192
O	-0.309133	2.330118	-0.516512
O	-0.436687	1.731261	1.576819
N	-0.561816	-0.887913	0.922144
H	-0.298743	-0.629292	1.865117
H	-1.583806	-0.80258	0.824932
N	-0.297789	-1.62471	-1.783562
H	-0.77153	-1.772316	-2.667094
H	-0.77781	-2.199977	-1.100919
Cl	-3.637981	0.0	0.0
