15

C	0.0	0.0	0.0
C	-0.484527	-0.011851	-1.434509
Cl	1.891055	0.0	0.0
H	-1.560714	0.179293	-1.361011
H	-0.008857	0.818054	-1.962936
N	-0.229136	1.428112	0.598226
O	-0.368723	1.489297	1.814099
O	-0.210875	2.385112	-0.16597
N	-0.510348	-0.998063	0.799398
H	-0.403514	-0.749652	1.775263
H	-1.50699	-1.090061	0.578646
N	-0.273397	-1.323525	-2.030044
H	-0.933769	-1.449273	-2.785092
H	0.667922	-1.393931	-2.399746
Cl	-3.602012	0.0	0.0
