15

C	0.0	0.0	0.0
C	-0.540017	0.092908	-1.420226
Cl	1.765273	0.0	0.0
H	-0.333158	-0.894635	-1.841034
H	-1.625372	0.200168	-1.312898
N	-0.333886	1.311417	0.793977
O	-0.434844	1.19501	2.009408
O	-0.444979	2.360955	0.172582
N	-0.540693	-1.122667	0.645894
H	-1.559721	-1.061706	0.533641
H	-0.32991	-1.079202	1.635149
N	0.103633	1.09592	-2.263044
H	-0.309655	1.995615	-2.06127
H	-0.108673	0.867591	-3.226058
Cl	-3.679155	0.0	0.0
