15

C	0.0	0.0	0.0
C	-0.49372	-0.133216	-1.431269
Cl	1.846945	0.0	0.0
H	-0.050655	0.672456	-2.017083
H	-1.573737	0.03212	-1.374598
N	-0.254944	1.479108	0.476828
O	-0.276859	2.366942	-0.366993
O	-0.37286	1.641779	1.686191
N	-0.528542	-0.927013	0.878455
H	-0.361147	-0.640661	1.835606
H	-1.540218	-0.960423	0.709978
N	-0.198725	-1.46135	-1.95183
H	0.525773	-1.41949	-2.653735
H	-1.032481	-1.853464	-2.364814
Cl	-3.608485	0.0	0.0
