15

C	-0.063918	0.005402	-0.065266
C	-0.38981	0.066455	-1.56575
Cl	1.734627	-0.076712	0.200511
H	0.332767	0.721444	-2.05444
H	-0.335524	0.99679	0.323425
N	-0.704877	-1.098141	0.574395
H	-0.450954	-1.072629	1.558638
H	-1.729453	-0.859781	0.554552
N	-1.731518	0.456225	-1.855254
H	-1.759386	1.461857	-1.965421
H	-2.380211	0.22017	-1.074374
N	-0.113618	-1.294037	-2.179004
O	1.033238	-1.48813	-2.59203
O	-1.026264	-2.106348	-2.2186
H	-3.156923	0.021938	0.458695
