18

C	-0.390911	-0.022425	-1.501893
C	0.0	0.0	0.0
Cl	-0.210967	1.731939	-2.096628
H	1.091188	0.0	0.0
N	0.49365	-0.783995	-2.336218
H	1.4422	-0.444528	-2.179259
H	0.476401	-1.733043	-1.973503
N	-1.708807	-0.510181	-1.685712
H	-2.38984	0.04748	-1.186994
H	-1.919685	-0.519398	-2.67568
N	-0.439409	-1.330096	0.540072
O	0.148862	-2.331232	0.13595
O	-1.387091	-1.357582	1.328271
C	-0.548223	1.116145	0.861104
H	-0.350359	0.892112	1.908779
H	-0.032143	2.038555	0.605589
H	-1.623849	1.258194	0.741931
Cl	3.34125	0.0	0.0
