18

C	-0.379967	-0.025007	-1.480579
C	0.0	0.0	0.0
Cl	-2.250803	-0.177082	-1.661415
H	1.091676	0.0	0.0
N	0.048833	1.193046	-2.083071
H	-0.440277	1.996621	-1.710797
H	-0.094036	1.154716	-3.084609
N	0.156522	-1.19748	-2.085287
H	0.009091	-1.185375	-3.087193
H	1.150821	-1.240709	-1.870396
N	-0.441353	-1.269435	0.657545
O	0.302991	-2.241921	0.569246
O	-1.519301	-1.261101	1.259388
C	-0.509275	1.190181	0.781736
H	-0.22415	1.073526	1.828501
H	-1.593398	1.286884	0.723351
H	-0.016973	2.093682	0.417777
Cl	3.365738	0.0	0.0
