18

C	-0.525712	0.040879	-1.441092
C	0.0	0.0	0.0
Cl	0.279035	1.442411	-2.230289
H	1.089188	0.0	0.0
N	-0.065775	-1.128946	-2.161525
H	-0.655071	-1.915427	-1.919825
H	-0.095345	-0.962416	-3.159056
N	-1.951846	0.334429	-1.468507
H	-2.243269	0.403295	-2.437831
H	-2.417653	-0.464869	-1.051281
N	-0.415787	-1.274395	0.674607
O	-1.343958	-1.945248	0.193819
O	0.153301	-1.55819	1.719772
C	-0.491622	1.136648	0.885626
H	0.017471	1.072125	1.847553
H	-1.573716	1.103066	1.022355
H	-0.227727	2.084761	0.419421
Cl	3.406875	0.0	0.0
