18

C	-0.382961	0.04827	-1.490473
C	0.0	0.0	0.0
Cl	-0.024456	-1.648048	-2.160104
H	1.090718	0.0	0.0
N	-1.725257	0.442472	-1.714419
H	-1.911296	0.407786	-2.709142
H	-2.349699	-0.178988	-1.21523
N	0.482662	0.921338	-2.235214
H	1.452848	0.696043	-2.015079
H	0.29737	1.871577	-1.934268
N	-0.553406	-1.199959	0.68266
O	0.199183	-1.917833	1.328622
O	-1.776125	-1.371587	0.587002
C	-0.481265	1.218698	0.773594
H	-1.568729	1.286705	0.790066
H	-0.071941	2.121084	0.317888
H	-0.091869	1.162712	1.793073
Cl	3.373421	0.0	0.0
