18

C	-0.38631	0.058502	-1.488881
C	0.0	0.0	0.0
Cl	-0.017562	-1.630956	-2.171448
H	1.090422	0.0	0.0
N	-1.7308	0.447042	-1.709301
H	-2.352541	-0.181006	-1.215551
H	-1.916087	0.421837	-2.704221
N	0.473622	0.942927	-2.228509
H	0.286563	1.889876	-1.916832
H	1.446154	0.718561	-2.015763
N	-0.552543	-1.204726	0.674545
O	-1.774252	-1.380815	0.573155
O	0.200018	-1.922266	1.321341
C	-0.480512	1.212645	0.783146
H	-1.567804	1.283259	0.798366
H	-0.068316	2.117726	0.33573
H	-0.092169	1.147457	1.802511
Cl	3.370257	0.0	0.0
