18

C	-0.366305	0.210051	-1.471519
C	0.0	0.0	0.0
Cl	-0.032558	-1.514507	-2.335128
H	1.091351	0.0	0.0
N	-1.715063	0.560439	-1.704064
H	-1.894134	0.629924	-2.69744
H	-2.310656	-0.158254	-1.308147
N	0.538805	1.154504	-1.983536
H	0.444788	1.266434	-2.984785
H	1.498303	0.898223	-1.748177
N	-0.549899	-1.268626	0.540503
O	0.199306	-2.027561	1.142654
O	-1.766617	-1.447708	0.398464
C	-0.50053	1.140119	0.872839
H	-0.122136	2.075248	0.460301
H	-1.590098	1.173171	0.901793
H	-0.099966	1.016005	1.88249
Cl	3.369187	0.0	0.0
