15

C	-0.357431	0.097823	-1.495556
C	0.0	0.0	0.0
F	0.200001	-0.912278	-2.188403
H	1.097012	0.0	0.0
N	-1.880428	-0.034084	-1.671978
O	-2.541305	0.908177	-1.242383
O	-2.307023	-1.06465	-2.166942
C	0.015489	1.397184	-2.063765
N	0.264069	2.445586	-2.531316
C	-0.515648	-1.275011	0.505837
N	-0.94772	-2.291452	0.905966
N	-0.411157	1.109261	0.825045
H	-1.313974	1.483785	0.568025
H	0.301264	1.826422	0.797611
Cl	3.179502	0.0	0.0
