15

C	-0.481171	0.023412	-1.447826
C	0.0	0.0	0.0
F	0.068551	1.073694	-2.097696
H	1.091609	0.0	0.0
N	-0.058623	-1.224165	-2.240772
O	-0.312337	-1.176472	-3.44005
O	0.483276	-2.135657	-1.631897
C	-1.948009	0.104137	-1.544469
N	-3.121023	0.140521	-1.583905
C	-0.528481	-1.160953	0.714085
N	-1.024072	-2.008421	1.36005
N	-0.433712	1.261169	0.602227
H	-1.167086	1.117471	1.282349
H	0.367609	1.678834	1.058412
Cl	3.204106	0.0	0.0
