15

C	-0.202259	-0.170616	-1.501599
C	0.0	0.0	0.0
Cl	-1.777856	-0.919501	-1.897512
H	1.091031	0.0	0.0
H	-0.342321	-0.905818	0.496883
N	-0.115456	1.189724	-2.228946
O	-1.119612	1.692334	-2.712073
O	1.013485	1.655355	-2.255028
N	0.873206	-0.959141	-2.040044
H	0.683928	-1.932547	-1.834442
H	1.717928	-0.676906	-1.500919
N	-0.640129	1.124935	0.679158
O	-0.676557	2.220233	0.11677
O	-1.06827	0.915846	1.817834
F	2.580517	0.0	0.0
