15

C	-0.119879	-0.044441	-1.51861
C	0.0	0.0	0.0
Cl	-1.741311	-0.532417	-2.125335
H	1.091827	0.0	0.0
H	-0.493466	0.839465	0.473998
N	0.033096	1.444529	-1.950357
O	0.919709	1.7227	-2.742668
O	-0.757015	2.239753	-1.448754
N	0.897007	-0.790592	-2.165406
H	1.755494	-0.57214	-1.623625
H	0.687982	-1.765813	-1.983622
N	-0.464544	-1.228494	0.643488
O	-0.992312	-1.117257	1.752658
O	-0.267383	-2.309317	0.082471
F	2.573368	0.0	0.0
