17
Coordinates from ORCA-job run
  C   -0.78868413898235     -0.11527098064265     -0.01871025179648
  C   0.41875552371799      0.75931716126627      0.36212257578473
  Cl  -2.07909699831395      0.27235336347354      1.15001580494608
  H   0.17110699610404      1.80167158429076      0.13041250918084
  C   -0.50640331647748     -1.59323703477558     -0.00376793431218
  H   -0.06829307576562     -1.83975603463340      0.96332975541872
  H   0.18192194357978     -1.85628066735732     -0.80698609417316
  H   -1.42836587308385     -2.15359177013325     -0.14526470221556
  N   -1.34161768352997      0.34146309071703     -1.36869932648600
  O   -1.70641800582639     -0.52954799148193     -2.14582980561287
  O   -1.40990966706018      1.55114386170868     -1.54672384930756
  N   1.57121077888029      0.43378142162059     -0.57064345995055
  O   1.27858922242304      0.23192383684463     -1.74447153485189
  O   2.70635168228638      0.44474826975273     -0.10737421060735
  N   0.83597802179968      0.48999007033694      1.71006000095282
  H   1.82891726696477      0.67153923274773      1.79012576354808
  H   0.33695732328383      1.08875258626523      2.35340475948234
