17
Coordinates from ORCA-job run
  C   -0.74158813567776      0.06939835800106     -0.08442677380194
  C   0.60640262796690      0.56412662723351      0.49563129611425
  Cl  -1.88150011765414      1.41415469801163     -0.05981152734208
  H   0.38341709557307      0.98315014707035      1.47749782621565
  C   -1.28689576997442     -1.09159501833032      0.72368423841868
  H   -0.59142686788002     -1.92884490512818      0.69624861737333
  H   -2.24530663293029     -1.40994665404134      0.31034747914244
  H   -1.44461627388105     -0.77256100760812      1.75534996574645
  N   -0.56243339595191     -0.42247414427417     -1.52635078343452
  O   -1.14188987387494      0.13723526070481     -2.43909713709001
  O   0.16859995413024     -1.40712312145463     -1.62343201286763
  N   1.08210367973074      1.74282736000816     -0.32248327825456
  O   1.21569790610391      2.81633556136626      0.25280847483624
  O   1.33424022079611      1.50241706295510     -1.49973250604508
  N   1.68661668384511     -0.35501211754120      0.58600544037552
  H   1.69154952961752     -0.85729037359019      1.46011291632428
  H   1.72702937006096     -0.98579773338273     -0.20235223571101
