17
Coordinates from ORCA-job run
  C   -0.78762516716838     -0.02835878264559      0.03061047638897
  C   0.53741446349055      0.65578266607550      0.39328056118169
  Cl  -1.94762167782150      0.41852318739125      1.31619583445310
  H   0.39324080536119      1.74107644346032      0.33525804434740
  C   -0.71368125408408     -1.52654260747789     -0.09266078299094
  H   -0.25658053702969     -1.91875686360029      0.81501449191484
  H   -1.71218742127905     -1.94078729827243     -0.21598577559194
  H   -0.11434649419679     -1.80244624674275     -0.95952477455214
  N   -1.35711303948529      0.61372835352907     -1.23494153609565
  O   -1.94074404256672     -0.12236504411573     -2.01717066231233
  O   -1.21931695827549      1.82618923571650     -1.34131623613328
  N   1.58004418411455      0.36897969808177     -0.67003990999127
  O   2.75276619852444      0.47500791142714     -0.32883867184567
  O   1.18272207281748      0.11705979644208     -1.80288284377991
  N   1.05016578319183      0.14810120839519      1.63958809814871
  H   0.53096353424665      0.55143207575680      2.40844183387522
  H   2.02089955016029      0.42437626657906      1.72497185298319
