17
Coordinates from ORCA-job run
  C   -0.61174239078174     -0.05674593589666     -0.21523078711734
  C   0.87210984451040      0.22511526588842      0.13109946718207
  Cl  -1.41332969574804      1.42417638676702     -0.72512516643822
  H   1.30830290753822     -0.71420003128644      0.46776531203060
  C   -1.41734985787406     -0.75620499724738      0.85998940802764
  H   -2.39442544688959     -1.03034178171626      0.45726807944412
  H   -1.56214294070065     -0.09258031435761      1.71035484268936
  H   -0.89396048798267     -1.65250124886418      1.19313284536004
  N   -0.51801598675853     -1.02335311932872     -1.40821077028148
  O   -1.05046189262402     -0.73887475794048     -2.46878863722979
  O   0.11560803560545     -2.04742984271711     -1.16322038146408
  N   0.88448029001098      1.12270198152369      1.34870926279208
  O   0.74068641043263      0.55978064924445      2.43347755880497
  O   1.01499484001264      2.32575077489280      1.16454119146109
  N   1.67368498892980      0.79665030113711     -0.88626904976974
  H   2.02905816644058      0.10165329827532     -1.52562014539185
  H   1.22150321587860      1.55640337162604     -1.37487303009947
