17
Coordinates from ORCA-job run
  C   -0.78887107162093      0.09172974735078     -0.05536815892918
  C   0.57631556527240      0.42453950882232      0.55626486552132
  Cl  -1.85513140649138      1.47642060606203      0.19557477156905
  H   0.38305916275744      0.80577786314191      1.56041786279304
  C   -1.38920477476204     -1.14839772542246      0.58021083963810
  H   -0.74440159842458     -2.00568896755147      0.39429174333134
  H   -2.38338816575978     -1.31958652078172      0.16384291134863
  H   -1.47792149644895     -0.99895994471497      1.65687815112386
  N   -0.68296911496867     -0.20793226181864     -1.55322686770895
  O   -1.54744753591291      0.20248017417843     -2.30457796304762
  O   0.25343274433165     -0.94430696461322     -1.85338440669969
  N   1.20901167388837      1.63333916537429     -0.14708298521649
  O   0.88301532644915      1.89599092321044     -1.30041358645164
  O   2.07065138344782      2.20812782480503      0.51318921727065
  N   1.46951979074773     -0.67506976972976      0.64795801062005
  H   1.74968385585158     -1.00605400523738     -0.26518902032908
  H   2.27464566164309     -0.43140965307560      1.20961461516661
