18

C	-0.529901	-0.015132	-1.442003
C	0.0	0.0	0.0
Cl	0.085043	1.63818	-2.142433
H	1.094355	0.0	0.0
C	0.108429	-1.055315	-2.333837
H	1.189094	-1.013611	-2.181112
H	-0.26482	-2.04132	-2.058831
H	-0.148389	-0.851656	-3.378759
N	-1.937836	-0.057125	-1.448073
H	-2.320703	0.108244	-2.370948
H	-2.282023	0.62564	-0.781297
N	-0.41158	-1.29328	0.629761
O	0.140972	-2.31413	0.213693
O	-1.251647	-1.291114	1.54002
N	-0.654071	1.089245	0.719114
H	-0.768135	0.804862	1.683349
H	0.011512	1.859717	0.699191
F	2.575799	0.0	0.0
