18

C	-0.289664	0.056145	-1.490631
C	0.0	0.0	0.0
Cl	-2.123511	0.701212	-1.75609
H	1.090924	0.0	0.0
C	0.606781	1.129765	-2.081085
H	0.541205	1.125692	-3.172559
H	1.617757	0.884791	-1.730429
H	0.326937	2.118247	-1.721356
N	-0.108453	-1.152637	-2.163211
H	-0.195496	-1.042269	-3.162827
H	-0.708624	-1.879101	-1.803065
N	-0.520703	-1.217968	0.705231
O	-1.260307	-2.020676	0.117251
O	-0.170688	-1.353933	1.870342
N	-0.38462	1.153535	0.758262
H	0.438101	1.714184	0.925915
H	-1.110506	1.687405	0.303782
F	2.593999	0.0	0.0
