18

C	-0.135208	-0.061029	-1.52092
C	0.0	0.0	0.0
Cl	-1.881033	-0.290207	-2.050429
H	1.093385	0.0	0.0
C	0.345537	1.271696	-2.074811
H	-0.273956	2.103638	-1.748222
H	0.365231	1.224547	-3.167637
H	1.360593	1.387924	-1.684637
N	0.650238	-1.177153	-1.978575
H	0.845564	-1.049753	-2.965524
H	1.534782	-1.104565	-1.459373
N	-0.493085	-1.280111	0.630581
O	-1.586499	-1.245361	1.210487
O	0.213823	-2.280171	0.559391
N	-0.595638	1.154659	0.58016
H	-1.584028	0.987569	0.727086
H	-0.16101	1.326211	1.477648
F	2.630786	0.0	0.0
