16

C	-0.434409	0.008881	-1.467378
C	0.0	0.0	0.0
Br	0.675138	1.240389	-2.562959
H	1.091916	0.0	0.0
C	-0.173651	-1.315476	-2.034148
N	-0.061155	-2.368253	-2.545287
C	-1.902322	0.366487	-1.691264
H	-2.081864	1.38204	-1.345277
H	-2.141325	0.296108	-2.754539
H	-2.527891	-0.336194	-1.132202
C	-0.433975	-1.200942	0.674684
N	-0.740711	-2.21535	1.188878
N	-0.387645	1.162251	0.756118
O	-0.389227	1.051492	1.995452
O	-0.520695	2.240292	0.148696
H	2.312254	0.0	0.0
