16

C	-0.311736	0.005826	-1.483042
C	0.0	0.0	0.0
Br	-2.270986	0.170847	-1.821925
H	1.095248	0.0	0.0
C	0.317493	1.115448	-2.203189
N	0.761966	1.903753	-2.954428
C	0.187544	-1.302213	-2.089318
H	-0.361498	-2.147483	-1.674404
H	0.067095	-1.285721	-3.173074
H	1.249277	-1.387261	-1.829139
C	-0.47367	-1.187048	0.667392
N	-0.776632	-2.204574	1.175123
N	-0.391142	1.195925	0.723339
O	-0.582961	1.093447	1.941325
O	-0.368594	2.262635	0.096093
H	2.3757	0.0	0.0
