16

C	-0.321242	-0.001906	-1.47923
C	0.0	0.0	0.0
Br	-2.283493	0.142943	-1.812288
H	1.09523	0.0	0.0
C	0.298648	1.10839	-2.206121
N	0.748861	1.89945	-2.951037
C	0.185093	-1.309423	-2.081798
H	-0.360373	-2.156156	-1.664984
H	1.24708	-1.387937	-1.819686
H	0.066389	-1.296406	-3.165823
C	-0.462376	-1.186018	0.677044
N	-0.756445	-2.202589	1.192636
N	-0.384725	1.198002	0.724317
O	-0.497142	1.105591	1.953312
O	-0.43257	2.256416	0.085089
H	2.372048	0.0	0.0
