16

C	-0.426459	-0.248302	-1.44508
C	0.0	0.0	0.0
Br	0.437538	1.046266	-2.674478
H	1.109448	0.0	0.0
C	0.109305	-1.550147	-1.854133
N	0.458191	-2.611928	-2.220364
C	-1.934191	-0.224683	-1.67796
H	-2.155985	-0.419688	-2.729171
H	-2.394122	-1.004749	-1.064339
H	-2.324683	0.750004	-1.394315
C	-0.370652	-1.107653	0.848213
N	-0.631734	-2.05541	1.496982
N	-0.434053	1.233848	0.594106
O	-0.874772	2.147635	-0.131567
O	-0.187018	1.359624	1.806806
H	2.302637	0.0	0.0
