16

C	-0.424025	0.223304	-1.451086
C	0.0	0.0	0.0
Br	0.418186	1.850359	-2.20887
H	1.110241	0.0	0.0
C	0.124407	-0.876231	-2.254358
N	0.486535	-1.750878	-2.952336
C	-1.932596	0.302441	-1.663658
H	-2.158953	0.435912	-2.723053
H	-2.329982	1.141107	-1.094333
H	-2.382782	-0.632077	-1.315075
C	-0.362487	-1.329956	0.431703
N	-0.616051	-2.4434	0.720954
N	-0.451793	0.963157	0.960839
O	-0.863318	2.074616	0.573129
O	-0.254398	0.666594	2.154195
H	2.302404	0.0	0.0
