16

C	-0.335806	-0.013349	-1.473479
C	0.0	0.0	0.0
Br	-2.305104	0.113615	-1.793935
H	1.104096	0.0	0.0
C	0.268597	1.099739	-2.207547
N	0.758956	1.886614	-2.930917
C	0.176576	-1.318185	-2.077246
H	1.242851	-1.384112	-1.831424
H	-0.352563	-2.168912	-1.647549
H	0.039966	-1.312133	-3.159456
C	-0.443928	-1.18342	0.692139
N	-0.732593	-2.20181	1.207236
N	-0.375784	1.198104	0.723823
O	-0.487182	2.246246	0.075387
O	-0.412983	1.121062	1.958718
H	2.358155	0.0	0.0
