12

C	0.0	0.0	0.0
C	-0.523681	0.012611	-1.42667
Br	1.953735	0.0	0.0
H	-1.629983	-0.032817	-1.280729
H	-0.257435	-0.974124	0.432057
H	-0.188052	-0.874086	-1.970987
N	-0.535575	1.130159	0.690697
H	-0.317992	1.052604	1.679518
H	-1.566135	0.983329	0.591554
C	-0.15472	1.205135	-2.174959
N	0.106598	2.145884	-2.82792
H	-3.021146	0.0	0.0
