12

C	0.0	0.0	0.0
C	-0.656169	-0.056634	-1.349224
Br	2.01097	0.0	0.0
H	-0.531709	0.88429	-1.892993
H	-0.270676	-0.888312	0.568847
H	-1.785741	-0.110596	-0.981578
N	-0.441049	1.155624	0.68729
H	0.051392	1.983658	0.391736
H	-0.409863	1.049171	1.688494
C	-0.266206	-1.19003	-2.159996
N	0.008969	-2.132433	-2.809222
H	-3.071192	0.0	0.0
