12

C	0.0	0.0	0.0
C	-0.542486	-0.04948	-1.419175
Br	1.948969	0.0	0.0
H	-1.647773	-0.103713	-1.241593
H	-0.246256	-0.944227	0.498447
H	-0.303779	0.885265	-1.930639
N	-0.553425	1.166768	0.622979
H	-1.583897	0.989211	0.518648
H	-0.357501	1.126737	1.620636
C	-0.092012	-1.189069	-2.199905
N	0.251753	-2.110531	-2.840238
H	-3.004914	0.0	0.0
