15

C	0.0	0.0	0.0
C	-0.506258	0.364993	-1.461034
Br	1.954276	0.0	0.0
H	0.368969	0.776165	-1.973861
H	-0.330836	-0.991253	0.313482
C	-0.400368	0.99598	0.985556
N	-0.618712	1.864598	1.746241
N	-1.563198	1.336175	-1.548425
H	-2.416818	0.983284	-1.102627
H	-1.300019	2.196781	-1.08333
C	-0.942356	-0.925102	-2.139602
H	-0.16128	-1.689383	-2.084017
H	-1.851523	-1.29023	-1.654876
H	-1.170321	-0.721896	-3.18711
Cl	-4.030969	0.0	0.0
