15

C	0.0	0.0	0.0
C	-0.592627	-0.127418	-1.399881
Br	1.960385	0.0	0.0
H	-1.671193	-0.162515	-1.188064
H	-0.299768	-0.872564	0.579738
C	-0.390611	1.229324	0.686508
N	-0.605618	2.249112	1.228935
N	-0.191455	-1.421384	-1.946145
H	0.655474	-1.32011	-2.495119
H	-0.926414	-1.754763	-2.557453
C	-0.297284	1.066796	-2.295979
H	-0.651012	1.997506	-1.846258
H	-0.820194	0.933963	-3.246443
H	0.775061	1.157447	-2.499294
Cl	-3.666628	0.0	0.0
