15

C	0.0	0.0	0.0
C	-0.518545	-0.443429	-1.431668
Br	1.939343	0.0	0.0
H	0.352516	-0.357757	-2.08929
H	-0.333986	-0.676366	0.787731
C	-0.394132	1.365688	0.322334
N	-0.644997	2.491602	0.544228
N	-1.578833	0.340373	-2.00319
H	-2.435917	0.266868	-1.443568
H	-1.324749	1.319865	-2.053772
C	-0.952412	-1.899597	-1.340794
H	-1.856779	-1.961645	-0.729705
H	-0.165166	-2.523509	-0.905585
H	-1.190418	-2.267627	-2.340244
Cl	-4.085802	0.0	0.0
