15

C	0.0	0.0	0.0
C	-0.498048	0.058332	-1.506032
Br	1.957056	0.0	0.0
H	0.372674	0.393516	-2.079021
H	-0.333389	-0.902388	0.513897
C	-0.398844	1.181206	0.749497
N	-0.622727	2.187099	1.314007
N	-1.580871	0.959013	-1.790588
H	-2.428641	0.689934	-1.277952
H	-1.337286	1.906916	-1.533662
C	-0.875821	-1.354026	-1.926468
H	-1.067823	-1.372354	-3.000336
H	-0.073378	-2.063547	-1.696247
H	-1.790035	-1.650264	-1.406287
Cl	-4.048522	0.0	0.0
