12

C	0.0	0.0	0.0
C	-0.29304	-0.165162	-1.527584
Cl	1.788124	0.0	0.0
H	0.176931	0.682215	-2.034991
H	-1.37742	-0.126785	-1.648012
C	-0.716957	1.207204	0.456622
N	-0.699126	2.337213	0.833389
C	-0.477271	-1.163418	0.758738
N	-0.522471	-2.160484	1.390144
C	0.221637	-1.408772	-2.08608
N	0.596916	-2.40011	-2.592451
H	-2.144078	0.0	0.0
