12

C	0.0	0.0	0.0
C	-0.314053	0.006259	-1.525642
Cl	1.788078	0.0	0.0
H	-1.404719	0.08896	-1.595783
H	0.177567	0.879716	-1.963604
C	-0.448662	1.270433	0.621632
N	-0.658913	2.224888	1.288537
C	-0.574896	-1.144239	0.717935
N	-0.651912	-2.047863	1.479881
C	0.148111	-1.202401	-2.191638
N	0.477514	-2.161556	-2.777728
H	-2.232939	0.0	0.0
