12

C	0.0	0.0	0.0
C	-0.2949	-0.043474	-1.533978
Cl	1.788229	0.0	0.0
H	0.177975	-0.947581	-1.927772
H	-1.379426	-0.100836	-1.64507
C	-0.509981	1.23437	0.606657
N	-0.545022	2.29485	1.126477
C	-0.652034	-1.167456	0.615439
N	-0.629001	-2.246685	1.113271
C	0.213521	1.119471	-2.251588
N	0.582447	2.036357	-2.886419
H	-2.154564	0.0	0.0
