12

C	0.0	0.0	0.0
C	-0.338565	0.029214	-1.528665
Cl	1.788202	0.0	0.0
H	0.028177	-0.898397	-1.989743
H	-1.439118	0.018491	-1.536093
C	-0.564599	1.128548	0.757491
N	-0.647189	2.033673	1.517316
C	-0.569297	-1.233154	0.57051
N	-0.584639	-2.305439	1.074184
C	0.196473	1.185526	-2.230004
N	0.56216	2.125369	-2.830758
H	-2.16061	0.0	0.0
