12

C	0.0	0.0	0.0
C	-0.326249	-0.019047	-1.517384
Cl	1.788231	0.0	0.0
H	0.172425	-0.883625	-1.960291
H	-1.414802	-0.112275	-1.568896
C	-0.568243	1.145435	0.695314
N	-0.69072	2.014979	1.484213
C	-0.443529	-1.219706	0.678198
N	-0.623953	-2.163386	1.361606
C	0.142043	1.187441	-2.192474
N	0.519887	2.10551	-2.816212
H	-2.256234	0.0	0.0
