12
Coordinates from ORCA-job run
  C   1.04280619381572      0.01884485779051      0.20899677802840
  C   -0.37842955312017      0.08340883662795     -0.38947979809291
  Cl  2.25240275425867      0.08302875113685     -1.09178215346331
  H   -0.42243914428851      0.97673950055118     -1.01968525110632
  H   1.17133471460671     -0.93844798238066      0.72140660112626
  C   1.27054016319739      1.10954515989070      1.15198916372788
  N   1.43672711042426      1.99459769028926      1.90608813060258
  C   -1.35554585530761      0.23884876332037      0.70638517644011
  N   -2.16329996373205      0.29297830697077      1.55851673538103
  N   -0.61447490566127     -1.08205128366347     -1.21705924756146
  H   -1.35417599435785     -0.90216697255526     -1.88283849514983
  H   -0.88644551983529     -1.87632562797820     -0.65053763993243
