12
Coordinates from ORCA-job run
  C   0.79007297548288      0.68248679767769      0.26006147429017
  C   -0.30291607819763     -0.10618743840072     -0.47961432190035
  Cl  0.20547933159455      1.21539869318780      1.85916180828173
  H   0.13493260946497     -0.41332449572315     -1.43636926441575
  H   1.03371842387790      1.58911091565185     -0.29909584432717
  C   1.98914493945611     -0.13744066880987      0.40045310208796
  N   2.97024181954940     -0.77792780228375      0.47143784215738
  C   -1.43719887584319      0.79228137764675     -0.78120917011201
  N   -2.37051205577152      1.46563460711380     -1.01708594713044
  N   -0.64314847367138     -1.30118429881883      0.25984104995827
  H   -1.17912198670354     -1.93657786898973     -0.31676631023619
  H   -1.19069262923855     -1.07226981825183      1.08018558134640
