12
Coordinates from ORCA-job run
  C   0.97890300497917     -0.04138063577416      0.31894347758830
  C   -0.41061227606442      0.05880578427754     -0.33655459272204
  Cl  2.22316381729717     -0.18665319496813     -0.95397233665946
  H   -0.41506107371324      0.96172067946418     -0.96594506529805
  H   1.01283571429645     -0.96056624763382      0.90738834848343
  C   1.26475763983210      1.11839586789223      1.15554288918088
  N   1.47882798924616      2.05811321866530      1.82677246829613
  C   -1.40996775978654      0.24114980475052      0.72222966944711
  N   -2.21885917082432      0.37906534836523      1.56170193120039
  N   -0.68703258089549     -1.18265508945071     -1.04533148727007
  H   -0.14742624548462     -1.21262905661286     -1.90188694334608
  H   -1.66852905888240     -1.23336647897533     -1.28888835890053
