12

C	0.0	0.0	0.0
C	-0.499861	-0.203065	-1.426259
Cl	1.783637	0.0	0.0
H	-1.597083	-0.18137	-1.379079
H	-0.284202	1.002495	0.337309
H	-0.171059	-1.188223	-1.766974
N	-0.506937	-1.074826	0.808806
H	-0.275732	-0.889934	1.77899
H	-1.52839	-1.015841	0.728269
C	-0.027819	0.819346	-2.353129
N	0.350189	1.637068	-3.105817
Cl	-3.564121	0.0	0.0
