12

C	0.0	0.0	0.0
C	-0.338179	-0.267842	-1.495972
Cl	1.788109	0.0	0.0
H	-0.392492	-1.359444	-1.604702
H	-0.323569	0.995763	0.297915
H	0.53293	0.073699	-2.07679
N	-0.521267	-1.055482	0.828965
H	-0.430622	-0.795125	1.805542
H	-1.529877	-1.055218	0.651704
C	-1.479958	0.36152	-2.176811
N	-2.157099	0.877686	-2.985895
Cl	-3.459078	0.0	0.0
