12

C	0.0	0.0	0.0
C	-0.483295	-0.336246	-1.404069
Cl	1.830894	0.0	0.0
H	-0.134971	-1.337813	-1.676539
H	-0.309433	1.006224	0.27308
H	-1.582402	-0.330948	-1.335027
N	-0.511105	-0.932207	0.917949
H	-0.53336	-0.604269	1.86908
H	-0.085377	-1.843079	0.841885
C	-0.012216	0.612146	-2.40844
N	0.365626	1.36744	-3.223649
Cl	-3.677695	0.0	0.0
