12

C	0.0	0.0	0.0
C	-0.470295	0.224017	-1.44532
Cl	1.789105	0.0	0.0
H	-1.567876	0.191463	-1.41591
H	-0.317083	0.846331	0.609257
H	-0.098993	-0.593303	-2.072243
N	-0.5027	-1.197588	0.603387
H	-1.516732	-1.064732	0.670367
H	-0.332794	-1.983492	-0.016298
C	-0.032769	1.494779	-2.012571
N	0.308148	2.52015	-2.47158
Cl	-3.541535	0.0	0.0
