12

C	0.0	0.0	0.0
C	-0.368287	0.03685	-1.54684
Cl	1.84235	0.0	0.0
H	0.285009	0.827927	-1.943442
H	-0.36225	0.874964	0.535757
H	0.109189	-0.875201	-1.93995
N	-0.283786	-1.169361	0.695649
H	-0.154601	-1.125578	1.691419
H	0.106146	-2.01856	0.309091
C	-1.592642	0.187249	-2.349495
N	-2.421133	0.454915	-3.093438
Cl	-3.118688	0.0	0.0
