12

C	0.0	0.0	0.0
C	-0.240503	0.01542	-1.532794
Cl	1.787378	0.0	0.0
H	0.383347	0.817435	-1.937486
H	-0.312184	0.942834	0.458305
H	0.192039	-0.924291	-1.889901
N	-0.517504	-1.19291	0.593338
H	-1.535021	-1.124768	0.445092
H	-0.376468	-1.143774	1.597976
C	-1.529553	0.171588	-2.216805
N	-2.293	0.300796	-3.102084
Cl	-3.44648	0.0	0.0
