12
Coordinates from ORCA-job run
  C   0.42221926506120      0.06168186204988     -0.51186920846123
  C   -1.09241153186245      0.12272732782994     -0.25355931541527
  H   0.56666239573614      0.12341257379175     -1.60208063508675
  H   -1.51483087610441      1.02003770403580     -0.71453296015391
  H   -1.56537995214735     -0.74285567048370     -0.72885888621511
  N   0.96556403056500     -1.14563249247515      0.09620629018407
  H   1.97742812304096     -1.14344762589807      0.05619603292660
  H   0.63257069957691     -1.95997022287134     -0.40687738587710
  C   1.08031298429953      1.23854916795044      0.07044787717499
  N   1.61566314952181      2.18600617083561      0.50984470942262
  C   -1.40661212953651      0.11444582968897      1.17363777630324
  N   -1.68318615815084      0.12604537554587      2.31344570519784
