15

C	0.0	0.0	0.0
C	-0.38678	-0.384449	-1.461682
Br	1.980427	0.0	0.0
H	0.504305	-0.546306	-2.070527
H	-0.274285	1.033348	0.188994
N	-0.506545	-0.83556	1.027826
H	-1.474979	-0.550588	1.189309
H	-0.529527	-1.790829	0.686643
N	-0.99023	0.850156	-2.189429
O	-0.691674	1.972654	-1.794194
O	-1.629235	0.605242	-3.207805
N	-1.205954	-1.536122	-1.523683
H	-2.111866	-1.318015	-1.095939
H	-1.359493	-1.787322	-2.491674
Br	-3.721665	0.0	0.0
