15

C	0.0	0.0	0.0
C	-0.461791	-0.148571	-1.453025
Br	2.021205	0.0	0.0
H	-1.553806	-0.263814	-1.378226
H	-0.265711	1.020517	0.273268
N	-0.478518	-0.901866	0.978701
H	-1.464194	-0.67078	1.124547
H	-0.436158	-1.848376	0.621716
N	0.050222	-1.46293	-2.05096
O	0.672347	-1.410935	-3.110069
O	-0.203719	-2.502477	-1.443824
N	-0.12115	0.980268	-2.23942
H	-0.630803	0.969004	-3.111826
H	0.870816	0.988868	-2.439757
Br	-3.667343	0.0	0.0
