14

C	0.0	0.0	0.0
C	-0.474301	-0.133921	-1.445501
Br	2.018718	0.0	0.0
H	-0.192957	-1.098663	-1.860848
H	-1.569044	0.008571	-1.42677
N	-0.522608	1.106095	0.643004
H	-0.327704	1.174849	1.628065
H	-0.436227	1.970451	0.130218
C	-0.314574	-1.232086	0.7298
N	-0.498352	-2.231796	1.318661
N	0.136083	0.89143	-2.32859
O	0.095895	2.065351	-1.959206
O	0.6225	0.508926	-3.389823
Cl	-3.556046	0.0	0.0
