14

C	0.0	0.0	0.0
C	-0.50694	-0.015661	-1.446728
Br	1.946011	0.0	0.0
H	-0.200522	-0.932603	-1.94378
H	-1.598983	0.080562	-1.400289
N	-0.499497	1.126217	0.718414
H	-0.288821	1.017519	1.704394
H	-1.521743	1.105915	0.605035
C	-0.33856	-1.317044	0.587487
N	-0.540589	-2.356268	1.099904
N	0.042043	1.102912	-2.254615
O	-0.359039	2.236743	-2.010621
O	0.856104	0.81023	-3.134814
Cl	-3.49427	0.0	0.0
