14

C	0.0	0.0	0.0
C	-0.537258	0.065031	-1.422171
Br	2.032931	0.0	0.0
H	-0.239061	-0.805812	-1.999817
H	-1.639063	0.130062	-1.305259
N	-0.520355	0.975559	0.822754
H	-0.552491	1.903803	0.437726
H	-0.316995	0.902607	1.804302
C	-0.28602	-1.340244	0.531589
N	-0.448683	-2.417372	0.971303
N	-0.059739	1.250664	-2.173515
O	0.280669	1.075026	-3.341155
O	-0.070492	2.342675	-1.60389
Cl	-3.615908	0.0	0.0
