14

C	0.0	0.0	0.0
C	-0.477878	-0.143062	-1.459008
Br	1.944745	0.0	0.0
H	-0.181308	-1.097175	-1.889819
H	-1.572228	-0.035197	-1.427687
N	-0.492079	1.109919	0.75679
H	-0.340081	1.950747	0.210612
H	-1.507634	0.964237	0.82341
C	-0.368393	-1.256996	0.673274
N	-0.572311	-2.293602	1.186739
N	0.077071	0.90289	-2.35126
O	0.538627	0.537608	-3.43161
O	0.022017	2.074214	-1.975243
Cl	-3.461729	0.0	0.0
