14

C	0.0	0.0	0.0
C	-0.535525	-0.125158	-1.416348
Br	2.007896	0.0	0.0
H	-0.328393	0.785363	-1.976378
H	-1.626855	-0.275413	-1.303633
N	-0.502577	1.195668	0.530246
H	-0.537109	1.241898	1.534877
H	-0.137317	2.029461	0.097317
C	-0.354498	-1.120432	0.876752
N	-0.553861	-1.965065	1.668847
N	0.051348	-1.243125	-2.189331
O	0.38477	-1.009738	-3.352119
O	0.134424	-2.335445	-1.632077
Cl	-3.61475	0.0	0.0
