14

C	0.0	0.0	0.0
C	-0.484673	0.249296	-1.428196
Br	1.962955	0.0	0.0
H	-0.233247	1.266754	-1.724483
H	-1.57551	0.101341	-1.409952
N	-0.488024	0.994623	0.91464
H	-1.50953	0.864316	0.944404
H	-0.297556	1.91585	0.531917
C	-0.36979	-1.326966	0.515048
N	-0.581267	-2.385646	0.977758
N	0.101078	-0.638481	-2.462775
O	0.136665	-1.843613	-2.227763
O	0.485611	-0.105948	-3.504996
Cl	-3.455064	0.0	0.0
