13
Coordinates from ORCA-job run
  C   0.67968660809338     -0.14088426832118      0.26785772254412
  C   -0.73848660380340      0.45788953106834      0.37984434145540
  H   1.27344913694561      0.17165490066289      1.13376697382933
  H   -1.17898167248803      0.08999376851335      1.31255815511321
  C   1.34635165910276      0.24086175162730     -0.96795633300109
  N   1.86699103916121      0.59702056987822     -1.95904125050476
  N   0.59110198425855     -1.66215047703705      0.37818190205865
  O   -0.27573744805170     -2.08553946862331      1.13207720322815
  O   1.42082666873060     -2.31058716431759     -0.23959860235939
  C   -1.57417258913217      0.01018820310243     -0.73820392547164
  N   -2.22823705681597     -0.37345424697611     -1.63466846015326
  C   -0.64415719138388      1.91923122812892      0.43260941464417
  N   -0.53863453461696      3.08677567229380      0.50257285861712
