13
Coordinates from ORCA-job run
  C   0.78349997996995      0.01708954504134      0.00162714748778
  C   -0.53311849742001      0.81615988525186     -0.04956869641589
  H   1.50521517035337      0.53158321710834      0.64414703763820
  H   -0.29483071067816      1.76743227598208     -0.54480871403179
  C   1.34581516611690     -0.16674811150230     -1.33036835489684
  N   1.77775411945411     -0.27390867642730     -2.41757172961686
  N   0.59361531803931     -1.35326910632093      0.64664230196622
  O   -0.52035239380084     -1.62340766630807      1.07368650528700
  O   1.60325808514379     -2.03943373199703      0.69444138721318
  C   -1.01021712941945      1.12789664017678      1.30156798973657
  N   -1.34684826222334      1.43187551920758      2.38427355112294
  C   -1.55133952112379      0.13803039603917     -0.85747014877627
  N   -2.35145132441185     -0.37230018625152     -1.54859827671424
