13
Coordinates from ORCA-job run
  C   0.57877028707428     -0.21437341694544      0.28160078843677
  C   -0.67850186713203      0.53027428017246     -0.21740246495632
  H   0.59508581359861     -0.28059120634481      1.37143954386552
  H   -0.67474378156926      0.50141996391780     -1.31283437216184
  C   1.79551668201026      0.40837637773296     -0.22449134135546
  N   2.76921931136577      0.91725665844032     -0.64114817131412
  N   0.52300438628684     -1.64605211186767     -0.22798056423917
  O   0.86965397956478     -2.51100057080126      0.56380103195936
  O   0.15433850236493     -1.79168539322198     -1.38638759118925
  C   -0.63869060582519      1.92150008089474      0.24014437251033
  N   -0.58128094780053      3.03296951692224      0.61476717431089
  C   -1.88258393403771     -0.15085320097321      0.26937911347061
  N   -2.83078782590076     -0.71724097792615      0.66811248066267
