13
Coordinates from ORCA-job run
  C   0.67192781111992     -0.15367554877088      0.30877373742976
  C   -0.73225828755809      0.49017725369320      0.32709399270769
  H   1.21799147312367      0.15450943138288      1.20603624322309
  H   -1.22781742999633      0.15772710356683      1.24605298583945
  C   1.42184978720360      0.17880851064488     -0.89223770334521
  N   2.01843629326639      0.49156976996282     -1.85482303486687
  N   0.49752977575163     -1.66358285921082      0.44551593176925
  O   -0.24318928915483     -2.00664216622083      1.35884534392750
  O   1.11540551961226     -2.38357264150649     -0.32320760514164
  C   -1.51926565732208      0.03281105742860     -0.82218455509387
  N   -2.13987883533629     -0.36424656367218     -1.73673365129718
  C   -0.60443897061282      1.94931126747403      0.34743459607558
  N   -0.47629219009702      3.11580538522796      0.39043371877246
