13
Coordinates from ORCA-job run
  C   0.67581115385997      0.04283932046818     -0.01792172797272
  C   -0.85555884671372      0.18768361656190     -0.15034800882110
  H   1.12193255497764      0.93229207669537      0.43190074149475
  H   -1.25205517268048     -0.76112319128448     -0.52860571189854
  C   1.29061572721268     -0.25915925758412     -1.30465634340593
  N   1.77268075197855     -0.50627816435307     -2.34733835791291
  N   0.97159425005058     -1.10535014469043      0.93473993167009
  O   0.26789209297893     -2.10050458773815      0.81618758056269
  O   1.90059912408625     -0.93153646857117      1.71095397392497
  C   -1.16892040799175      1.26430274148613     -1.09314365960296
  N   -1.39938271150163      2.12641473032460     -1.85650325340440
  C   -1.44113698864526      0.45302482118707      1.16770700161782
  N   -1.88307152761176      0.65839450749817      2.23602783374825
