12
Coordinates from ORCA-job run
  C   0.30720581087794      0.49459056910307      0.46707872735878
  C   -0.24095025360923     -0.51816857981244     -0.51829254505748
  Br  -1.13480672243349      1.70473775417636      1.03199306244317
  H   0.61129870282963     -1.11715457661672     -0.86268534464015
  H   0.58689947906197     -0.01812375800079      1.39314243685404
  H   -0.63272369969561      0.03235040379467     -1.38399570022689
  N   1.33486102711623      1.29493509322660     -0.15537626719728
  H   2.08888556703543      0.68610643485902     -0.45567316876059
  H   1.71237306176660      1.96400571838876      0.50417791498341
  N   -1.18196424627544     -1.41802869340227      0.13529147739628
  H   -1.40863983193836     -2.18481842608247     -0.48485170349360
  H   -2.04243889473566     -0.92043193963378      0.32919111034031
