12
Coordinates from ORCA-job run
  C   0.56219208684967      0.27277529535025      0.69129118373953
  C   -0.16259903159855     -0.91153190720347      0.07774986128530
  Br  -0.87162189866744      1.33856593133559      1.73649280138495
  H   -0.67611048647994     -1.47131328149924      0.86766716758119
  H   1.22519683598306     -0.02052048937439      1.50343800067690
  H   0.61073944199285     -1.55363161853516     -0.35583825461838
  N   1.22349179063393      1.01424678198528     -0.28588525045013
  H   1.66180565122170      1.85578217777215      0.05765524885556
  H   0.60870791440636      1.19648362113168     -1.06932887900246
  N   -1.02743360655683     -0.44375240484069     -1.00035020311552
  H   -1.88161575182799     -0.06636811256721     -0.60905104065099
  H   -1.27275294595684     -1.20973599355481     -1.61284063568595
