12
Coordinates from ORCA-job run
  C   0.62961312272429      0.15375725733917      0.40115070907997
  C   -0.62548333470926     -0.70313894666072      0.26718472667127
  Br  1.04381414316875      0.31834513574630      2.37673853161688
  H   -0.50093972566886     -1.62284617864366      0.84072352498560
  H   1.50504688776736     -0.36647695637480      0.01093693918894
  H   -1.46482112633673     -0.15985198183096      0.71454885751532
  N   0.47886723940599      1.39806559561025     -0.25366194943638
  H   1.33348015172582      1.93799898372215     -0.26165221883150
  H   -0.25711961395276      1.95089099851485      0.16861293558004
  N   -0.95301629850863     -1.03843294181405     -1.10919264246503
  H   -0.25948448847762     -1.67266486160221     -1.48652736437684
  H   -0.92995695713836     -0.19564610400631     -1.66986204952826
