12
Coordinates from ORCA-job run
  C   0.46186386717807      0.32665682234271      0.59560677690344
  C   -0.31937341059754     -0.35234932102224     -0.51958955871919
  Br  -0.82531355764091      1.31172095042532      1.72746756889273
  H   -0.80302864748216      0.43079390133846     -1.12590821734492
  H   0.88447654779283     -0.43256359015747      1.25439768839507
  H   0.42555661506972     -0.84767119704875     -1.15322364588967
  N   1.49159089248762      1.23290370697807      0.18005402869720
  H   1.17564858466127      1.82674207289415     -0.57642494878531
  H   2.31605851068666      0.72211281575464     -0.10898088112557
  N   -1.21724313884534     -1.37082208552054      0.00336837181338
  H   -1.99192886131946     -0.92692637705877      0.48068706370984
  H   -1.59730740199077     -1.92059769892559     -0.75645424654700
