12
Coordinates from ORCA-job run
  C   0.64691772118175      0.17640833087974      0.64662746770392
  C   -0.21310463082383     -0.90393850555024      0.01683144079724
  Br  -0.59948525451602      1.21958661097234      1.93030351943051
  H   0.46768102362814     -1.54766665587337     -0.54921709417884
  H   1.36900681215882     -0.22644980445526      1.35465977632334
  H   -0.67994258981138     -1.50268347476673      0.80702581926655
  N   1.25043951965126      0.96709298331641     -0.32844911527475
  H   1.77823137913486      1.74574712971187      0.03652414113694
  H   0.57249297443105      1.25514890460927     -1.02278548193745
  N   -1.15101163692926     -0.29162018952940     -0.91849601898211
  H   -1.50585262207198     -0.98316458789306     -1.56495800516111
  H   -1.93537269603340      0.09353925857844     -0.40706644912425
