17

C	0.0	0.0	0.0
C	-0.525251	-0.030287	-1.482793
Br	1.970086	0.0	0.0
H	0.031098	-0.824439	-2.008817
N	-0.484142	1.172806	0.726439
H	-0.149278	1.146549	1.696585
H	-0.071605	2.006963	0.281503
N	-0.474359	-1.15881	0.783532
O	-1.771416	-1.108902	1.038876
O	0.215047	-1.388534	1.790026
N	-0.22851	1.280183	-2.212079
O	1.070227	1.435992	-2.340576
O	-0.880406	1.292944	-3.36257
N	-1.937708	-0.349709	-1.53796
O	-2.659257	0.779907	-1.22263
O	-2.251485	-0.865604	-2.757262
H	-1.659894	0.0	0.0
