18

C	-0.304382	0.008108	-1.481714
C	0.0	0.0	0.0
Cl	-2.10895	0.004057	-1.837671
H	1.099959	0.0	0.0
H	0.040644	-0.93956	-1.903316
C	0.349545	1.153839	-2.22407
H	1.411321	1.143576	-1.950005
H	-0.087614	2.112916	-1.940329
H	0.241736	1.03449	-3.305055
C	-0.479118	-1.270318	0.68486
H	-1.572436	-1.321651	0.740738
H	-0.074613	-1.314945	1.700595
H	-0.117383	-2.155898	0.152443
C	-0.468073	1.245661	0.737715
H	-0.004499	2.148148	0.332954
H	-0.162686	1.177092	1.786109
H	-1.557252	1.361006	0.701624
H	2.998433	0.0	0.0
