16

C	-0.535998	-0.06673	-1.437246
C	0.0	0.0	0.0
F	-0.071973	-1.234696	-2.029312
H	1.100218	0.0	0.0
C	-2.053531	-0.080091	-1.504733
H	-2.425541	-0.963527	-0.980891
H	-2.453232	0.823294	-1.042438
H	-2.374024	-0.123869	-2.547163
C	-0.021889	1.080543	-2.208461
N	0.312913	1.98259	-2.880988
C	-0.469465	-1.175187	0.739886
N	-0.91656	-2.067583	1.360308
N	-0.434623	1.259907	0.608297
H	-1.150837	1.11033	1.307422
H	0.370604	1.684982	1.053143
Cl	3.262128	0.0	0.0
