16

C	-0.440031	0.048305	-1.465842
C	0.0	0.0	0.0
F	-1.834523	0.215126	-1.507375
H	1.095248	0.0	0.0
C	0.217861	1.198828	-2.193716
H	1.302627	1.077894	-2.144182
H	-0.062973	2.119497	-1.684842
H	-0.117527	1.221204	-3.232583
C	-0.155063	-1.230579	-2.139533
N	0.064051	-2.252899	-2.673471
C	-0.508895	-1.210417	0.661442
N	-0.938628	-2.130515	1.253043
N	-0.429187	1.227242	0.659269
H	0.1895	1.402219	1.440138
H	-1.377179	1.136999	1.000097
Cl	3.288789	0.0	0.0
