16

C	-0.381602	-0.004156	-1.498015
C	0.0	0.0	0.0
F	0.055029	1.21283	-2.018887
H	1.097036	0.0	0.0
C	0.292684	-1.126107	-2.256893
H	0.105026	-1.011594	-3.326431
H	-0.086003	-2.094733	-1.926096
H	1.36484	-1.065057	-2.052964
C	-1.851255	-0.016167	-1.654077
N	-3.022473	-0.032313	-1.74829
C	-0.487465	-1.239455	0.609617
N	-0.905573	-2.240011	1.061133
N	-0.46746	1.148676	0.74888
H	0.060328	1.958758	0.445552
H	-1.457118	1.313105	0.588146
Cl	3.313032	0.0	0.0
