17

C	0.0	0.0	0.0
C	-0.560109	0.281951	-1.411663
Br	1.960293	0.0	0.0
H	-1.666159	0.255598	-1.269253
C	-0.463886	1.094206	0.950336
H	-0.082996	2.072402	0.64913
H	-1.55869	1.101767	0.948468
H	-0.106774	0.878327	1.959633
C	-0.467931	-1.372208	0.460008
H	-0.098914	-2.162157	-0.197776
H	-0.102524	-1.564569	1.470912
H	-1.562714	-1.371012	0.463594
C	-0.18662	-0.745256	-2.385753
N	0.097764	-1.572386	-3.169738
C	-0.182489	1.602549	-1.919389
N	0.111843	2.667315	-2.318674
Br	-3.854854	0.0	0.0
