17

C	0.0	0.0	0.0
C	-0.561959	0.335245	-1.399611
Br	1.960302	0.0	0.0
H	-1.667612	0.298569	-1.260358
C	-0.465499	1.059597	0.98771
H	-1.560293	1.081504	0.973447
H	-0.070852	2.045455	0.731611
H	-0.123528	0.798316	1.991431
C	-0.469186	-1.387095	0.409176
H	-0.108655	-2.147277	-0.286593
H	-1.564518	-1.384465	0.424737
H	-0.094024	-1.622547	1.407324
C	-0.186055	-0.652436	-2.412638
N	0.096679	-1.444039	-3.233648
C	-0.188709	1.67464	-1.856649
N	0.095415	2.750515	-2.23214
Br	-3.861306	0.0	0.0
