16

C	-0.383049	0.054805	-1.463713
C	0.0	0.0	0.0
Br	0.137554	-1.823712	-2.258858
H	1.096592	0.0	0.0
H	-0.351266	0.959034	0.408481
N	-1.763021	0.263297	-1.658043
H	-2.261809	-0.368888	-1.040082
H	-2.044166	0.106023	-2.617254
C	0.543216	1.010168	-2.183841
H	0.271633	2.027123	-1.877896
H	1.55914	0.791453	-1.835025
H	0.461649	0.932866	-3.270382
N	-0.712742	-1.078319	0.706633
H	-0.188569	-1.928675	0.524866
H	-0.610218	-0.90083	1.700011
F	2.754779	0.0	0.0
