16

C	-0.371949	0.095452	-1.484908
C	0.0	0.0	0.0
Br	-0.260437	-1.758547	-2.239391
H	1.096072	0.0	0.0
H	-0.45014	-0.883773	0.456411
N	-1.727715	0.550139	-1.66313
H	-1.820332	1.309792	-0.990745
H	-1.840597	0.925515	-2.598285
C	0.706367	0.908471	-2.191797
H	0.602244	0.869467	-3.28082
H	0.588927	1.947656	-1.860839
H	1.68835	0.561017	-1.849731
N	-0.434818	1.251688	0.669723
H	-0.999246	1.030471	1.480568
H	0.412068	1.692728	1.008805
F	2.746262	0.0	0.0
