16

C	-0.0483	0.014412	-1.517766
C	0.0	0.0	0.0
Br	-1.930261	0.295492	-2.198656
H	1.097322	0.0	0.0
H	-0.371145	0.961425	0.38508
N	0.778548	1.10134	-2.020799
H	0.43386	1.965922	-1.607634
H	1.68296	0.916133	-1.554754
C	0.48549	-1.288114	-2.070755
H	0.528384	-1.245886	-3.160778
H	1.495387	-1.368696	-1.650846
H	-0.115088	-2.131448	-1.731103
N	-0.570471	-1.176664	0.634631
H	0.038383	-1.457566	1.391013
H	-1.48262	-0.969866	1.018028
F	2.735755	0.0	0.0
