16

C	-0.404212	0.112965	-1.474412
C	0.0	0.0	0.0
Br	-0.253116	-1.704024	-2.259049
H	1.097473	0.0	0.0
H	-0.44326	-0.886254	0.465899
N	-1.771941	0.553986	-1.733359
H	-2.398737	-0.131948	-1.318253
H	-1.851678	1.392693	-1.156725
C	0.599228	1.012835	-2.17063
H	0.425939	2.033634	-1.81085
H	1.602451	0.711108	-1.851681
H	0.471712	0.994365	-3.254682
N	-0.421891	1.256894	0.669091
H	-1.017377	1.050269	1.461159
H	0.429758	1.666593	1.037948
F	2.736591	0.0	0.0
