16

C	-0.304451	0.010629	-1.498337
C	0.0	0.0	0.0
Br	0.043918	-1.80264	-2.252744
H	1.092986	0.0	0.0
H	-0.337938	0.986204	0.362766
N	-1.715851	0.258623	-1.765694
H	-1.940199	1.15031	-1.332105
H	-1.862129	0.355348	-2.76628
C	0.699441	0.943653	-2.164173
H	0.64736	0.89415	-3.255996
H	1.696268	0.688305	-1.777401
H	0.466261	1.968629	-1.846511
N	-0.607299	-1.050388	0.800264
H	-1.491169	-1.317586	0.37947
H	0.004993	-1.85494	0.747676
F	2.752883	0.0	0.0
