16
Coordinates from ORCA-job run
  C   0.90557487171721      0.18342036767215     -0.01229510202327
  C   -0.58274019426740     -0.18517227556369      0.12003624777388
  Cl  1.66274666653860     -0.64269069682654     -1.40359410842894
  H   -0.91520477854588      0.39530570236175      1.00291868097283
  C   1.03449435558336      1.63311674248308     -0.24743724362718
  N   1.10513004455039      2.80093831877945     -0.36275558078374
  N   1.60116472823665     -0.25320404729685      1.18656226521110
  H   1.30691387201496      0.32620746649032      1.96744914923025
  H   2.60196306988747     -0.13928202222414      1.06954738997385
  N   -0.67951589893590     -1.62027501528384      0.29917735242579
  H   -0.09092726945208     -1.91104538722847      1.07000902210506
  H   -1.63842252754662     -1.87578114876436      0.49781848757380
  C   -1.41346534576042      0.24827442223626     -1.07519442715848
  H   -1.09058959585131     -0.29165336712312     -1.96565639349847
  H   -2.46437665617717      0.00846610539659     -0.89377756950583
  H   -1.34274534199187      1.32337483489138     -1.25180817024068
