16
Coordinates from ORCA-job run
  C   0.96177627969056      0.19821444497380     -0.00820777678920
  C   -0.55081300974152      0.03385571209193      0.25199059850429
  Cl  1.45935264752274     -1.07785908412396     -1.27149029269679
  H   -0.77225874659555      0.82580019361495      0.97647785121064
  C   1.25164854842520      1.48922570600667     -0.63689399428192
  N   1.45571465775724      2.54019924895437     -1.11994881263815
  N   1.65783380521174      0.07095419625302      1.20787916347865
  H   2.66201079379355      0.06863347194983      1.08881228569216
  H   1.33109009018366     -0.76424667679303      1.68212120576065
  N   -0.72930274102345     -1.23943346050233      0.94147930636758
  H   -1.57783711113871     -1.21947108865057      1.49209180230150
  H   -0.81112827660410     -1.98983012429424      0.26500298036385
  C   -1.41351973508665      0.23065807483086     -0.98660635817519
  H   -2.46685694247829      0.20110276298826     -0.69772668646751
  H   -1.23519964646571     -0.56132892762148     -1.71612152100421
  H   -1.22151061345071      1.19252555032191     -1.46785975162635
