16
Coordinates from ORCA-job run
  C   0.88106327454257      0.15112667669614      0.50447725247464
  C   -0.51113632792728     -0.44119483642186      0.18893018479098
  Cl  0.99497203974046      0.55253392864074      2.25184074869775
  H   -0.64853875838625     -1.29164338782132      0.87135813243500
  C   1.88883094151873     -0.90242617298511      0.26205715724531
  N   2.66568336821111     -1.74393599880640     -0.00376125412324
  N   1.08415717938193      1.33862737447770     -0.27127019407820
  H   0.87245950195059      1.10128068271652     -1.23642101172405
  H   2.03963846461838      1.66612531134016     -0.19758756687432
  N   -0.46966389673995     -0.82816135381585     -1.22111085397076
  H   -0.03767780441354     -1.73756083755418     -1.33630783802210
  H   -1.40741455053243     -0.87771403140366     -1.59838897663561
  C   -1.62525105597608      0.56877466723758      0.40725456742967
  H   -1.52957059181019      1.39786922751446     -0.29366653835511
  H   -2.59044440363164      0.07858727685875      0.25224404878388
  H   -1.60710738054641      0.96771147332634      1.42035214192615
