16
Coordinates from ORCA-job run
  C   1.04815696809795     -0.03996792491969      0.35778178798626
  C   -0.46051207087001     -0.39713806916673      0.37018240593231
  Cl  1.89876325948927     -1.19944239844206      1.43113994658366
  H   -0.73970985714054     -0.42824412419803      1.42986031998614
  C   1.54823864953697     -0.21761787525851     -1.01231456885246
  N   1.85839009077108     -0.32923566787745     -2.13965661231119
  N   1.39921179792169      1.28731627700938      0.80361098023968
  H   1.00613023736073      1.46036110061778      1.72190482720688
  H   1.06651605699202      1.98613022707103      0.15067350727367
  N   -0.63247393847861     -1.73268936004590     -0.17635688436907
  H   -0.71462566676638     -1.69580648212019     -1.18600393279096
  H   -1.46757437160903     -2.16731579846359      0.19217582156038
  C   -1.28494343721987      0.67369065682884     -0.34497627104402
  H   -1.21901103318985      1.65264990566944      0.13376995959245
  H   -2.33526480592133      0.37421291931240     -0.34189848903496
  H   -0.96929187897411      0.77109661398327     -1.38889279795878
