16
Coordinates from ORCA-job run
  C   0.94990836429685     -0.03345964052104      0.44241919019376
  C   -0.54079014006185     -0.41526526357076      0.36582148883670
  Cl  1.78838613218939     -1.15359454508229      1.55215533973694
  H   -0.86452477546910     -0.47317108533717      1.40924397510692
  C   1.55376903030587     -0.20150395860801     -0.89431901131222
  N   1.97462037158015     -0.24745386287776     -1.99119442518429
  N   1.10945906421711      1.30287140189208      0.98076439496484
  H   2.08660771192077      1.46807901781362      1.19551681412801
  H   0.82626481770702      1.98522759533241      0.28554451877952
  N   -0.64442159601584     -1.73834600618341     -0.22740601493775
  H   -0.72002627237578     -1.67497865989764     -1.23593630314517
  H   -1.45969125027545     -2.22387791398907      0.12045678288210
  C   -1.35048422978459      0.65861974017541     -0.36003779646267
  H   -2.38870720704114      0.32809870541899     -0.43485361781007
  H   -1.34452997614919      1.61258765938697      0.17029831913955
  H   -0.97584004504422      0.80816681604767     -1.37847365491614
