16
Coordinates from ORCA-job run
  C   0.92396091797648      0.32812118393678      0.05322564763789
  C   -0.55637388684770     -0.06976551185496      0.23197630642358
  Cl  1.62800953240935     -0.71889041956300     -1.31911886541650
  H   -0.90524411377066      0.59682102243245      1.02887663798117
  C   1.04705040390540      1.70819159596751     -0.42193942472327
  N   1.11598704280353      2.82420777729553     -0.78163110530350
  N   1.59989706288163      0.16110200736179      1.27581795787712
  H   1.37971806166126     -0.75851406251375      1.64349180596201
  H   2.59732522756130      0.30749831401037      1.19762655324034
  N   -0.57114097667808     -1.42577571973712      0.77094430444068
  H   -0.52554965939764     -2.09798435083496      0.01359081661195
  H   -1.43009241707392     -1.58590887837726      1.28102448894063
  C   -1.40709407933174      0.14605585363667     -1.01179413180406
  H   -2.45217405531769     -0.06295354546047     -0.77096952701608
  H   -1.09956186138038     -0.52435368504319     -1.81625870004812
  H   -1.34271719940113      1.17414841874360     -1.37586276480383
