16
Coordinates from ORCA-job run
  C   0.97517729603709      0.11196143905475      0.02199538149376
  C   -0.55639596085428      0.11915012166527      0.21046550453779
  Cl  1.40992430110314     -1.37905902155390     -1.00898209905247
  H   -0.73750222495510      1.02665422325806      0.79762633948682
  C   1.41600847100197      1.26222648452005     -0.77044912819403
  N   1.74296116930926      2.20552209867374     -1.38928480791637
  N   1.59759525946478      0.11007466083636      1.28385620409147
  H   1.16955091514027     -0.61190155597697      1.85382580259468
  H   2.60138029718008      0.00163799284932      1.22770839272260
  N   -0.88602985857362     -1.01640796817471      1.06578567489247
  H   -1.00249485013432     -1.85034869338677      0.50132219734289
  H   -1.75675528475339     -0.84254067195597      1.55085651702817
  C   -1.33758949319396      0.20084600437626     -1.09352055072784
  H   -1.20066771517181     -0.70394829053910     -1.68820345363996
  H   -2.40133955729494      0.30562537436681     -0.86717579866101
  H   -1.03382276430519      1.05950780198680     -1.69682617599896
