16
Coordinates from ORCA-job run
  C   0.88087917233112      0.01592188064215     -0.05986970310362
  C   -0.64039738800816     -0.00925325686549      0.25532148499690
  Cl  1.27468606451232     -1.18502621934843     -1.33107363380607
  H   -0.75405214365724      0.72676935798570      1.06524731140972
  C   1.27868270622617      1.33688853575659     -0.57318497628391
  N   1.58740194963497      2.42325508730272     -0.90136878900191
  N   1.60487147682014     -0.37079713011449      1.13433724930566
  H   1.47755369384812      0.34470491635083      1.84415383559000
  H   2.59679504137144     -0.44731967097372      0.93700878942703
  N   -1.09569733296862     -1.28684853440589      0.75491715836823
  H   -1.13662525975412     -1.95308999160058     -0.00793475269946
  H   -0.43034504640284     -1.64007664773809      1.43375511907174
  C   -1.49323842403356      0.43361261141637     -0.92037712423978
  H   -1.22881085606129      1.43511557327973     -1.26327553748313
  H   -1.38382030036829     -0.25804854809764     -1.75912075814643
  H   -2.53888335349015      0.43319203641023     -0.61053567340497
