16
Coordinates from ORCA-job run
  C   0.91228489523926     -0.04101392554252      0.40881902653491
  C   -0.58065632284688     -0.38277333747903      0.29544238476173
  Cl  1.70525830117606     -1.28356162897160      1.43898467303987
  H   -0.94191807717291     -0.39089633535549      1.33436673748159
  C   1.55262964660109     -0.10299921606955     -0.91776434094115
  N   2.07068245976419     -0.02159702219544     -1.96966809261304
  N   1.09403850389209      1.23212766719376      1.07588880841270
  H   2.07149124207687      1.35144209065069      1.31875023213686
  H   0.84418908627447      1.98078017769660      0.43829860294414
  N   -0.70842770983017     -1.65411276714288     -0.39735785047563
  H   -1.66791521208079     -1.79947970671060     -0.68381998560415
  H   -0.44270441644435     -2.42186116062373      0.20639941055076
  C   -1.32379198871803      0.68899737926118     -0.48950332888296
  H   -1.28650776495205      1.65609535235819      0.01312858667079
  H   -2.37860694224157      0.41326242802674     -0.57019897536323
  H   -0.92104570073726      0.77659000490368     -1.50176588865318
