16
Coordinates from ORCA-job run
  C   0.91738639886098      0.03822236270549      0.39240217810811
  C   -0.50892096096188     -0.50685363515981      0.19650370225358
  Cl  1.09851389229328      0.53698317043313      2.16221170623353
  H   -0.65445501021665     -1.27197478275377      0.96479801240042
  C   1.90223640735356     -1.02867769212208      0.18689406993418
  N   2.73193547975978     -1.84887936647282      0.05687608022745
  N   1.18039176616187      1.10389763304255     -0.51290263993962
  H   0.63603329620930      1.92225570013906     -0.26969052534189
  H   2.16164493636047      1.35278663306226     -0.52113233463550
  N   -0.50462033766108     -1.17563087484742     -1.09555417996011
  H   -0.45292039568362     -0.48796363149910     -1.83755666856399
  H   -1.34864829201650     -1.72181066414919     -1.21322665218823
  C   -1.57550165586513      0.57597272601637      0.35311154841353
  H   -1.50907132752321      1.09938570610088      1.30879413501056
  H   -1.51045282327416      1.30162643181266     -0.46233390422321
  H   -2.56255137379700      0.11166028369179      0.29180547227119
