16
Coordinates from ORCA-job run
  C   0.85537262202382      0.27424097617848      0.02105599906078
  C   -0.64871564536815     -0.06372955447945      0.22149309251186
  Cl  1.46893119196138     -0.66152602432891     -1.45276470165041
  H   -0.94646824674887      0.59131277738833      1.04843366435569
  C   1.02486301605918      1.69104554833738     -0.30473996092067
  N   1.14926072198030      2.83623681418663     -0.53528629820678
  N   1.59353883252435     -0.02740753310919      1.19508629440233
  H   2.56400774369039      0.24887545683504      1.10976320526267
  H   1.55106016912336     -1.02072349760176      1.38524217575237
  N   -0.89526544924628     -1.42452629628592      0.64385857566018
  H   -0.51659418407459     -2.09648214164729     -0.01168551060063
  H   -0.55622380852412     -1.61307037907662      1.57686645385753
  C   -1.49380692426196      0.26121414033252     -0.99964090732760
  H   -1.31979588675254      1.27815564855037     -1.35697362589449
  H   -1.28385169253233     -0.43159943548234     -1.81607403306414
  H   -2.54431245985394      0.15798350020270     -0.72663442319869
