16
Coordinates from ORCA-job run
  C   0.95318938550903     -0.02268043836638     -0.09626994157231
  C   -0.57521320277137      0.11727772992606      0.19134456153679
  Cl  1.21278694324534     -1.46122819104702     -1.14910206402223
  H   -0.64054068166302      1.01939086545012      0.81538644259430
  C   1.42287947319824      1.16448837473943     -0.81932262403059
  N   1.75045765617829      2.15722743919319     -1.35523048185353
  N   1.79374955107727     -0.19685436422061      1.06537670274913
  H   1.49212921356013     -1.00856082142298      1.59080099002648
  H   1.75185783823823      0.62832375905772      1.65397191278338
  N   -1.13924136559119     -0.97235846436574      0.95816938358338
  H   -1.04560990590531     -1.85158905997547      0.46443109152348
  H   -0.72254998366848     -1.05736630176406      1.87548642431823
  C   -1.40080804123869      0.33448280786129     -1.06723054043982
  H   -2.42832902944268      0.55352095606823     -0.77537310397344
  H   -1.01963679413772      1.16217564357013     -1.66778460391750
  H   -1.40612105658807     -0.56524993470391     -1.68565414930576
