16
Coordinates from ORCA-job run
  C   0.81239390717539      0.02682816358221      0.52736740162976
  C   -0.61330302997040     -0.46739102729038      0.15385287737734
  Cl  0.91230811281037      0.33717155677997      2.29056152421726
  H   -0.80226243019861     -1.33473656602899      0.79596635249951
  C   1.76902391017177     -1.06149999995009      0.24165890584488
  N   2.50731348337235     -1.92180036816715     -0.07127091674312
  N   1.12962189088276      1.25646658644940     -0.15984400526220
  H   1.14424239707433      1.07952412106955     -1.15863262534680
  H   2.04984142007558      1.58327001820855      0.11296846687438
  N   -0.71687591987154     -0.90941963586393     -1.22351081369640
  H   -0.03098711999701     -1.61028846306963     -1.47287926235593
  H   -0.69047925478489     -0.13988293693193     -1.87902846448440
  C   -1.66776112676701      0.59588039481407      0.41687783033360
  H   -2.64553508752140      0.17411692216448      0.18099641983615
  H   -1.49597967432220      1.47154630196789     -0.21132497720013
  H   -1.66156147812949      0.92121493226597      1.45624128647612
