16
Coordinates from ORCA-job run
  C   0.99929860316408     -0.00552190132786      0.41939427516585
  C   -0.46275928455180     -0.45619467403890      0.15910382531956
  Cl  1.26130512672774      0.14445152549633      2.18647266854971
  H   -0.62745533292397     -1.36957237972575      0.74878515737399
  C   1.88140252366093     -1.07985386884721     -0.06490174043423
  N   2.51362033768156     -1.97466920436855     -0.48822369965657
  N   1.38976271147741      1.23210876261582     -0.21113170388446
  H   1.06417957717313      1.18712874052138     -1.17351265765323
  H   0.93208472243555      2.00641528765016      0.25583055644351
  N   -0.55395765436655     -0.66640128187981     -1.28398000570365
  H   -1.51857544030065     -0.61902108578819     -1.58748947291388
  H   -0.19094724730103     -1.57658424911043     -1.54211294220408
  C   -1.47284584388688      0.59970326694139      0.57365991181743
  H   -2.48446796374414      0.20136257792976      0.46199739804020
  H   -1.34534866595245      0.89686155170131      1.61415934165292
  H   -1.38629616929293      1.47978693223057     -0.06705091191308
