16
Coordinates from ORCA-job run
  C   0.96913505264522     -0.06077019335078      0.34873366485903
  C   -0.56258200745433     -0.34635298016172      0.36114083941575
  Cl  1.75915738783492     -1.33356771970085      1.36276207414007
  H   -0.84500286579949     -0.31023792012164      1.42157044069204
  C   1.46480859779201     -0.20626945165653     -1.02418062285411
  N   1.77315623728047     -0.30903804267428     -2.15313040831240
  N   1.38923074348501      1.21407076215043      0.86954605115741
  H   1.16325986162402      1.95924039343324      0.22233383620153
  H   0.94332527754923      1.38906881642684      1.76328166329612
  N   -0.95660618970161     -1.63813643856105     -0.15757963684476
  H   -0.47302032020647     -2.38842955312568      0.31867075663380
  H   -0.75155979821203     -1.70210002580886     -1.14864527601366
  C   -1.31541322081812      0.73769836654851     -0.40003458609848
  H   -2.38048338757340      0.50780927934004     -0.35921469818734
  H   -1.01494586495782      0.75852156847794     -1.45239104625319
  H   -1.16145950348763      1.72949313878439      0.02613694816820
