16
Coordinates from ORCA-job run
  C   0.90707665584452      0.06728794123209      0.26811085939343
  C   -0.58904184672527     -0.34352723258002      0.36037078308665
  Cl  1.87377059438378     -1.17013197522461      1.25469276518729
  H   -0.83232288593724     -0.29013393414189      1.42989726559112
  C   1.37975754163134     -0.07439361367390     -1.11054482813230
  N   1.69902662324576     -0.19743818090671     -2.23438799485515
  N   1.11120770150134      1.39217222815757      0.72336357435785
  H   0.77460849237783      1.49789321442470      1.67338728597500
  H   2.08509480992674      1.66553891504800      0.68035294667797
  N   -0.88534313733425     -1.68347037678269     -0.09042270028182
  H   -0.72560841233931     -1.76718949343067     -1.08795389030807
  H   -0.31740764278700     -2.37129501144998      0.38641692866786
  C   -1.45404635653060      0.64389177743663     -0.41283730893963
  H   -1.31859461439651      1.66584589898650     -0.06376184383152
  H   -2.49771168805967      0.34954715601827     -0.29568924658531
  H   -1.20946583480147      0.61440268688671     -1.47899459600339
