16
Coordinates from ORCA-job run
  C   1.01293379560803     -0.01722876720592      0.31561101115747
  C   -0.49016233096053     -0.36813643128620      0.31608606491656
  Cl  1.85072454724108     -1.27654501428081      1.31587522705814
  H   -0.79101635814572     -0.31920452637395      1.37754097354117
  C   1.54246748327147     -0.09488555400380     -1.04988109420262
  N   1.94352726428843     -0.07875303278278     -2.15328992638687
  N   1.36010755980076      1.26217516630152      0.87379772018956
  H   1.16220109168467      2.01054006333538      0.22208899631184
  H   0.86803207825979      1.41628290226437      1.74609713782521
  N   -0.67717302698462     -1.67354401578054     -0.28985147808675
  H   -1.65823427995895     -1.83572660007189     -0.47768228215971
  H   -0.34487020050864     -2.40908702859229      0.32020353027490
  C   -1.28406812552354      0.65890556484452     -0.47882152163002
  H   -1.16109900249794      1.66706270200680     -0.08200277737987
  H   -0.98322678194833      0.64032763413978     -1.52893392441213
  H   -2.34914371362597      0.41781693748582     -0.42683765701688
