16
Coordinates from ORCA-job run
  C   1.00279466192901      0.03552061305715      0.40978237288492
  C   -0.45710339312966     -0.44683134602586      0.19837030523038
  Cl  1.27783172125968      0.32110222845796      2.15830346839740
  H   -0.60800414944092     -1.31276408972869      0.85911318320219
  C   1.89137554392414     -1.06403949710666     -0.00009313900532
  N   2.52868614714655     -1.98247182232362     -0.36049037291204
  N   1.37618939733286      1.22529715303115     -0.31600476266319
  H   1.04780687051206      1.10213647554194     -1.27052883634739
  H   0.90996230447609      2.02769378822578      0.09127302894874
  N   -0.55843619391886     -0.76963561535445     -1.22288673118470
  H   -0.18866530119601     -1.69379196387386     -1.41306329764138
  H   -1.52570657644041     -0.75417964980557     -1.52088680227504
  C   -1.47320222422010      0.62982717164526      0.53850976582985
  H   -1.40155331431485      1.45647911126135     -0.17160212003211
  H   -2.48188904796571      0.21458560397916      0.46988890242435
  H   -1.33808644595384      1.01107183901898      1.55031503514334
