16
Coordinates from ORCA-job run
  C   0.95520082639746     -0.00232256361073      0.43321390528913
  C   -0.52782021888893     -0.41747850354564      0.38215352546405
  Cl  1.82899312971579     -1.07530539858252      1.56215440280294
  H   -0.83933018211323     -0.45569121614672      1.43023360877265
  C   1.54860306275606     -0.19175481285788     -0.90509252537377
  N   1.95673351181177     -0.26085179699216     -2.00572669720847
  N   1.09070648411918      1.35056202643376      0.93595282964100
  H   0.78639269924444      2.00876611881318      0.22642782449263
  H   2.06611125962457      1.54197217457089      1.13671254891819
  N   -0.60946807044160     -1.75753341160379     -0.17562345504020
  H   -1.41795466140007     -2.24536073356715      0.18511348423351
  H   -0.68716912970327     -1.72135469533082     -1.18550534856436
  C   -1.36772672270729      0.62046915660884     -0.36158173210947
  H   -1.00682100773814      0.75266111528407     -1.38736035140586
  H   -1.37715600650197      1.58716645662013      0.14519644378885
  H   -2.39929497417478      0.26605608390654     -0.41726846370080
