16
Coordinates from ORCA-job run
  C   0.93236947198737      0.30388792166410      0.03623380058287
  C   -0.57364283056941      0.01011002282035      0.19901889193343
  Cl  1.67572781121256     -1.09399314174706     -0.94932142226549
  H   -0.94332924117930      0.87472121292834      0.76233131704950
  C   1.15340540143318      1.50052452040811     -0.77882203583002
  N   1.30048218507647      2.47602281200039     -1.41644312495533
  N   1.51667019554554      0.45275813337517      1.30739490070821
  H   1.23025972108939     -0.32830237458348      1.88827999741078
  H   2.52275122383341      0.54644786299361      1.26992925063867
  N   -0.68931634719731     -1.15134768543681      1.07512384548801
  H   -1.58956492782663     -1.14809307798249      1.53656111878305
  H   -0.61937836078776     -2.00260087990118      0.52945638710349
  C   -1.32848754923115     -0.08934894704729     -1.11926338859874
  H   -0.99649485187316     -0.95440253864152     -1.69609805972585
  H   -2.39529371755967     -0.20301446963699     -0.91244094654791
  H   -1.19615818395352      0.80563062878674     -1.73194053177466
