16
Coordinates from ORCA-job run
  C   0.97795456699142     -0.02717669703771      0.32749226470267
  C   -0.54300665035001     -0.36070039231993      0.37731758330687
  Cl  1.83070358663013     -1.26666774159916      1.33296792310988
  H   -0.80284565530295     -0.32410030819983      1.44346414028499
  C   1.44689647956934     -0.16870416576605     -1.05520481943191
  N   1.73295493412494     -0.27098847433677     -2.19000125015076
  N   1.36916084731099      1.26446952244295      0.82854937385664
  H   0.93290585744468      1.43604352757782      1.72765459597467
  H   1.11180352868115      1.99605444388170      0.17765670730696
  N   -0.90798783558590     -1.66895209418031     -0.12149636754779
  H   -0.39029298681416     -2.39906891206726      0.35023928337674
  H   -0.72200460031415     -1.73547651080893     -1.11616547152881
  C   -1.34681405905072      0.69196679347183     -0.37578344137899
  H   -1.21154837677439      1.69288372575727      0.03507919604232
  H   -1.07372483579909      0.70917547451178     -1.43561546301611
  H   -2.40315480076129      0.43124180867261     -0.30515425490738
