16
Coordinates from ORCA-job run
  C   0.95345216236102      0.22583452470299      0.06341590646124
  C   -0.58043432081818      0.08291044227561      0.15590402175861
  Cl  1.62037501383253     -1.33732420349637     -0.70230306082519
  H   -0.90074698020106      1.03841958617676      0.58673082197345
  C   1.32981358765698      1.29396182288764     -0.86561641992935
  N   1.60196494696414      2.17059184370941     -1.59853375289733
  N   1.47371654711268      0.47706257508129      1.34601544469672
  H   1.08200404864339     -0.19976826608951      1.99236851205137
  H   2.48467511024573      0.47919997880782      1.36805731954123
  N   -0.85328457177312     -0.94800341115335      1.15206071639091
  H   -0.83703109245335     -1.86247336108230      0.71502141142842
  H   -1.77210482663038     -0.80805105527801      1.55188921391596
  C   -1.26331051128900     -0.11472050768875     -1.19019567823485
  H   -2.34642206225292     -0.10443459350489     -1.04654274515588
  H   -0.98482666300859     -1.07280787519002     -1.63262333831419
  H   -1.00784038838987      0.67860249984170     -1.89664837286113
