16
Coordinates from ORCA-job run
  C   0.86750606584052      0.23848053770787      0.00603115034865
  C   -0.66435069995968      0.03178112147713      0.17565333519135
  Cl  1.52522679757517     -1.13627967922690     -1.04409541357977
  H   -0.97868350102169      0.92468815548892      0.72831742851227
  C   1.13995567787569      1.47225672584384     -0.73269418369140
  N   1.32766917686597      2.47866885371120     -1.30890116572833
  N   1.50415044372506      0.29925214812712      1.27280478221792
  H   1.39192945930979     -0.58106532727077      1.75981337354174
  H   2.49223550229545      0.50360204649341      1.18740895611752
  N   -1.01675754707105     -1.11610031008897      0.98131958390164
  H   -0.63101629174060     -1.97300296301382      0.60492208736202
  H   -0.75586308125620     -1.00838356960179      1.95156810602213
  C   -1.40335391288017     -0.01963119504196     -1.15166215765496
  H   -1.17964849093134     -0.94344415754035     -1.68758036974009
  H   -2.47430176571462      0.00546199013246     -0.94852430439597
  H   -1.14569783291240      0.82371562280262     -1.79538120842474
