16
Coordinates from ORCA-job run
  C   0.95428064817620      0.08149289708071     -0.04086661374996
  C   -0.59671077563334      0.07191154588051      0.14067718081221
  Cl  1.44917442403211     -1.44553546861481     -0.85776474430613
  H   -0.80776141095283      1.03719950449277      0.62151088800400
  C   1.33586703055716      1.20639051136993     -0.90199187902583
  N   1.58468564368390      2.14872864018795     -1.55783993626058
  N   1.72478974558773      0.17303953399371      1.17758677271224
  H   1.54360114178799      1.05777486716662      1.63983408918663
  H   1.48385571488277     -0.59231370831982      1.79579088933787
  N   -1.08602409106984     -0.96124753980084      1.02754590737081
  H   -0.85784972824861     -1.88255877561376      0.67435002725460
  H   -0.72931074722319     -0.86519271003243      1.96874886227792
  C   -1.35060959740704      0.00887058400215     -1.17854429143587
  H   -1.21344465137919     -0.96379504472403     -1.65520053077548
  H   -2.41401475981275      0.14303351773087     -0.97805589874076
  H   -1.02152858698107      0.78220164520047     -1.87478072266167
