16
Coordinates from ORCA-job run
  C   0.88043405633935     -0.02900487093017      0.42134602490643
  C   -0.63179878891625     -0.36531730652114      0.37226651871527
  Cl  1.69809285680322     -1.21026180132006      1.49939504001749
  H   -0.95009210014018     -0.34093149464211      1.41962812459384
  C   1.45926156312910     -0.20544912624622     -0.92436038885459
  N   1.85966473487763     -0.27928804430707     -2.02763375340325
  N   1.10098237481760      1.28155161913106      0.98897761919407
  H   0.78418360650933      1.99141520189070      0.33783703376952
  H   2.09074155368848      1.42743065950553      1.15495542018932
  N   -0.94114560754438     -1.67028483443558     -0.17035230781146
  H   -0.68611427327935     -1.72554573082555     -1.14998056596499
  H   -0.45685227707190     -2.40372080284458      0.33092753948930
  C   -1.39526234935568      0.69320596246488     -0.41386319138417
  H   -1.01989515614559      0.77565529522737     -1.43921909880419
  H   -1.35022533190464      1.67211202004936      0.06484250887948
  H   -2.44097486180674      0.38843325380359     -0.46376652353208
