16
Coordinates from ORCA-job run
  C   0.97540111066251     -0.03050537341326      0.33447109501199
  C   -0.54879192789997     -0.34993930540946      0.37873383925728
  Cl  1.81031600551881     -1.26078475061078      1.36516787540392
  H   -0.81560118616133     -0.29450692911424      1.44236608456607
  C   1.45267140243835     -0.19827784188533     -1.04252484049710
  N   1.74529699922018     -0.32168151239805     -2.17355593145188
  N   1.37459548322751      1.26557061751565      0.81752855658592
  H   1.12507082670778      1.98933207100808      0.15495046190862
  H   0.93671222329474      1.45385365741879      1.71246386970051
  N   -0.92150793617386     -1.66257352010958     -0.10225812342887
  H   -0.41476342313900     -2.38993923916451      0.38529743250490
  H   -0.72898728081283     -1.74688738918118     -1.09429792371944
  C   -1.33804369825349      0.69800502555594     -0.39603738024498
  H   -1.19823446703643      1.70342512556499      0.00209185636504
  H   -1.05614085725838      0.69820567323516     -1.45370442600996
  H   -2.39699327433459      0.44670369098778     -0.33069244595202
