13
Coordinates from ORCA-job run
  C   1.08866308591576     -0.28119279528121      0.04229092577952
  C   -0.35063361979682      0.24176409042409      0.21605871775710
  H   1.19266541848054     -0.75921505473799     -0.93621507649778
  H   -0.41403644544898      0.76551739591105      1.17602285803542
  H   1.28503619213123     -1.04234777706194      0.80329794944198
  C   2.08441433373447      0.78128204796407      0.16800015973361
  N   2.87127791175150      1.64359958398429      0.28716887864203
  C   -1.35545881456918     -0.91382710541632      0.19818884751220
  H   -2.37380938390293     -0.54260139112929      0.32165193684930
  H   -1.14014063081538     -1.60870151270085      1.01308908299535
  H   -1.30107735817712     -1.45585627653075     -0.74843857579100
  C   -0.66220355591288      1.21087762291774     -0.83828357359303
  N   -0.92469713339021      1.96070117165710     -1.70283213086467
