13
Coordinates from ORCA-job run
  C   1.08079827563201     -0.30756098141857      0.04040924062720
  C   -0.34563641000414      0.24774089190030      0.21905214592503
  H   1.17372698666758     -0.77775759348844     -0.94305678164008
  H   -0.39806518105187      0.76079642936775      1.18549559996550
  H   1.25833375595747     -1.08126752278029      0.79343004499881
  C   2.10287234819639      0.72815731877711      0.17713318461434
  N   2.91397454987747      1.56683668706929      0.30313051599096
  C   -1.37729028369544     -0.88365506029366      0.18565303104161
  H   -1.33332299950665     -1.41579079880788     -0.76696106488345
  H   -1.18018957015062     -1.59272442079566      0.99273736416635
  H   -2.38696610574867     -0.49042473105784      0.31134888731024
  C   -0.63280502225640      1.23775073161677     -0.82269778885607
  N   -0.87643034391714      2.00789904991112     -1.67467437926044
