13
Coordinates from ORCA-job run
  C   1.14290422776773      0.25501498949015     -0.24364180292343
  C   -0.35313255096050      0.47612504676314      0.06666607664581
  H   1.24683384316197     -0.32101430855717     -1.16808051914278
  H   -0.43119118808415      1.06139803610173      0.98960549689672
  H   1.64707317036918      1.21315755843158     -0.39604759611155
  C   1.79930371018220     -0.46204809701882      0.84791126640224
  N   2.29627626938387     -1.03198068045815      1.74538604866672
  C   -1.11056975762625     -0.84341561252611      0.23627427662248
  H   -2.16386953036859     -0.65609523916969      0.44986863005020
  H   -0.68555009015057     -1.41596073882275      1.06266487553715
  H   -1.04595633131275     -1.44075699102589     -0.67590629161690
  C   -0.93838899088747      1.27333479657180     -1.01482273480238
  N   -1.40173278147468      1.89024124022019     -1.89987772622428
