14
Coordinates from ORCA-job run
  C   0.50997321135137     -0.02111788862828      0.29074711174375
  C   -0.62808246300244      0.74756282020491     -0.33997377036523
  Cl  0.75114942395145      0.38657610286712      1.95626710057428
  H   -0.77508291850492      0.41828872041182     -1.36850130744304
  H   -0.43607777248536      1.81587069775530     -0.30076801468319
  N   0.33299560349157     -1.53876268293087      0.08215719433297
  O   0.16273694129505     -1.82660960692090     -1.09510611832342
  O   0.40981238874209     -2.28031652965514      1.03938056812388
  N   1.80665204396872      0.27083150869693     -0.47924015482451
  O   1.77808980263078      1.19612056218932     -1.27941787297326
  O   2.74975606760238     -0.45338796514321     -0.20440720392104
  N   -1.90229925712084      0.49353612048365      0.39706369976687
  O   -2.63001760246525      1.46180634842949      0.58227992995902
  O   -2.13060546945461     -0.66839820776013      0.72051883803293
