14
Coordinates from ORCA-job run
  C   0.43380147638796     -0.23732883166739      0.31704063365779
  C   -1.03092821094937      0.03840135632655      0.06727367976085
  Cl  0.95623014447805      0.28723504864269      1.88237155402986
  H   -1.64733119916452     -0.47971033927194      0.79617022301036
  H   -1.29826366568794     -0.25875817202257     -0.94669318603211
  N   0.69374885273855     -1.74609920841082      0.19245069992389
  O   -0.28841978237609     -2.47464150399223      0.14964642302363
  O   1.86970535188158     -2.07076224414797      0.15785952656831
  N   1.30545652759943      0.34555041057006     -0.81368679499265
  O   2.25055165768202      1.05082902334095     -0.52826671441068
  O   0.93609415931688     -0.02554542511140     -1.91987697781339
  N   -1.31712987755677      1.49892861504442      0.19509721508474
  O   -2.35210412068658      1.80530679073462      0.77509218295359
  O   -0.51241131366321      2.26659447996502     -0.32447846476420
