14
Coordinates from ORCA-job run
  C   0.41230773617375     -0.26646114155513      0.35316995831258
  C   -1.02476046024408      0.04243382603847      0.00770084595610
  Cl  0.81190763082144      0.10847702068668      1.98542931977427
  H   -1.21758562564282     -0.17413131096056     -1.04064550940973
  H   -1.69918659671702     -0.52935106899706      0.64323767774357
  N   0.66130635086718     -1.77205232307996      0.06849918966493
  O   0.03812561778777     -2.22162456681464     -0.88589337871545
  O   1.47273028789757     -2.35092084872161      0.76990659008087
  N   1.38432106139246      0.41128068350566     -0.64671103192460
  O   0.97857799027964      0.43210773552811     -1.79970762964002
  O   2.45840557072912      0.78923470936507     -0.21796914108289
  N   -1.33966505871855      1.48904331006617      0.21996045248569
  O   -0.42214393732484      2.29329795453793      0.09152410321426
  O   -2.51434056730163      1.74766602040088      0.45049855354040
