14
Coordinates from ORCA-job run
  C   0.34635145400083     -0.28597136723782      0.37906196996623
  C   -1.01859071476749      0.08566856094815     -0.15226741327824
  Cl  0.52976006305924      0.07190048057427      2.06320820527334
  H   -1.06732870579750     -0.10977344971177     -1.22343926825625
  H   -1.79590273293287     -0.46095587143997      0.37374193967742
  N   0.57961114846817     -1.78973675968563      0.16846282731023
  O   -0.39269454324254     -2.46084957573864     -0.15011759915074
  O   1.72459946952598     -2.16985359349832      0.35302263849390
  N   1.46238158703849      0.34714054204132     -0.47618407261018
  O   1.33164747306577      0.09531237423511     -1.66669875218378
  O   2.34490558857834      0.97338053255436      0.07258121717698
  N   -1.28006502398634      1.54249280794992      0.04867237818343
  O   -2.41022593789061      1.85080312631539      0.40804270244295
  O   -0.35444912511943      2.30944219269366     -0.20008677304534
