14
Coordinates from ORCA-job run
  C   0.49420071920686     -0.22689227160312      0.22354856821568
  C   -0.98438934250363      0.07402637538360      0.30580783493709
  Cl  1.37960097842276      0.38951617879932      1.57756805843337
  H   -1.41711371878056     -0.37265893570434      1.19629436141087
  H   -1.48837821199244     -0.28652086230594     -0.59079650878382
  N   0.69799497763803     -1.74815389746812      0.15371952912939
  O   1.82945107679724     -2.10933263700701     -0.12717147025175
  O   -0.27704122655751     -2.44824949374489      0.39121349237646
  N   1.08024791593116      0.24884897163165     -1.12127214051128
  O   0.45424355755382     -0.18702056123691     -2.07833535739363
  O   2.07497747162169      0.94360548293682     -1.12032112478680
  N   -1.21516310930786      1.54770027472384      0.38618286425955
  O   -0.54367829554079      2.25348005147051     -0.36065957951059
  O   -2.08395279248876      1.92365132412461      1.16422147247547
