14
Coordinates from ORCA-job run
  C   0.56468481295198     -0.32307415339624      0.39291725639623
  C   -0.69990118421992      0.40988811837664      0.77694182384608
  Cl  1.35418575556364     -0.87795531534367      1.85032499139058
  H   -1.33648329616893     -0.27518376337328      1.33836008333163
  H   -0.46258479596810      1.28548946459916      1.37768743424175
  N   0.24905662960535     -1.55261082556315     -0.48001309458947
  O   0.82501889113227     -1.65142101831889     -1.54818043409632
  O   -0.56263989322723     -2.31305115003809      0.01939061336342
  N   1.52889412965427      0.56274792568408     -0.39166950192749
  O   1.04301088655676      1.59305611467955     -0.84612523928015
  O   2.67474215251047      0.16309837637325     -0.50700534964116
  N   -1.51266733897469      0.88531418115422     -0.38640408052916
  O   -2.17377594436170      1.89596095715754     -0.19430639733392
  O   -1.49254080505422      0.19974108800892     -1.40191810517201
