14
Coordinates from ORCA-job run
  C   0.53232865685855     -0.00698979683153      0.24869151505078
  C   -0.68592705530662      0.72783878033937     -0.26071976817802
  Cl  0.88963819350843      0.35574889466100      1.90367359666999
  H   -0.90049925130841      0.42724151993589     -1.28617948390206
  H   -0.53896557454814      1.80213033063268     -0.19745344450055
  N   0.40658750312672     -1.52333199980525     -0.00133235754457
  O   0.15403970988426     -1.77946775043208     -1.17116164433006
  O   0.59337171969773     -2.29209187528129      0.91859900971517
  N   1.74817141393474      0.37161156372756     -0.61075316968825
  O   2.74130219695650     -0.31686144926409     -0.43958517572157
  O   1.61433234127968      1.32172637076155     -1.37005562927059
  N   -1.88423037378244      0.38935609430475      0.56429301346419
  O   -2.03229151288897     -0.79178303254618      0.86408446802640
  O   -2.63885796741194      1.31487234979766      0.83889907020922
