14
Coordinates from ORCA-job run
  C   0.42975796386719     -0.25518141724373      0.30836911431964
  C   -1.02868064957007      0.06598461317493      0.07670027325349
  Cl  0.97958338317825      0.22435101601841      1.87890179418107
  H   -1.65351486668071     -0.44959662770804      0.80016573176664
  H   -1.31201344997096     -0.20362193765649     -0.94066187721035
  N   0.64588087767307     -1.76829318821690      0.15368726701972
  O   -0.35668944560151     -2.46848255662442      0.11178959607121
  O   1.81182746816739     -2.12466453372359      0.09809875079527
  N   1.30820763296486      0.32413982811204     -0.81854675858449
  O   0.91960810845051     -0.01523069803524     -1.92836498232335
  O   2.27476957838762      0.99772905798832     -0.52825949864842
  N   -1.27289447153638      1.53107834666668      0.23520336876959
  O   -2.29307451531223      1.85498103679636      0.83162132136829
  O   -0.45176761401700      2.28580706045172     -0.27770410077825
