14
Coordinates from ORCA-job run
  C   0.49484667355320     -0.39557332660857      0.42071706082298
  C   -0.81055613575258      0.30730217684423      0.71415024632728
  Cl  1.13957134774289     -1.02618448523582      1.91770035684294
  H   -1.53715570659968     -0.39620411475364      1.11549260989909
  H   -0.61671067049243      1.10481081850531      1.43258547346064
  N   0.32233709277180     -1.54151918422728     -0.57228954713200
  O   -0.73036624546762     -1.53594451851403     -1.20164014210810
  O   1.24113302060305     -2.33776035491445     -0.66062908438269
  N   1.52828258335238      0.58085425059104     -0.17360974703307
  O   1.71072126698701      1.57564226887815      0.50719368129072
  O   2.05432370414927      0.27521406717312     -1.22822670242148
  N   -1.44206335764824      0.95609555194217     -0.47757408413303
  O   -2.66259372853761      1.02863945495898     -0.45788420262614
  O   -0.69076984466145      1.40562739536079     -1.33498591880720
