14
Coordinates from ORCA-job run
  C   0.48917700216122     -0.15221124104876      0.28753976699744
  C   -1.01153336935202      0.00809991978502      0.21198025899085
  Cl  1.18604962330780      0.68809294664145      1.63136641264470
  H   -1.48349535733378     -0.38408128802182      1.10814882296470
  H   -1.39486869344695     -0.49260041485258     -0.67706008169373
  N   0.83315375171786     -1.64471436498810      0.40975983964364
  O   -0.09148206671586     -2.40676997124990      0.65770422599966
  O   2.01176897553486     -1.92162094767441      0.25568048113138
  N   1.15327861803562      0.23437011335948     -1.04941086009546
  O   0.66064508585249     -0.35933760835798     -1.99940836156310
  O   2.07793226769680      1.02008230990597     -1.04484536380806
  N   -1.37910660130697      1.45176406859450      0.10499791686061
  O   -2.34505211496902      1.82095259133451      0.76231677075130
  O   -0.70746712118212      2.13697388657260     -0.66076982882390
