14
Coordinates from ORCA-job run
  C   0.49274796490185     -0.40331927459772      0.41596563660223
  C   -0.81021085293044      0.30062385027709      0.71757351892454
  Cl  1.13151801534802     -1.05878398405646      1.90482838549398
  H   -1.54053874546392     -0.40517358551832      1.10789886384478
  H   -0.61394062374989      1.08819662310933      1.44617574905833
  N   0.31719335763020     -1.53409443128411     -0.59379754212043
  O   -0.73576817632929     -1.51737919710210     -1.22251804160645
  O   1.23448538116741     -2.33064775915388     -0.69424602845757
  N   1.53055472073003      0.57742193292668     -0.16220968368039
  O   1.71525188036101      1.56144481091268      0.53375664621355
  O   2.05710818763618      0.28643226953159     -1.22068926080034
  N   -1.43749977909108      0.96718791804103     -0.46673987114331
  O   -0.68311106582351      1.42543516945958     -1.31677847470229
  O   -2.65779026438654      1.04365565745455     -0.44821989762664
