14
Coordinates from ORCA-job run
  C   0.54279729894817     -0.31320981861730      0.42968065820163
  C   -0.74465538338777      0.41980561143446      0.72866614790334
  Cl  1.25065910541750     -0.83988971868588      1.93848553325487
  H   -1.40916507459106     -0.25940410013685      1.26425171788829
  H   -0.54549114362208      1.30589805365212      1.32790041239788
  N   0.28098449058169     -1.55988237170673     -0.43816001385405
  O   0.91773648594320     -1.67608911342893     -1.46920354894600
  O   -0.55610350307919     -2.31386313000456      0.02792914746443
  N   1.54630795632351      0.56311816096931     -0.31388312702920
  O   2.69759864261161      0.16480298252488     -0.36073244442494
  O   1.08455554075960      1.58569663224501     -0.80951997539202
  N   -1.49102260852832      0.87177795874321     -0.48700715966754
  O   -2.16850452248055      1.88049980201013     -0.34968082982890
  O   -1.40769728489628      0.17073905100120     -1.48872651796776
