14
Coordinates from ORCA-job run
  C   0.51032626987292     -0.14054309886167      0.25474949030161
  C   -0.99217718845591      0.01735630855165      0.28887575490421
  Cl  1.30639975528357      0.75330223497902      1.50571356691147
  H   -1.44197954039977     -0.51840064260077     -0.54696018255807
  H   -1.39279699842514     -0.33777406907648      1.23390075709467
  N   0.86675689081547     -1.62703869646798      0.41005383574823
  O   2.03175054393829     -1.90961538025103      0.18110658325475
  O   -0.03523099711733     -2.37887974396225      0.75402452029105
  N   1.06842913176139      0.19102596821583     -1.14397566478911
  O   1.98859401335795      0.97574015245067     -1.24296168082233
  O   0.50538083788470     -0.44074744304712     -2.02807692604417
  N   -1.37035592901517      1.45602560590544      0.15317928645265
  O   -0.76190811165383      2.10971922107089     -0.68904824266152
  O   -2.28318867784715      1.85182958309377      0.86841890191652
