14
Coordinates from ORCA-job run
  C   0.25350448325251     -0.42198461619098     -0.32070358094263
  C   -0.89772037379542      0.11122078943508      0.50021808037856
  Cl  -0.23138966683366     -0.93106134691224     -1.90294425682771
  H   -0.53420953652718      0.46691593396814      1.46423174233925
  H   -1.65847058588146     -0.65240666602613      0.63370593958370
  N   1.41519961299083      0.59092287934560     -0.36493566064521
  O   1.88933973614655      0.90044421317206     -1.43815405184926
  O   1.75795020674594      0.95092629641483      0.75340507831231
  N   0.88415466558029     -1.61830058995021      0.40860297227729
  O   1.95286299274724     -1.99818036412360     -0.04197864135844
  O   0.26077106742695     -2.08023666674501      1.35475966909938
  N   -1.54011428922082      1.26960890807527     -0.19009446078014
  O   -0.78758082351339      2.09814148478220     -0.69421242308927
  O   -2.76429748911841      1.31398974475499     -0.16090040649780
