18

C	-0.228932	-0.052035	-1.495261
C	0.0	0.0	0.0
F	-1.588157	-0.312562	-1.837095
H	1.098704	0.0	0.0
H	-0.018789	0.942483	-1.908995
C	0.68002	-1.064386	-2.161275
H	1.676811	-0.893522	-1.733681
H	0.354578	-2.082365	-1.930625
H	0.687206	-0.944741	-3.24834
C	-0.495199	-1.255174	0.70732
H	-0.292009	-1.17966	1.780424
H	0.032297	-2.141421	0.347151
H	-1.57247	-1.408956	0.570475
C	-0.580941	1.259889	0.620559
H	-1.671957	1.308569	0.502801
H	-0.351748	1.304277	1.690493
H	-0.145369	2.151584	0.158099
F	2.769015	0.0	0.0
