15
Coordinates from ORCA-job run
  C   0.70165845178465     -0.34905983834460     -0.32129393565241
  C   -0.57287180017251     -0.07113066682656      0.48639421633207
  Br  0.77312205629373     -2.32474669468258     -0.65267865800283
  H   -0.51192381032082     -0.63837695701077      1.42424538830556
  C   0.72414358955811      0.30704322170823     -1.62730427283489
  N   0.87677104212268      0.84936921945320     -2.65852661498338
  N   1.80482458697940      0.12672662117892      0.44855208357468
  H   1.91971146525029     -0.42172801445592      1.29402902741588
  H   2.66693987247479      0.10308581874981     -0.08311598735094
  N   -1.79874536099081     -0.63481238424073     -0.19164904749910
  O   -1.91556776486857     -0.46452517545408     -1.39735555839279
  O   -2.60968980139995     -1.17788925370538      0.55629779372048
  N   -0.75906391185848      1.34338988295922      0.59623136156798
  H   -1.42690010914370      1.56618422765028      1.32391229980949
  H   0.12759149429118      1.78746999302098      0.80026190399020
