15
Coordinates from ORCA-job run
  C   0.71112016131231     -0.13765543611282     -0.48235283056713
  C   -0.48196967367461      0.36945462892215      0.35432502608932
  Br  0.12912552325723     -0.69842325475248     -2.27611338714033
  H   -0.07565406056984      0.77419315184584      1.28556643248127
  C   1.60755055152372      1.01098634429055     -0.68792459661276
  N   2.39344080607218      1.88102057522852     -0.78243878904756
  N   1.31542867647398     -1.27548479947103      0.14538262878327
  H   1.51847564876204     -1.09240348470973      1.12240613122546
  H   2.16144686630950     -1.55061686809670     -0.33788330978574
  N   -1.28499707034734     -0.84875953485705      0.81702093361387
  O   -0.96186578569871     -1.33713626125223      1.89639243706042
  O   -2.19166876413215     -1.22704821673669      0.08345121332876
  N   -1.23028236361462      1.34993700928075     -0.32649866768192
  H   -1.73936342231709      0.95032621015750     -1.10470070251589
  H   -1.86878709335658      1.83060993626343      0.29236748076895
