15
Coordinates from ORCA-job run
  C   0.73330555566516     -0.04711141878399     -0.51497255811943
  C   -0.51167133284136      0.21104835067281      0.38357160559299
  Br  0.18347529472610     -0.30176037480034     -2.39423692394280
  H   -0.12409295315799      0.50559590052438      1.36328917867618
  C   1.48567683278397      1.21199241217400     -0.47820352838509
  N   2.06115256541850      2.23141253533485     -0.37316743759586
  N   1.60152012552199     -1.12330096777453     -0.14483421154371
  H   1.09406495984819     -1.99709248817220     -0.09944510018377
  H   2.08866242820131     -0.93113582987341      0.72172848197501
  N   -1.24237461607845     -1.09420026796071      0.69483115934474
  O   -1.90501280003090     -1.08123754560792      1.72364883977200
  O   -1.14756384632436     -2.03335938316574     -0.09304104731396
  N   -1.46006227829962      1.16529053008792     -0.05763730386704
  H   -1.30852940761757      2.08172434450929      0.33274684508225
  H   -1.54955052781497      1.20013420283559     -1.06327799949150
