15
Coordinates from ORCA-job run
  C   0.82186467349713     -0.31636513024978     -0.27958712562749
  C   -0.56866895094548     -0.41838313043571      0.39131048938846
  Br  1.93077695334869     -1.75830711242048      0.63720539668643
  H   -0.87408813862309     -1.46158528044137      0.44079672118743
  C   0.82604086541627     -0.69936618306092     -1.68835244421765
  N   0.88041873631330     -1.00085175482063     -2.82323176336844
  N   1.33090122646298      0.98320033718818     -0.11386133393659
  H   2.20690605883422      1.12609278800262     -0.59926671257312
  H   1.42966682684792      1.19754212640554      0.87196413088432
  N   -1.57980795566965      0.23821726888475     -0.55776020820988
  O   -1.87553968085119      1.40997228025146     -0.34693828707767
  O   -2.00776475403894     -0.47335901389336     -1.46128603470111
  N   -0.54218709108268      0.21394616452988      1.66260949077333
  H   -0.80169614646010      1.18890408886604      1.55695890921610
  H   -1.17782262304937     -0.23065744880625      2.30943877157589
