15
Coordinates from ORCA-job run
  C   0.68386658673753     -0.14597387567663     -0.43864040933140
  C   -0.55920668446542      0.29039640147260      0.39285208127779
  Br  0.16959179902327     -0.61292939888474     -2.28385870722180
  H   -0.17754765428123      0.64386266920078      1.35431747409526
  C   1.52322517549769      1.05771369191662     -0.55930417775209
  N   2.20623505237056      2.01568096919262     -0.57875147209192
  N   1.31543195802106     -1.27968305910740      0.15177371449201
  H   2.23270218075872     -1.45568274354231     -0.23593226088053
  H   1.35231441309449     -1.21906589544302      1.16245291247836
  N   -1.34528909531139     -0.95242097108376      0.72599921660324
  O   -2.18447396215519     -1.31069471248133     -0.08975706488426
  O   -1.05152268432858     -1.51781947592447      1.77700161040399
  N   -1.42967949933557      1.26148328888722     -0.16042572427100
  H   -1.69969350471774      1.03463370768729     -1.10818589123906
  H   -1.03595408090814      2.19049940378651     -0.10954130167855
