15
Coordinates from ORCA-job run
  C   0.74733206758105     -0.49765779166851     -0.21835575332085
  C   -0.59067556352801     -0.22039086910132      0.50775697976782
  Br  1.70925450478896     -1.82842697028865      0.98632697997543
  H   -1.03086147941341     -1.16051208590578      0.83376543678999
  C   0.59435335276664     -1.20381831522008     -1.48681715096079
  N   0.52653412823399     -1.75193450810106     -2.52449870853493
  N   1.44383097847334      0.70944624230293     -0.40174836844517
  H   2.28958531523348      0.59544073136717     -0.94495266347679
  H   1.64926974864101      1.13546199828077      0.49475392213796
  N   -1.57135264166126      0.32462782744689     -0.53926830954533
  O   -2.16052533838712     -0.51571984307242     -1.21178159360177
  O   -1.68484119197222      1.54297408275525     -0.62728286577034
  N   -0.38396888530318      0.69438367943890      1.57375204050472
  H   -0.50207223389179      1.64115384686094      1.22925141772585
  H   -1.03486276156150      0.53297197490502      2.32909863675419
