15
Coordinates from ORCA-job run
  C   0.65462766937996     -0.14370189783031     -0.47990151041732
  C   -0.53152342102683      0.28581671227185      0.43352323352350
  Br  0.04334902131380     -0.51698081479809     -2.31201832223931
  H   -0.09251280902933      0.58795565189683      1.38799635373473
  C   1.52259099779304      1.04143915333802     -0.58643774433659
  N   2.22881336605760      1.98263880586094     -0.59151858294438
  N   1.27933569018222     -1.32350552493040      0.02837156631634
  H   2.14769546712692     -1.52868119181120     -0.44876260350613
  H   1.42549468419275     -1.27349238358934      1.03036228278724
  N   -1.33165194017463     -0.95063453604146      0.75531281299264
  O   -1.02138148386678     -1.55035396020851      1.78175000010202
  O   -2.21455225784797     -1.25682428833974     -0.03547418791264
  N   -1.40345906237005      1.30110139207236     -0.03224343808997
  H   -0.98704837912057      2.21823414491021      0.04552155755758
  H   -1.72077754261009      1.12698873719885     -0.97648141756772
