15
Coordinates from ORCA-job run
  C   0.76854214665675     -0.05079662831223     -0.39292993759004
  C   -0.44050530002050      0.29070499400587      0.50200758804129
  Br  -0.02561911812437     -0.64769737914938     -2.19324779594522
  H   -0.05153946680195      0.44098385753374      1.51330336519321
  C   1.49301976072686      1.17722416746569     -0.71663687285923
  N   2.15049361878339      2.11946643331769     -0.96349030248298
  N   1.64379499136512     -0.97699393432624      0.18711423323850
  H   2.45644241369231     -1.16052329170775     -0.38586818305603
  H   1.17871687299294     -1.82760818481552      0.47600588117145
  N   -1.33448269420868     -0.96830175458059      0.63482270228051
  O   -2.51076088608473     -0.85422295437131      0.32168690663961
  O   -0.80318042313354     -1.98364841461769      1.08046314271877
  N   -1.12858125300217      1.42766979608447      0.04787486832870
  H   -1.80319200406308      1.75444954606852      0.72484975362120
  H   -1.59214865877838      1.25929374740470     -0.83595534929973
