15
Coordinates from ORCA-job run
  C   0.74045040078273     -0.07140391526693     -0.36383247317963
  C   -0.55681324438276      0.24051800610288      0.42067059673568
  Br  0.27417888563152     -0.42497750255764     -2.31253451545170
  H   -0.23116493929427      0.54978935588390      1.41734387272077
  C   1.49497178793599      1.18255419128270     -0.40800769383209
  N   2.09670161554325      2.19211929946178     -0.39868687198015
  N   1.51191301225999     -1.07790739032507      0.24787616893636
  H   1.04636861423859     -1.97515237786414      0.19592961507918
  H   2.44619027021372     -1.13497415488741     -0.13587476378302
  N   -1.35264571968871     -1.03980444896871      0.70877643887143
  O   -2.23269153775832     -0.91541643662297      1.54646959564210
  O   -1.07582186629077     -2.07151983826917      0.09841770924190
  N   -1.42769494298880      1.20559127042627     -0.12988375426493
  H   -1.29713659017885      2.12720261481721      0.25380596328621
  H   -1.43880574602327      1.21338132678732     -1.13946988802216
