15
Coordinates from ORCA-job run
  C   0.73589116723293     -0.08255742650403     -0.45689890856473
  C   -0.51837950344168      0.33151162399720      0.34027124981708
  Br  0.25927769747383     -0.65520012588437     -2.27789411335599
  H   -0.17480074476337      0.74867199960011      1.29109415587895
  C   1.56006069316253      1.12615041362081     -0.61532802515988
  N   2.28871771035376      2.04788230843011     -0.67010971513408
  N   1.39216061384248     -1.18627961666227      0.17959812039247
  H   2.27216281964578     -1.39683359126585     -0.27456470665999
  H   1.54620021989219     -1.00395366229907      1.16568335038416
  N   -1.25415891420003     -0.94429070333079      0.75780008196416
  O   -2.10580514236902     -1.37158165618729     -0.01386602145839
  O   -0.93888173513671     -1.42576020837457      1.84258287328132
  N   -1.30572321077802      1.26946328410874     -0.35632539317360
  H   -1.99821352597901      1.69620404171823      0.24379869134528
  H   -1.75750814493567      0.84757331903307     -1.15784163955676
