15
Coordinates from ORCA-job run
  C   0.70649148267461     -0.10033461133316     -0.41206714376086
  C   -0.59090199333530      0.25134658088257      0.37535450277674
  Br  0.30496013119076     -0.54308507722295     -2.28564766895481
  H   -0.26909294789071      0.59933392063409      1.36042601038920
  C   1.49165038576869      1.14489483426918     -0.45910628252087
  N   2.12426452042165      2.13615327167162     -0.41628454293369
  N   1.36388537695310     -1.22339795109881      0.17789298711803
  H   1.41294255111600     -1.14561199128281      1.18761857917774
  H   2.28565525138403     -1.37065504976913     -0.21273165765790
  N   -1.32458124986831     -1.03721246592634      0.64529378116949
  O   -2.10000163783741     -1.42121958769676     -0.22075579333084
  O   -1.07201496624969     -1.59762061251285      1.70903819731465
  N   -1.48678938563939      1.19103093283300     -0.19262015451425
  H   -1.14628368069617      2.13767613291236     -0.10004328270703
  H   -1.70118383799186      0.97670167363998     -1.15736753156559
