16

C	-0.524643	-0.005243	-1.418497
C	0.0	0.0	0.0
Br	0.118037	-1.631583	-2.313046
H	1.090441	0.0	0.0
H	-0.004396	0.810668	-1.920609
C	-2.029436	0.102536	-1.601276
H	-2.535959	-0.775066	-1.205188
H	-2.264935	0.200958	-2.663557
H	-2.396252	0.986748	-1.075105
N	-0.46168	-1.169964	0.80748
O	-1.678177	-1.326679	0.934524
O	0.393734	-1.900313	1.29808
N	-0.384574	1.193105	0.699483
O	-0.388057	2.247355	0.029936
O	-0.494912	1.144738	1.938889
H	2.436165	0.0	0.0
