16

C	-0.515346	-0.027466	-1.415441
C	0.0	0.0	0.0
Br	0.408375	1.384327	-2.455062
H	1.087528	0.0	0.0
H	-1.559782	0.283398	-1.444155
C	-0.274813	-1.352693	-2.114935
H	-0.559029	-1.272893	-3.165503
H	-0.866994	-2.14386	-1.651136
H	0.77915	-1.622245	-2.043165
N	-0.39631	-1.217346	0.728045
O	0.311803	-2.21087	0.54522
O	-1.411418	-1.191576	1.436306
N	-0.467656	1.148151	0.769148
O	-1.178647	2.003858	0.224662
O	-0.007784	1.231902	1.915182
H	2.442423	0.0	0.0
