16

C	-0.538723	-0.003337	-1.406949
C	0.0	0.0	0.0
Br	0.425269	1.377935	-2.457985
H	1.087543	0.0	0.0
H	-1.569544	0.354295	-1.412959
C	-0.37733	-1.329669	-2.126201
H	0.665194	-1.650676	-2.088389
H	-0.688758	-1.219145	-3.166828
H	-0.994762	-2.099283	-1.654187
N	-0.386677	-1.221188	0.724429
O	0.295914	-2.224049	0.489768
O	-1.359324	-1.190152	1.489355
N	-0.44214	1.148216	0.7836
O	0.043498	1.22522	1.919007
O	-1.156855	2.013067	0.257351
H	2.42126	0.0	0.0
