16

C	-0.523915	-0.013909	-1.413509
C	0.0	0.0	0.0
Br	0.375627	1.415624	-2.444534
H	1.087533	0.0	0.0
H	-1.575422	0.274351	-1.432413
C	-0.257454	-1.33133	-2.11921
H	-0.838828	-2.134535	-1.661407
H	-0.54045	-1.251086	-3.169987
H	0.801838	-1.580974	-2.044262
N	-0.407327	-1.23951	0.697885
O	-1.475779	-1.242562	1.322705
O	0.336566	-2.214641	0.564853
N	-0.48717	1.117853	0.798673
O	-0.072867	1.155146	1.961971
O	-1.188696	1.99124	0.26906
H	2.458722	0.0	0.0
