16

C	-0.528524	-0.009015	-1.411222
C	0.0	0.0	0.0
Br	0.428497	1.387298	-2.448941
H	1.087547	0.0	0.0
H	-1.561486	0.339236	-1.425336
C	-0.348841	-1.3296	-2.134304
H	-0.959525	-2.10594	-1.668612
H	-0.657054	-1.218305	-3.175788
H	0.695172	-1.640118	-2.093043
N	-0.376535	-1.214223	0.73408
O	0.282929	-2.22541	0.462958
O	-1.304173	-1.172828	1.555173
N	-0.45629	1.155255	0.773539
O	-1.225511	1.978701	0.257535
O	0.055012	1.269477	1.892532
H	2.414978	0.0	0.0
