16

C	-0.446086	-0.003391	-1.432689
C	0.0	0.0	0.0
Br	-2.407978	0.253724	-1.621436
H	1.091679	0.0	0.0
H	-0.290303	-1.019014	-1.793838
C	0.296426	0.995583	-2.293765
H	0.082182	0.806788	-3.349121
H	0.020636	2.019498	-2.046764
H	1.366962	0.867221	-2.090777
N	-0.366103	-1.20435	0.747342
O	-0.845401	-2.167058	0.131452
O	-0.014617	-1.22933	1.929513
N	-0.420443	1.209076	0.726659
O	-1.26723	1.140242	1.616396
O	0.125598	2.248796	0.347371
H	2.451058	0.0	0.0
