16

C	-0.522283	-0.006604	-1.414986
C	0.0	0.0	0.0
Br	0.376971	1.431018	-2.43378
H	1.087541	0.0	0.0
H	-1.575177	0.279944	-1.433315
C	-0.252789	-1.319802	-2.127038
H	0.805737	-1.569971	-2.04737
H	-0.836091	-2.126179	-1.677867
H	-0.528896	-1.233887	-3.179116
N	-0.406191	-1.242088	0.6921
O	-1.470603	-1.247933	1.325039
O	0.335708	-2.217636	0.547719
N	-0.487171	1.115511	0.80286
O	-0.06953	1.147475	1.966928
O	-1.185811	1.992209	0.276349
H	2.457155	0.0	0.0
