16

C	-0.382168	0.011376	-1.448084
C	0.0	0.0	0.0
Br	-2.309255	-0.304081	-1.773149
H	1.09152	0.0	0.0
H	0.092339	-0.875607	-1.866316
C	0.098924	1.251453	-2.170999
H	1.157491	1.381534	-1.920047
H	-0.004327	1.121169	-3.250019
H	-0.462283	2.130351	-1.861208
N	-0.370992	-1.258538	0.658275
O	-0.9082	-1.252233	1.766229
O	-0.050918	-2.273911	0.033211
N	-0.423802	1.144586	0.803356
O	-1.244184	1.947886	0.337717
O	0.144639	1.271553	1.891394
H	2.432682	0.0	0.0
