12
Coordinates from ORCA-job run
  C   0.58471764670981     -0.29519740609066     -0.22319901868217
  C   -0.43551955674618     -0.08763071472930      0.61991828750133
  H   -0.44132253256616     -0.68889331830437      1.52574243551456
  C   0.76997554283987      0.39243464806396     -1.46057068516924
  N   0.85869454206455      0.99190324359646     -2.46840217298863
  N   1.63519685015846     -1.29110950680881      0.10308273613387
  O   2.57875412470878     -1.35306115982814     -0.67892206139977
  O   1.48620254127533     -1.96190179707759      1.11518176524838
  C   -1.53785817034201      0.88873534527293      0.39636371161006
  H   -2.49968101630140      0.36802203196668      0.40246531647404
  H   -1.56510015686112      1.61276671584753      1.21584950597685
  H   -1.43405981493994      1.42593191809131     -0.54650982021928
