12
Coordinates from ORCA-job run
  C   0.64641207813192     -0.20273622458171     -0.14200124864399
  C   -0.58766732426076     -0.32083380003879      0.36512069256635
  H   -0.80807231070186     -1.24858006437309      0.88692186477368
  C   1.12589466659463      0.93689254309437     -0.85587832623978
  N   1.45470728935847      1.90806296058492     -1.43151577094956
  N   1.62947762989743     -1.30326157925379      0.01431773556669
  O   2.72243039682383     -1.12652943806370     -0.51506094734100
  O   1.28093033662959     -2.29019996613414      0.64741402863910
  C   -1.64985498759504      0.71869076879560      0.26661762098324
  H   -1.93871328074660      1.04786783424366      1.26942174429999
  H   -2.54449178026459      0.29248073194799     -0.19618096608008
  H   -1.33105271386702      1.58714623377869     -0.31017642757464
