12
Coordinates from ORCA-job run
  C   0.71312911191201      0.11615566786125     -0.36874507316954
  C   -0.55830119174918      0.54890948065379     -0.33425488376535
  H   -0.78823800728665      1.33692845795594     -1.04880122782678
  C   1.68679298668722      0.62077219685607     -1.28481676810984
  N   2.46415187283939      1.07316082684724     -2.04182890353441
  N   1.21116237304551     -0.96336542956504      0.50502875447481
  O   2.09402163803992     -1.67642056935698      0.03780653145824
  O   0.70309877633623     -1.06640855946673      1.61755375757800
  C   -1.66663661519744      0.08170110321691      0.55115318391839
  H   -1.58327164882896     -0.97399656220542      0.80349171364928
  H   -1.64715282964467      0.63600273649494      1.49446019661527
  H   -2.62675646615340      0.26756065070801      0.06895271871191
