12
Coordinates from ORCA-job run
  C   0.64798909188493     -0.17968516074501     -0.16271787455320
  C   -0.64126570888196     -0.39066864556794      0.13395919374620
  H   -0.96290582178426     -1.42835441832957      0.17500113079509
  C   1.26054176986682      1.10612880654763     -0.26143154338066
  N   1.70012756063413      2.19465076253432     -0.33020833746294
  N   1.55906049180436     -1.32668740604503     -0.40191124778477
  O   2.73949957900925     -1.04613455279139     -0.58513470751501
  O   1.07227649199436     -2.44900310518721     -0.39543060117052
  C   -1.63822705871829      0.68254857991979      0.40258662212360
  H   -2.46903947952007      0.60222848754778     -0.30429428343912
  H   -1.20705655870848      1.68092500478231      0.32742608539268
  H   -2.06100035758078      0.55405164733434      1.40315556324864
