12
Coordinates from ORCA-job run
  C   0.64116073607546     -0.21566936861067     -0.14498129028732
  C   -0.58331251607354     -0.29672643660032      0.39238091018533
  H   -0.80423839814017     -1.19962984946820      0.95589961840068
  C   1.11923063945332      0.88607513654110     -0.91694692467519
  N   1.44930895092258      1.82654797900778     -1.54091174306847
  N   1.61450080831738     -1.32099909123496      0.03716483921702
  O   1.26468989853904     -2.27994170350334      0.71143265640886
  O   2.70122637173500     -1.17666555137706     -0.51441290599784
  C   -1.63627157506994      0.74956746514179      0.26937735018296
  H   -1.31859978185944      1.59046107362807     -0.34698297829671
  H   -1.90679979159221      1.12136332710301      1.26194499260405
  H   -2.54189534230750      0.31461701937280     -0.16296452467337
