12
Coordinates from ORCA-job run
  C   0.62955049547697     -0.21086103227857     -0.19653929165609
  C   -0.55404266282758     -0.30737621648954      0.42330087939235
  H   -0.72673816111641     -1.21350358749135      0.99833557276919
  C   1.04110878815296      0.89862399443944     -0.99438350273431
  N   1.32243494790773      1.84740206840480     -1.62937306278844
  N   1.63256919897403     -1.29594471128793     -0.06807923289459
  O   2.69528803475521     -1.11684452776009     -0.65517270784063
  O   1.32957670815605     -2.27461568783928      0.59998743910674
  C   -1.62470420281617      0.72675409266900      0.37651366512174
  H   -2.55294655392755      0.28583671681634      0.00190527317197
  H   -1.83651029969031      1.08069591822488      1.38975411663924
  H   -1.35658629304493      1.57983297259232     -0.24624914828717
