12
Coordinates from ORCA-job run
  C   0.72865623732792      0.19656372194510     -0.29721546817200
  C   -0.55773714464885      0.58269450599125     -0.27414615353790
  H   -0.76733029821660      1.49584886942417     -0.82784839988011
  C   1.75504044156028      0.93106996342560     -0.96703191344180
  N   2.56916229290917      1.55303400359039     -1.54352023870758
  N   1.21310699952062     -1.00100681021000      0.41589424165264
  O   2.35844702283056     -0.94620970180234      0.85342522762276
  O   0.43686487495569     -1.94596398554027      0.52031558796461
  C   -1.70631620872779     -0.08342093189020      0.40949412806788
  H   -2.13759106975879     -0.84500404237704     -0.24730684380896
  H   -2.48134662626939      0.65127880615511      0.62956297549093
  H   -1.41095652148281     -0.58888439871177      1.32737685674951
