12
Coordinates from ORCA-job run
  C   0.72251457401231      0.11829086514084     -0.34825670409799
  C   -0.40394249564718      0.74812999894492      0.02427600175623
  H   -0.42670452603256      1.81071783998387     -0.20977146427533
  C   1.79766353010923      0.77473012398713     -1.02254940432668
  N   2.66755262028434      1.35172788542224     -1.56317531765251
  N   0.93270536307244     -1.32676476633236     -0.14233218492893
  O   1.61341071821742     -1.90357638156179     -0.98502833833718
  O   0.41038011283868     -1.83499490242719      0.84554577738330
  C   -1.60050810431714      0.17003898877770      0.70544848926884
  H   -1.45168878944668      0.18795621724520      1.78955874782328
  H   -2.48205912244477      0.76999179253203      0.47638544784161
  H   -1.78032388064612     -0.86724766171259      0.42889894954536
