12
Coordinates from ORCA-job run
  C   0.73082534473521      0.17351130802908     -0.30581871751871
  C   -0.53152031952707      0.62578518142839     -0.22610877700133
  H   -0.70401524295582      1.57827448012743     -0.72347129712455
  C   1.77865024887986      0.88892429698155     -0.96301505263128
  N   2.61043358200416      1.49834310706481     -1.52756777828586
  N   1.16665416919649     -1.08618720919777      0.32683799983789
  O   2.32425254665240     -1.11760759475212      0.73333777096495
  O   0.34237392214176     -1.99240648887566      0.40218089465822
  C   -1.69785863600370     -0.01499158286536      0.45176564461195
  H   -2.18701424430141     -0.71345538165336     -0.23413174295729
  H   -2.42490264846332      0.74683948455897      0.73446021285442
  H   -1.40787872235856     -0.58702960084596      1.33153084259159
