12
Coordinates from ORCA-job run
  C   0.70631620947444      0.09508220630956     -0.38710683660276
  C   -0.57365362086179      0.50254286087620     -0.37949666871498
  H   -0.82785078859849      1.21445602123786     -1.16234978440382
  C   1.66130180140974      0.53076286246953     -1.35654828766044
  N   2.42270817344799      0.92496608025003     -2.16079693168142
  N   1.23502781887433     -0.88656655725909      0.57956929414818
  O   0.74319601260173     -0.88990478352612      1.70402249261126
  O   2.12444900446073     -1.62663797642326      0.17036535569285
  C   -1.66227157702438      0.09940327089404      0.56014588272919
  H   -2.63155424184325      0.21962981512385      0.07553156603539
  H   -1.55425825131929     -0.92576394378216      0.91033896596041
  H   -1.64341054062177      0.74103014382955      1.44632495188615
