12
Coordinates from ORCA-job run
  C   0.64142482084823     -0.19945195401306     -0.16784749909605
  C   -0.60865515942186     -0.35837873098084      0.28691268281517
  H   -0.88141924767255     -1.36057178793488      0.60789667617939
  C   1.18670667595639      1.03521436808098     -0.63301268447189
  N   1.57149237003346      2.08346242886921     -1.00167787884702
  N   1.57337843704545     -1.35323555003092     -0.21584310007126
  O   1.15555916072771     -2.43666600307944      0.16851277128209
  O   2.69917323306557     -1.11738711532774     -0.64357116220908
  C   -1.62530649983793      0.72650879005836      0.37625685053216
  H   -2.50458366043647      0.45867972379202     -0.21694910980654
  H   -1.24347696632585      1.68639872305739      0.02832686905426
  H   -1.96329316398212      0.83442710750892      1.41099558463877
