12
Coordinates from ORCA-job run
  C   0.63673992211521     -0.22826094398045     -0.15443423569137
  C   -0.63473003831156     -0.33725540847932      0.25333460746398
  H   -0.95806704852830     -1.33073730622199      0.54992571657285
  C   1.25788067838189      0.99259245548213     -0.55914648174561
  N   1.68987798273520      2.04607884797576     -0.85239666355641
  N   1.51900855419490     -1.42157762620715     -0.18046511492404
  O   1.05897183698301     -2.47625168616159      0.23525494564451
  O   2.64898291777109     -1.24525876359942     -0.62586924545540
  C   -1.60506248823610      0.79083329621972      0.31729525344015
  H   -2.06749374812894      0.82531579427783      1.30737642331880
  H   -2.40914169308182      0.63201728925406     -0.40771325798361
  H   -1.13496687589459      1.75450405144042      0.11683805291615
