12
Coordinates from ORCA-job run
  C   0.69929925452975      0.16676258039584     -0.37034369222540
  C   -0.62800489233474      0.36535649610513     -0.44525463148011
  H   -0.94161391110170      0.98768705716779     -1.28101627964413
  C   1.62295058026645      0.73393567281142     -1.30249673410266
  N   2.34490295520933      1.20723602817936     -2.10043162006641
  N   1.33424767550990     -0.62212527763987      0.70235532506217
  O   0.64534483096420     -1.46825282400562      1.26367429197001
  O   2.50705768060541     -0.35747434663100      0.95033207302922
  C   -1.69131415829087     -0.14657800881865      0.47181113834832
  H   -1.40125119682667     -0.05970675516608      1.51923854441828
  H   -2.61855758717961      0.40051511002060      0.30674350722027
  H   -1.87306123135145     -1.20835573241892      0.28738807747043
