12
Coordinates from ORCA-job run
  C   0.73335772549436      0.16119740602334     -0.30931916989965
  C   -0.38609610579943      0.74389531549294      0.15124121717343
  H   -0.36846547965133      1.83178586122039      0.14678193682199
  C   1.88071150656783      0.89580839302940     -0.73936459783467
  N   2.79844403237259      1.53332617824041     -1.10416330882386
  N   0.90480037288282     -1.30437219789801     -0.35583177785386
  O   -0.09731055836100     -1.98257700848846     -0.56195833198938
  O   2.04426988880521     -1.72245854982685     -0.17091195146415
  C   -1.62921591482001      0.08301056366899      0.65010819060674
  H   -1.43316199313901     -0.87257811365093      1.13269885706663
  H   -2.14257328871703      0.74480241884992      1.34852475251237
  H   -2.30576018563499     -0.11184026666113     -0.18780581631559
