18

C	-0.61282	-0.030857	-1.407964
C	0.0	0.0	0.0
Cl	0.154218	-1.342677	-2.343009
H	1.096939	0.0	0.0
N	-2.035369	-0.205063	-1.461083
H	-2.462398	0.685706	-1.236858
H	-2.22969	-0.868178	-0.714052
N	-0.281881	1.290953	-2.106847
O	0.807625	1.418797	-2.638126
O	-1.13623	2.176001	-2.010079
N	-0.487935	-1.23418	0.654416
H	0.21659	-1.945312	0.469882
H	-0.448424	-1.074614	1.655408
C	-0.458099	1.210064	0.793733
H	0.026072	1.16138	1.774024
H	-0.132129	2.142381	0.331441
H	-1.544248	1.238548	0.935053
H	2.896368	0.0	0.0
