18

C	-0.485722	0.018913	-1.42381
C	0.0	0.0	0.0
Cl	-2.364891	-0.338468	-1.452984
H	1.09194	0.0	0.0
N	-0.180342	1.174157	-2.140268
H	-0.475573	1.091053	-3.103809
H	-0.561551	1.998605	-1.703033
N	0.070872	-1.136787	-2.253713
O	-0.140462	-1.07098	-3.465547
O	0.695719	-2.01736	-1.686698
N	-0.449011	-1.206562	0.684821
H	0.379122	-1.65881	1.055994
H	-1.063765	-0.970058	1.452736
C	-0.390933	1.278598	0.729058
H	0.091343	2.154391	0.287039
H	-1.476794	1.42584	0.765252
H	-0.006641	1.204164	1.749126
H	2.796961	0.0	0.0
