18

C	-0.247618	0.042521	-1.509462
C	0.0	0.0	0.0
Cl	-1.981838	0.395833	-1.968255
H	1.097121	0.0	0.0
N	0.614372	0.981039	-2.077187
H	0.66794	0.888248	-3.083023
H	1.546736	0.855826	-1.652418
N	-0.023688	-1.391787	-2.111592
O	0.987601	-1.542307	-2.791838
O	-0.831529	-2.277307	-1.845632
N	-0.477922	-1.15325	0.734047
H	0.178867	-1.913948	0.61295
H	-1.376115	-1.460756	0.383668
C	-0.477936	1.28407	0.656959
H	0.003334	1.344966	1.635438
H	-0.203614	2.159964	0.067981
H	-1.562821	1.27106	0.801302
H	2.82602	0.0	0.0
