18

C	-0.267854	0.137166	-1.501369
C	0.0	0.0	0.0
Cl	-1.880048	0.897855	-1.922075
H	1.096011	0.0	0.0
N	0.76792	0.881782	-2.058164
H	0.810397	0.823413	-3.066108
H	1.665567	0.630024	-1.611895
N	-0.375866	-1.308644	-2.095171
O	0.696736	-1.787196	-2.451341
O	-1.453734	-1.882367	-2.120145
N	-0.452008	-1.259389	0.552882
H	0.267458	-1.599417	1.178616
H	-1.315872	-1.148097	1.068261
C	-0.434628	1.238383	0.764059
H	-1.520609	1.266848	0.905613
H	0.054937	1.225196	1.74244
H	-0.126703	2.144217	0.238435
H	2.825086	0.0	0.0
