18
Coordinates from ORCA-job run
  C   0.72057692532889     -0.45264636800616     -0.30876250271420
  C   -0.35563865684045      0.35862713385168      0.42255818566955
  Cl  -0.11066424759079     -1.61959499655097     -1.47965352346158
  H   0.21280177113063      0.88873582253833      1.19952473490713
  N   1.62016599585757      0.41252902253549     -1.00614834949546
  H   2.35195116152444     -0.13296922316494     -1.44705052226926
  H   1.14627706190642      0.94263824844446     -1.72688079525946
  N   1.41637922723953     -1.30386215474068      0.63004487800810
  H   2.07025486576081     -0.72159992364673      1.14347488458180
  H   1.93725866652009     -2.02110136197101      0.13939729635528
  C   -1.38944074097135     -0.52876315739971      1.10777399339113
  H   -1.95756820765534      0.06198675930539      1.83136858131298
  H   -0.90559664178021     -1.35397709670264      1.62898389927716
  H   -2.09322935482075     -0.94027855770595      0.38192093114025
  C   -1.02736375046248      1.40142518103858     -0.46652705211768
  H   -1.82943173594217      1.89552454372874      0.08662560295017
  H   -0.33279138722167      2.17974616933995     -0.78959584930191
  H   -1.47394095198318      0.93157995910616     -1.34705439297400
