18
Coordinates from ORCA-job run
  C   0.94679335633970     -0.12016631952554     -0.12157156070613
  C   -0.31339114737319      0.48506606876974      0.50566164093014
  Cl  2.20776388251712      1.23973902563774     -0.22143041444796
  H   0.03532933498218      1.00962258102311      1.39989777173073
  N   1.53865667706247     -1.09360126396555      0.77065684413671
  H   1.06920392639640     -1.98035093575378      0.62122786306001
  H   2.52214043009021     -1.21208286697334      0.56000203474279
  N   0.67451525375381     -0.66816944585733     -1.40938178331220
  H   0.32157428448084      0.03150728300471     -2.05033492646076
  H   1.51359935664608     -1.07427096051090     -1.80611947442525
  C   -1.27599724067138     -0.62110017413764      0.93754881092706
  H   -2.18817992649211     -0.17856979704453      1.34601065712732
  H   -1.55337300548869     -1.24718064439667      0.08610124654961
  H   -0.83630540945244     -1.24741604205087      1.71491175048920
  C   -1.01909491212449      1.47786636341086     -0.41453117918985
  H   -1.79709500097342      2.00639858146986      0.14123914844329
  H   -0.33177741964333      2.22588243733404     -0.81437244009573
  H   -1.51236244004975      0.96482610956610     -1.24551598949900
