18
Coordinates from ORCA-job run
  C   0.91020329845240     -0.17505867412430     -0.41477932348723
  C   -0.50468576555624      0.41412823470923     -0.26217433192769
  Cl  1.92031555176845      1.15454229699904     -1.25822557533702
  H   -0.77539409509168      0.80568660864904     -1.24926895966082
  N   1.45322030570767     -0.55355951716024      0.83546736477509
  H   2.36930265289247     -0.96104686019754      0.69198974129084
  H   1.52602084898007      0.22863497349855      1.47109930968472
  N   1.04341023548882     -1.31460792294609     -1.28420027518613
  H   0.68490092680668     -1.10828702846102     -2.20771534647695
  H   0.53555278653018     -2.09411012635362     -0.88386098918103
  C   -0.56666912568855      1.56090553180668      0.74503123728829
  H   -0.45760534420539      1.18832470186463      1.76788591152116
  H   0.20055653137968      2.31272592467792      0.55530971231865
  H   -1.53980291201364      2.05443245812838      0.68684956246063
  C   -1.50426798002457     -0.67631338092242      0.12513758138015
  H   -2.48937445046336     -0.23384847815913      0.29335275804651
  H   -1.19040263394160     -1.17414417989874      1.04521245014849
  H   -1.61728083102140     -1.42840456211034     -0.65811082765767
