18
Coordinates from ORCA-job run
  C   0.74278862794670     -0.41882497259891     -0.36050136254451
  C   -0.66414348638991      0.00116552889952      0.07576054814665
  Cl  1.96604724075156      0.91434764351283      0.38207070028947
  H   -1.28869189898564     -0.78205021406193     -0.37109128131195
  N   1.09633313291693     -1.68458836942603      0.15758629064883
  H   2.00110174639950     -1.98227618244721     -0.18744894231923
  H   1.14167617066057     -1.65936658131434      1.16637634390849
  N   0.87912384050290     -0.41353160664158     -1.76655179854823
  H   0.76934713787551      0.52093496270305     -2.13407557564673
  H   1.79101958618520     -0.75360317198642     -2.04775021421099
  C   -1.09841469252566      1.34604084406779     -0.49996697979850
  H   -0.45150622642578      2.15344457770037     -0.15246567159822
  H   -2.11879103965026      1.56614505379704     -0.17749068919710
  H   -1.10804999174650      1.34278912670635     -1.59215442595722
  C   -0.86266399880785     -0.03342946174381      1.58841922271279
  H   -1.89267591391156      0.24314473186239      1.82545853017818
  H   -0.70234612957060     -1.03145173063894      2.00221852435351
  H   -0.19815410522513      0.67110982160985      2.09160678089474
