18
Coordinates from ORCA-job run
  C   1.03911249380394     -0.06645011695893     -0.15933686282931
  C   -0.24525143727387      0.58320583768894      0.39379415299377
  Cl  2.35349108359772      0.21206373774564      1.05395153984923
  H   0.03581841443438      1.60468541848610      0.66841727855630
  N   1.00384105698913     -1.50728115383029     -0.35118904906888
  H   0.82879213236488     -1.99069845601071      0.52182017413889
  H   0.26473051687281     -1.74067017951174     -1.00591225367497
  N   1.44858527305929      0.61379517162480     -1.36200860220133
  H   0.75365233465456      0.46429258363078     -2.08522787644419
  H   2.31429382277559      0.18849718739337     -1.67758775849758
  C   -0.77455668350559     -0.13651132312938      1.63077953051606
  H   -0.00197286995782     -0.26851472819559      2.38957061561895
  H   -1.58441114884085      0.44442320796111      2.07845853504877
  H   -1.18325138261792     -1.11775316869376      1.37258777939788
  C   -1.34070670969592      0.66147616827097     -0.67140997751433
  H   -2.26317148115085      1.03843443840282     -0.22349919979228
  H   -1.07731650523707      1.34089540420333     -1.48367162261285
  H   -1.57167891027242     -0.32389002907747     -1.09053640348416
