13

C	0.0	0.0	0.0
C	-0.265284	0.120328	-1.552409
Cl	1.777435	0.0	0.0
H	0.548348	-0.447651	-2.011457
H	-0.398621	0.856013	0.532428
C	-0.424292	-1.274212	0.594423
N	-0.533278	-2.331348	1.094711
N	-0.052542	1.529123	-1.900466
H	-0.924041	2.016498	-1.703403
H	0.093502	1.574752	-2.905293
C	-1.473743	-0.398822	-2.224416
N	-2.129783	-0.757145	-3.138409
Cl	-3.020943	0.0	0.0
