13

C	0.0	0.0	0.0
C	-0.596725	0.206129	-1.40287
Cl	1.77306	0.0	0.0
H	-1.64404	0.488055	-1.199878
H	-0.337636	0.812097	0.646077
C	-0.434687	-1.275269	0.570946
N	-0.670853	-2.314875	1.062444
N	-0.498607	-1.032255	-2.178424
H	-0.566922	-0.814227	-3.165646
H	-1.3259	-1.57281	-1.938385
C	0.07014	1.310594	-2.088153
N	0.560113	2.208339	-2.665678
Cl	-3.445096	0.0	0.0
