13

C	0.0	0.0	0.0
C	-0.608533	0.18418	-1.401605
Cl	1.773229	0.0	0.0
H	-1.64371	0.507772	-1.198081
H	-0.33547	0.823722	0.631924
C	-0.428139	-1.2631	0.603631
N	-0.650129	-2.30014	1.107306
N	-0.564246	-1.079169	-2.141772
H	-0.721901	-0.886578	-3.124116
H	-1.372182	-1.609116	-1.820101
C	0.089154	1.240864	-2.131354
N	0.600167	2.099828	-2.748729
Cl	-3.443105	0.0	0.0
