13

C	0.0	0.0	0.0
C	-0.570063	-0.141863	-1.410831
Cl	1.78406	0.0	0.0
H	-1.662953	-0.109607	-1.233304
H	-0.336055	0.937657	0.438681
C	-0.41564	-1.121964	0.843057
N	-0.643164	-2.055356	1.517299
N	-0.198784	-1.41306	-2.00127
H	-0.947852	-1.744421	-2.593245
H	0.650873	-1.341676	-2.544613
C	-0.192761	1.022139	-2.225357
N	0.114373	1.918491	-2.920942
Cl	-3.466452	0.0	0.0
