13

C	0.0	0.0	0.0
C	-0.565599	-0.06862	-1.416678
Cl	1.784293	0.0	0.0
H	-1.65875	-0.045692	-1.241638
H	-0.348644	0.910585	0.489363
C	-0.410137	-1.167497	0.785134
N	-0.612385	-2.117602	1.443316
N	-0.195754	-1.309291	-2.069542
H	-0.923476	-1.584238	-2.714897
H	0.677869	-1.219005	-2.570939
C	-0.179785	1.132536	-2.172544
N	0.167667	2.043976	-2.82848
Cl	-3.448745	0.0	0.0
