12
Coordinates from ORCA-job run
  C   -0.14110413705170      1.25968983010930      0.15985519517715
  C   0.21965801924188     -0.03737191196922      0.15566105254102
  H   0.43349550534115      1.98080267827128      0.73116029518138
  C   -1.27503152166881      1.71389134693330     -0.57107584549280
  N   -2.21188394462813      2.09310028887815     -1.17471876490925
  C   -0.43026096013706     -1.16856759697594     -0.55663215685763
  H   0.27157552374627     -1.63251224701889     -1.25210356308331
  H   -1.30310906560758     -0.81393897631526     -1.10490433258923
  H   -0.73617577631138     -1.93892384193545      0.15371520122641
  N   1.42101665362059     -0.38746655496953      0.95405118526755
  O   1.98020266517661      0.49814602866373      1.59349836248870
  O   1.77061703827816     -1.56684904367147      0.91049337105001
