12
Coordinates from ORCA-job run
  C   -0.14522351690412      1.25932366681640      0.15738823657098
  C   0.21060441172355     -0.03908370485164      0.16785357610244
  H   0.39313768112518      1.97509735585070      0.76919117733410
  C   -1.22522395420265      1.72332232403044     -0.64563468315007
  N   -2.11786343048911      2.11297247754374     -1.30693701074698
  C   -0.39607707438856     -1.16292672212948     -0.59271463910044
  H   0.35035148602457     -1.63259512942626     -1.23599144145882
  H   -1.22304197524847     -0.79923756789932     -1.20286443044385
  H   -0.76066559027589     -1.93122665797623      0.09173039122767
  N   1.35076511438923     -0.40090580056804      1.04653215461738
  O   1.67776726898459     -1.58753649242660      1.04143894036056
  O   1.88546957926167      0.48279625103627      1.70900772868704
