12
Coordinates from ORCA-job run
  C   -0.12845079078640      1.25589263841548      0.19142429806058
  C   0.20216532508520     -0.04894639644561      0.17516244104088
  H   0.40084685669919      1.94187215085909      0.84421627083217
  C   -1.17399247254661      1.76425331310195     -0.63010522209223
  N   -2.03748292977021      2.19209942722091     -1.30641040719778
  C   -0.39864972887659     -1.13778567774130     -0.63892525959608
  H   -0.78557895092659     -1.92632785329410      0.00921955703330
  H   -1.20854142944991     -0.74370529019157     -1.25289000817877
  H   0.35700603055011     -1.59192925426725     -1.28235386942549
  N   1.31078521163270     -0.45673992800641      1.07398905803634
  O   1.80740195882895      0.38654280660017      1.81422815795143
  O   1.65249091956016     -1.63722593625135      1.00444498353565
