12
Coordinates from ORCA-job run
  C   -0.76772674351688      0.91985890588803     -0.28669857312204
  C   -0.02328302317976     -0.15955147037114      0.01676544217619
  H   -1.75334336907521      0.75092577387660     -0.71105718425441
  C   -0.37639532474691      2.28148460515856     -0.13188557220576
  N   -0.13349954396100      3.43076230487522     -0.06019553444368
  C   -0.42314117849586     -1.57804657974353     -0.19422948670410
  H   -1.45758364797129     -1.63297664663337     -0.53379865702361
  H   0.22752171597144     -2.04823237868622     -0.93283863152939
  H   -0.32286350400560     -2.14264882679319      0.73603672720166
  N   1.33364921946742      0.02162275314937      0.56420026266180
  O   2.17112208808468     -0.80202547022917      0.19753198521767
  O   1.52654331142896      0.95782702950885      1.33516922202568
