12
Coordinates from ORCA-job run
  C   0.04842058816905      1.24730133824350     -0.27195743098469
  C   0.25615888528930     -0.03434224832836      0.08407215395030
  H   0.84972860985786      1.97253639813221     -0.17987680967882
  C   -1.21125431246823      1.67996125037505     -0.77415819534579
  N   -2.25124427284657      2.04298316510404     -1.18945318850108
  C   -0.70444188007172     -1.16770623436957      0.03774286235059
  H   -0.30812958232147     -1.97603588285865     -0.57967208189297
  H   -1.65835839698929     -0.83384181343054     -0.37054804271424
  H   -0.86035586952137     -1.57397025631851      1.03867991564337
  N   1.60835967891200     -0.36071772995647      0.60220540770249
  O   2.46870900969044      0.51431848018730      0.59080438910938
  O   1.76340754230001     -1.51048646677998      1.01316102036145
