12
Coordinates from ORCA-job run
  C   -0.06664933332642      1.27489790835729     -0.04272496135664
  C   0.24958180447469     -0.02528532771912      0.10495798981577
  H   0.64399574315519      2.04238163841947      0.24448409020431
  C   -1.32624336575630      1.67373952862344     -0.57273300550649
  N   -2.36627855500180      2.00920486000815     -1.01051905972024
  C   -0.57810882891836     -1.21461570367234     -0.22633340501411
  H   -1.54072200202920     -0.90045398110376     -0.63001293982284
  H   -0.06562133491856     -1.84187131311822     -0.95801489898790
  H   -0.73951266596562     -1.82482206637683      0.66414915623132
  N   1.59242389267787     -0.31479061665193      0.66791985490451
  O   1.87737297777506     -1.50565204247850      0.79306286748851
  O   2.31976166783346      0.62726711571235      0.96676431176381
