12
Coordinates from ORCA-job run
  C   0.09056859370159      1.21752076191637     -0.37710429923548
  C   0.25146042527163     -0.03203241469445      0.09747057430304
  H   0.91205374830041      1.92447715621249     -0.33314627897502
  C   -1.14564279614071      1.63974533992132     -0.94290904807327
  N   -2.16580220724472      1.99404015610384     -1.41153543862431
  C   -0.74141417194699     -1.13776972232627      0.12725500148699
  H   -0.90992528919752     -1.46908093383604      1.15352214130812
  H   -0.36756762304537     -1.99803660669720     -0.43103876554740
  H   -1.68476776509094     -0.80596321728835     -0.30648692310619
  N   1.58604932466474     -0.35323934686662      0.66270229174804
  O   1.72391683060819     -1.49581745052906      1.09927157667454
  O   2.45007093011971      0.51815627808399      0.66099916804094
