12
Coordinates from ORCA-job run
  C   -0.64892777534243      0.98100539513799     -0.36643840746026
  C   -0.03661088097238     -0.15782003852733      0.00693381983273
  H   -1.56587499707290      0.89651535730904     -0.94277736551940
  C   -0.19302131475369      2.30545653569096     -0.10368293132467
  N   0.11402523445435      3.43152050536792      0.04707552302574
  C   -0.49551032136584     -1.53707473735311     -0.31484391627149
  H   0.22862277042490     -2.03478351870512     -0.96130073391975
  H   -0.58060264443605     -2.13122620537454      0.59837895694797
  H   -1.46549888730583     -1.50685708211733     -0.81146195959575
  N   1.22801865604620     -0.09145918812221      0.76190530411344
  O   1.36243398760047      0.80704755624844      1.58820630280376
  O   2.05394617272319     -0.96432457955470      0.49700540736767
