12
Coordinates from ORCA-job run
  C   -0.05276135978646      1.27321582354279     -0.08895038369716
  C   0.24389354012562     -0.02351243825426      0.11839759994718
  H   0.64981115779446      2.04499760059432      0.20659795218413
  C   -1.28164317936056      1.66290338359414     -0.69290391487220
  N   -2.29683089317043      1.99055989676031     -1.19084899715956
  C   -0.57718559143233     -1.21722335233901     -0.21366895494279
  H   -1.51851089327437     -0.90961619172084     -0.66922692290172
  H   -0.03705944592212     -1.86949756398898     -0.90232644597461
  H   -0.78278690470453     -1.79906333290827      0.68670769349588
  N   1.55521674073071     -0.30366940734333      0.75506728609745
  O   1.83091623485712     -1.49225740298007      0.91754734497028
  O   2.26794059414290      0.64316298504322      1.07360774285313
