12
Coordinates from ORCA-job run
  C   -0.57658349260833      1.00021018456166     -0.43042530934350
  C   -0.03413696201033     -0.15800424244241     -0.01145486741910
  H   -1.34768036825505      0.95032442944379     -1.19397726841239
  C   -0.21512963197484      2.30602843332293      0.01151038278249
  N   0.02895264253227      3.42082849574001      0.29902204131225
  C   -0.38492857655341     -1.51431744703458     -0.51531005080292
  H   -1.22734791632615     -1.45561884033944     -1.20471141718553
  H   -0.64960831155193     -2.17130038071752      0.31690176473053
  H   0.47058218428166     -1.96110240734386     -1.02375299573737
  N   1.03895012738272     -0.13650805140829      0.99928054547169
  O   0.97588603287691      0.70362029275790      1.89279235445881
  O   1.92004427220649     -0.98416046654019      0.86012482014503
