12
Coordinates from ORCA-job run
  C   -0.68890741625089      0.95750162854008     -0.31116914056879
  C   0.00471468328246     -0.15662519824844     -0.00361712871217
  H   -1.66340857027968      0.81554446504210     -0.77046369648396
  C   -0.30705289968546      2.31448310746579     -0.10562796921829
  N   -0.11820212503130      3.47075338087773      0.00819703638196
  C   -0.47759484921931     -1.54437724872367     -0.25037750045626
  H   -1.45987280209296     -1.52132288408140     -0.72222970876304
  H   0.21969375948608     -2.08267439001084     -0.89474139007709
  H   -0.54043633617289     -2.09910843598962      0.68727613282678
  N   1.33905572148631     -0.06504217927104      0.62726651152017
  O   1.81534078871985      1.04772792360867      0.82972005635794
  O   1.87667004575781     -1.13786016920935      0.90476679719274
