12
Coordinates from ORCA-job run
  C   0.07187068450122      1.23509430745810     -0.31789785273409
  C   0.26446859735453     -0.04827444265160      0.03965525020648
  H   0.91444200877392      1.91593282053441     -0.37174399699063
  C   -1.22539559584635      1.72551955979024     -0.63893249856716
  N   -2.29655274047693      2.13511446665699     -0.90473770513145
  C   -0.74943061927536     -1.12627718399229      0.17849376404698
  H   -1.73025315491411     -0.76057070302665     -0.12561015955634
  H   -0.47585597615211     -1.98495938777358     -0.43805039427990
  H   -0.79521833373850     -1.47271028955004      1.21229052697865
  N   1.65845001690782     -0.43398560931229      0.36804540829980
  O   1.80007497548600     -1.53268425757257      0.90416230232790
  O   2.56340013737985      0.34880071943927      0.09432535539976
