12
Coordinates from ORCA-job run
  C   -0.73474093573070      0.89489876278673     -0.42170776267267
  C   -0.02576759919777     -0.15783132801339      0.02614223191918
  H   -1.81444267326991      0.78974075874884     -0.47901084227803
  C   -0.20637489143339      2.16222956572931     -0.80364984328711
  N   0.13540722124829      3.24364476355811     -1.11792382052714
  C   -0.59192222604909     -1.46130780104071      0.46982108048455
  H   -0.40369292681541     -1.61246493358103      1.53372762373537
  H   -1.66557370847144     -1.49146263147939      0.28342960028762
  H   -0.11390208362477     -2.28478704964970     -0.06656027656453
  N   1.43867287751106     -0.04851514906723      0.15329805166447
  O   1.93551109817383     -0.63216384161765      1.11606724063247
  O   2.04682584765930      0.59901888362612     -0.69463328339416
