12
Coordinates from ORCA-job run
  C   0.05429155343984      1.22290149311964     -0.36357323885038
  C   0.25991584257973     -0.03395452449131      0.07252388547410
  H   0.86957385164036      1.93839351036717     -0.36191858530700
  C   -1.22082633850220      1.64146316582028     -0.83854398745265
  N   -2.27298262500170      1.99352924234191     -1.23197368013659
  C   -0.71876398908487     -1.14982139142944      0.15362150108065
  H   -1.68240572139576     -0.83251419383115     -0.24500862462831
  H   -0.35876330611029     -2.01238511395770     -0.41055441763476
  H   -0.84231040134247     -1.47081873067456      1.18945964391075
  N   1.62875476310317     -0.34534607261281      0.55325127007317
  O   1.77304140375258     -1.44376828131181      1.08941793613348
  O   2.51147496692161      0.49232089665978      0.39429829733755
