15
Coordinates from ORCA-job run
  C   0.48542227699086     -0.90742728062511     -0.32660559987717
  C   -0.33629368877924      0.35270064787445     -0.14633223115120
  F   0.71715258090171     -1.50151297694390      0.87590173477997
  H   -0.45787776894151      0.77925553766520     -1.14575065147572
  H   0.03157067998684     -1.63209853907448     -1.00548110693182
  N   1.81150433568052     -0.53794026853440     -0.94342842371973
  O   2.82723615223789     -0.68601735118656     -0.28474979448007
  O   1.72325424897820     -0.10800627643345     -2.08880037800231
  N   0.46901162671642      1.28225678494816      0.63226300157702
  H   0.05130917216979      2.20332518909660      0.62544835689146
  H   0.53172753279872      0.97134174068250      1.59439345221307
  C   -1.70427348492603      0.00618269601584      0.43954569559758
  H   -2.30162199338350      0.91443155227660      0.54450074365459
  H   -1.59335078430995     -0.44688933790182      1.42703105742469
  H   -2.25677088612071     -0.68960211785965     -0.19893585650034
