15
Coordinates from ORCA-job run
  C   0.93197987450554     -0.04483471271302     -0.50849046940142
  C   -0.50984268571816      0.33440568750171     -0.20150058819661
  F   1.27822521970236      0.41684147709119     -1.74601670270635
  H   -1.10696838750344     -0.08780989448187     -1.01734642957978
  H   1.64730566931708      0.32523932457753      0.22773640234026
  N   1.07082816798076     -1.53918550445912     -0.51990727691977
  O   1.58460620538005     -2.04560851015369      0.47580138002730
  O   0.60271966716234     -2.13062220018978     -1.48654626619185
  N   -0.70074689446096      1.77548790583014     -0.21419881744148
  H   -0.36549731640952      2.17253759025584     -1.08321961076038
  H   -0.19626968311629      2.20926795837207      0.55077369472402
  C   -0.96771197171238     -0.24409791989313      1.12717082125594
  H   -0.31354929473712      0.07979608446499      1.94257082686186
  H   -0.97983534575878     -1.33453957401977      1.12037334681459
  H   -1.97624322463147      0.11512228781690      1.33279968917368
