15
Coordinates from ORCA-job run
  C   0.47709038471921     -0.48178365928652     -0.98563598899733
  C   -0.52008496677147      0.40262565984627     -0.25041796466877
  F   -0.13773440098916     -1.60750074715126     -1.44268455774501
  H   -1.26482290812933      0.66635402925528     -1.01992801203194
  H   0.95591707065994      0.02711785476409     -1.82383412958488
  N   1.60416528813021     -0.89144796813411     -0.07860606505526
  O   2.63893576304194     -0.24098939092992     -0.18150912768264
  O   1.39206529716012     -1.82088324452870      0.69260029228527
  N   0.20728730493350      1.54355240607033      0.28639794264279
  H   -0.39420526394580      2.07636791472119      0.90129569827109
  H   0.52626755135528      2.16200379221098     -0.44984506474612
  C   -1.23396096756182     -0.32858850408161      0.87574299004710
  H   -2.04976747090801      0.29588903542676      1.24945854904720
  H   -0.54570981950569     -0.53205788407979      1.69584210551119
  H   -1.65744286218891     -1.27065929410301      0.52912333270730
