15
Coordinates from ORCA-job run
  C   0.57106419278451     -0.90287108887183     -0.15495885712553
  C   -0.38414787048454      0.27277534389432     -0.19225765512286
  F   0.94542127421556     -1.17233812205882      1.12563302451231
  H   -0.61440588771307      0.44173932981989     -1.24774539798994
  H   0.16688322110805     -1.80915644156070     -0.61018334953594
  N   1.80269190067543     -0.55255689130706     -0.95198130245075
  O   2.86678446107415     -0.43534610035807     -0.36749337635894
  O   1.59442745751307     -0.41475311647958     -2.15290547381984
  N   0.34896377211447      1.43558578929711      0.28755702703610
  H   -0.17949469303153      2.28086820064542      0.11643307113888
  H   0.50978353108410      1.36088889529763      1.28503766260211
  C   -1.66352251574756     -0.06755292438377      0.57037764133851
  H   -1.44075577318903     -0.26350364949000      1.62146495227325
  H   -2.16460351166364     -0.94665182782742      0.15428857093219
  H   -2.35908955873996      0.77287260338289      0.51873346257045
