15
Coordinates from ORCA-job run
  C   0.43518172048057     -0.50007004244081     -0.99555276902574
  C   -0.52184179730507      0.40851123190536     -0.23789792215123
  F   -0.21256382514823     -1.61992575788790     -1.42121820838474
  H   -1.28874789413883      0.67412948640275     -0.98467957525936
  H   0.89609879834359     -0.00762939790763     -1.85338080822674
  N   1.58465174668486     -0.92188041811056     -0.12121835641762
  O   2.62950548317786     -0.29699443958868     -0.26987540583855
  O   1.37893503700646     -1.83617086346975      0.66953148055406
  N   0.24280935016283      1.54396617030161      0.25723037137715
  H   0.53891712570893      2.15146467962864     -0.49743334467937
  H   -0.32432060192667      2.09070099824809      0.89223062172121
  C   -1.20764948817668     -0.29577899824531      0.92226132127313
  H   -2.00104713156894      0.34619174200025      1.31411131812715
  H   -0.49490420246265     -0.49800940153301      1.72151240244742
  H   -1.65602432083804     -1.23650498930304      0.60437887448324
