14

C	0.0	0.0	0.0
C	-0.505324	0.020289	-1.43298
Cl	1.784619	0.0	0.0
H	0.112192	-0.599022	-2.06901
H	-0.309889	-0.976839	0.404808
N	-0.479204	1.14914	0.716642
H	-0.265558	1.058357	1.698615
H	-1.507176	1.070656	0.62377
N	-0.369295	1.397003	-2.010467
O	-1.361748	2.116482	-2.040197
O	0.746053	1.707563	-2.429079
C	-1.962314	-0.464471	-1.450416
N	-2.552548	-1.109782	-2.282301
H	-2.529414	0.0	0.0
