15

C	-0.549823	-0.05408	-1.428347
C	0.0	0.0	0.0
Cl	0.031129	1.296899	-2.450237
H	1.096924	0.0	0.0
H	-1.638882	0.03319	-1.375819
C	-0.240425	-1.319744	-2.09175
N	-0.031028	-2.33558	-2.642026
N	-0.535957	-1.209511	0.651907
H	0.146301	-1.951434	0.526618
H	-0.575099	-1.037861	1.649707
C	-0.50262	1.234138	0.725436
H	-0.217202	2.146587	0.202613
H	-0.051239	1.27248	1.720199
H	-1.593547	1.201036	0.831805
Br	3.59378	0.0	0.0
