15

C	-0.402074	-0.016944	-1.47549
C	0.0	0.0	0.0
Cl	-2.188122	-0.093798	-1.713316
H	1.10286	0.0	0.0
H	-0.001057	-0.920851	-1.938158
C	0.093162	1.145967	-2.208004
N	0.469381	2.078663	-2.813996
N	-0.482656	-1.245345	0.614838
H	0.268141	-1.927281	0.54368
H	-0.610396	-1.07992	1.606716
C	-0.523961	1.215095	0.737228
H	-1.613137	1.177012	0.829119
H	-0.239933	2.138268	0.228356
H	-0.081936	1.243359	1.736422
Br	3.554511	0.0	0.0
