15

C	-0.501734	-0.002962	-1.456605
C	0.0	0.0	0.0
Cl	0.09128	1.384892	-2.417384
H	1.095287	0.0	0.0
H	-1.59455	0.084931	-1.449618
C	-0.166412	-1.24727	-2.14914
N	0.070303	-2.251244	-2.709431
N	-0.42762	-1.218597	0.682001
H	-1.377687	-1.474576	0.435853
H	0.1885	-1.98292	0.430864
C	-0.51707	1.216947	0.747452
H	-1.6141	1.207191	0.802486
H	-0.19346	2.146896	0.278275
H	-0.121591	1.181798	1.762906
Br	3.578442	0.0	0.0
