15

C	-0.554561	-0.024653	-1.426534
C	0.0	0.0	0.0
Cl	0.056972	1.326725	-2.429329
H	1.100444	0.0	0.0
H	-1.641463	0.088124	-1.371201
C	-0.275851	-1.288852	-2.107483
N	-0.082038	-2.309476	-2.654751
N	-0.542815	-1.211675	0.641089
H	0.074332	-1.983821	0.404089
H	-0.449924	-1.090095	1.643263
C	-0.496774	1.224661	0.745969
H	-1.587378	1.193616	0.852888
H	-0.204466	2.143621	0.238114
H	-0.045052	1.245096	1.741557
Br	3.607823	0.0	0.0
