15

C	-0.504892	-0.007746	-1.454766
C	0.0	0.0	0.0
Cl	0.093943	1.371156	-2.4266
H	1.095277	0.0	0.0
H	-1.597477	0.087309	-1.445582
C	-0.183545	-1.258724	-2.142546
N	0.034131	-2.26788	-2.701965
N	-0.428177	-1.214463	0.687882
H	-1.376702	-1.474546	0.4412
H	0.190438	-1.978347	0.445054
C	-0.514315	1.22139	0.741718
H	-0.116918	1.190663	1.75621
H	-0.189686	2.148483	0.2677
H	-1.610716	1.213555	0.798734
Br	3.577894	0.0	0.0
