17

C	0.0	0.0	0.0
C	-0.279271	-0.125069	-1.541225
Br	1.962988	0.0	0.0
H	0.472291	0.518012	-2.009062
N	-0.515329	1.289097	0.519798
O	-0.536871	1.41489	1.759935
O	-0.495847	2.25387	-0.276631
N	-0.266767	-1.146645	0.823172
H	-1.265624	-1.109758	1.009831
H	0.24874	-1.032607	1.689133
C	-1.611196	0.280676	-2.195869
H	-1.413409	0.379624	-3.27408
H	-2.391841	-0.45754	-2.040234
H	-1.931551	1.240852	-1.800661
C	0.02505	-1.499577	-1.949255
N	0.191797	-2.58023	-2.377656
H	-2.098735	0.0	0.0
