17

C	0.0	0.0	0.0
C	-0.247181	0.159159	-1.540495
Br	1.992047	0.0	0.0
H	0.477591	0.915245	-1.854521
N	-0.475438	1.191647	0.736733
O	-0.496145	1.106845	1.977642
O	-0.467693	2.272811	0.111032
N	-0.254625	-1.27065	0.617351
H	-1.24664	-1.263882	0.840768
H	0.293772	-1.315545	1.471246
C	-1.588887	0.615461	-2.133776
H	-1.948867	1.486783	-1.593112
H	-2.340703	-0.167833	-2.103328
H	-1.393647	0.894835	-3.180798
C	0.138871	-1.094837	-2.197082
N	0.38011	-2.063775	-2.816555
H	-2.076572	0.0	0.0
