17

C	0.0	0.0	0.0
C	-0.240584	-0.022338	-1.548255
Br	1.997562	0.0	0.0
H	0.48495	0.692073	-1.948652
N	-0.477362	1.266098	0.593361
O	-0.505612	1.326636	1.835497
O	-0.47414	2.268127	-0.152609
N	-0.235917	-1.191314	0.768498
H	0.339038	-1.145932	1.603397
H	-1.21866	-1.177079	1.018023
C	-1.582704	0.363004	-2.188303
H	-1.394228	0.507032	-3.262839
H	-2.338754	-0.406065	-2.055365
H	-1.932547	1.296954	-1.755737
C	0.142245	-1.344365	-2.053371
N	0.369583	-2.382185	-2.55544
H	-2.011021	0.0	0.0
