12

C	0.0	0.0	0.0
C	-0.380425	-0.123179	-1.490989
F	1.372237	0.0	0.0
H	0.08522	0.736943	-1.991202
H	-0.373201	-0.83802	0.578105
C	-0.446585	1.27289	0.578184
N	-0.548288	2.342888	1.05304
C	-1.819152	-0.139542	-1.860389
N	-2.601469	-0.200788	-2.748085
C	0.274603	-1.322374	-2.035226
N	0.802626	-2.277531	-2.467841
F	-2.364417	0.0	0.0
