12

C	0.0	0.0	0.0
C	-0.372453	-0.127498	-1.493345
F	1.372243	0.0	0.0
H	0.113047	0.720198	-1.994645
H	-0.374358	-0.836009	0.579863
C	-0.449776	1.275148	0.570832
N	-0.54775	2.346693	1.043032
C	-1.805973	-0.12297	-1.877155
N	-2.591305	-0.158807	-2.76267
C	0.269342	-1.340381	-2.023651
N	0.78633	-2.30607	-2.445879
F	-2.358121	0.0	0.0
