12

C	0.0	0.0	0.0
C	-0.387176	0.113938	-1.488537
F	1.373858	0.0	0.0
H	0.148202	0.99392	-1.87052
H	-0.374735	-0.916482	0.441875
C	-0.443881	1.166921	0.770877
N	-0.543168	2.148756	1.40845
C	-1.823282	0.27263	-1.837674
N	-2.599388	0.478296	-2.709107
C	0.168997	-1.047538	-2.197303
N	0.626084	-1.971993	-2.758545
F	-2.369648	0.0	0.0
