12

C	0.0	0.0	0.0
C	-0.385316	0.130846	-1.487392
F	1.375006	0.0	0.0
H	0.16378	1.004832	-1.861696
H	-0.373837	-0.920941	0.433125
C	-0.441179	1.159456	0.784705
N	-0.544195	2.128431	1.441199
C	-1.818554	0.312791	-1.834866
N	-2.591758	0.546379	-2.701758
C	0.154671	-1.032699	-2.205183
N	0.597839	-1.959934	-2.773078
F	-2.368029	0.0	0.0
