15
Coordinates from ORCA-job run
  C   1.01502564112984     -0.40593829945420      0.25042011682598
  C   -0.47525637893619     -0.29794171953350     -0.06671157634874
  Br  1.53264170341645      0.57146297586834      1.81212439304513
  H   -0.65583004782271     -0.97201998866860     -0.90925182009828
  H   1.29649306123889     -1.44721749612719      0.39227912859094
  N   1.74928331307852      0.05687589986902     -0.99317257811811
  O   2.31274782283287      1.13999176287497     -1.00670507530298
  O   1.65297941964212     -0.73543040075608     -1.92741832483034
  C   -0.97560859926848      1.09733538482289     -0.35292061526241
  H   -2.04543483105374      1.07333373964866     -0.55782629392186
  H   -0.80097563396921      1.76402206468208      0.48964233460425
  H   -0.46673953528096      1.49489081727877     -1.23341958651223
  N   -1.20458238056244     -0.94469352895133      1.08713693908026
  O   -2.04873223930449     -0.28730034690321      1.68464960441759
  O   -0.88701131514046     -2.10637086465061      1.32917335383079
