15
Coordinates from ORCA-job run
  C   0.93292403761858      0.15889463836233     -0.48889219437714
  C   -0.41192321084174     -0.34583022930347     -0.01061791868431
  Br  1.42415372100827     -0.68290693423155     -2.15438006260370
  H   -0.38100132622832     -1.42641510547206      0.12355768026272
  H   0.96235395013027      1.23626004229039     -0.62888652731313
  N   2.01290133587105     -0.15703752998497      0.51628491203587
  O   1.86189412935531     -1.16845880663049      1.19367787725811
  O   2.95752104086770      0.62012535404611      0.55273848592568
  C   -1.57305851559706      0.09155700029068     -0.88871611058032
  H   -1.59638597732556      1.18017828350789     -0.97668476741128
  H   -1.48574438266891     -0.34419559550791     -1.88313072827821
  H   -2.50833026449029     -0.24823996228410     -0.44186593529317
  N   -0.65654831976734      0.21526824779803      1.36586383634574
  O   -1.40535041442469     -0.42716950917636      2.09076296953954
  O   -0.13440580350728      1.29697010629548      1.63228848317359
