15
Coordinates from ORCA-job run
  C   0.92525992315418      0.11761842239067     -0.51463262361384
  C   -0.42783651658662     -0.32417383742989      0.00107894122454
  Br  1.32491483256286     -0.73705023273063     -2.19812054315333
  H   -0.44373309948352     -1.40549249236655      0.13182855509083
  H   1.00402119707948      1.19298605852179     -0.65041486028072
  N   2.01749975627788     -0.25778035901269      0.45640396559712
  O   1.83745477283048     -1.26611335678855      1.13119491008366
  O   2.99944713630002      0.47240006447764      0.47045741474401
  C   -1.59219847939467      0.16906545262854     -0.84279479134673
  H   -1.55708223492418     -0.27221993277572     -1.83796352630211
  H   -2.52877722065824     -0.12350941149825     -0.36636823794726
  H   -1.56467974520262      1.25736130689291     -0.93369009763749
  N   -0.60645127527565      0.24347015910736      1.38484495172877
  O   -1.37483145960665     -0.35755329607657      2.12467875375094
  O   -0.01400758707276      1.28999145465995      1.64449718806161
