15
Coordinates from ORCA-job run
  C   0.96252385169666     -0.55590589509633     -0.44335890582504
  C   -0.53514866146392     -0.46662821220909     -0.16148318589327
  Br  1.70978163493009     -2.19902646847310      0.21176251567962
  H   -0.98792398169751     -1.35791898602598     -0.59869565104603
  H   1.11558900909344     -0.52814765495548     -1.52160074914052
  N   1.72715849411400      0.64878477842424      0.07875507558684
  O   2.38962258791427      0.55897398279805      1.09773483305554
  O   1.57962090204502      1.64778886744269     -0.62235695730619
  C   -1.21391312492808      0.79473757702450     -0.66829063443222
  H   -1.03917070077071      0.91336081371060     -1.73856246311620
  H   -0.84084927921713      1.67806163723210     -0.15469338102284
  H   -2.28910106318570      0.70729148691118     -0.49755783946706
  N   -0.79135766800152     -0.59148040504945      1.31166612770489
  O   -0.33478878495320      0.30325387620842      2.01902423418661
  O   -1.45304321557572     -1.55414539794234      1.68865698103585
