15
Coordinates from ORCA-job run
  C   0.95099368028707      0.08986782103386     -0.47183131924300
  C   -0.42241220309858     -0.33191989047802      0.00566230640803
  Br  1.45953750362522     -0.90281558380034     -2.04674969411932
  H   -0.43046016860916     -1.39799759321897      0.22939078813896
  H   1.02048467793618      1.15032557429499     -0.69931307587430
  N   1.99171454913003     -0.17469441292420      0.58782614279443
  O   1.79045554601026     -1.12347768857736      1.33878923390715
  O   2.95845374604744      0.57566228783274      0.59165915865726
  C   -1.54396492075803      0.06418951401499     -0.94097602533716
  H   -1.44473533456594     -0.45892485961234     -1.89114895341856
  H   -1.52811232537003      1.14126618459920     -1.12274938777096
  H   -2.50176516966717     -0.20607803105262     -0.49437622032100
  N   -0.68671748269807      0.34947870818768      1.32251979923379
  O   -1.47887726065842     -0.20507627489828      2.07352212863852
  O   -0.13359483761077      1.43119424459867      1.51677511830615
