15
Coordinates from ORCA-job run
  C   1.05802750769237     -0.32757492861929      0.17639900985341
  C   -0.46001549403237     -0.32683683776863      0.00803442424385
  Br  1.66691076568655      0.81307189168146      1.58735830585674
  H   -0.68130579605272     -1.08174768251784     -0.75231184540734
  H   1.41579470840331     -1.33541926447484      0.37591663085602
  N   1.63601594570537      0.05848584303878     -1.17142301468005
  O   1.49977827993327     -0.82030213986451     -2.01933618379531
  O   2.12488294717535      1.16522154173073     -1.33587069282999
  C   -1.07176859620543      1.00905597418632     -0.33851583050615
  H   -0.67424311056540      1.35717647395865     -1.29404004187794
  H   -2.15251772126329      0.90885493925289     -0.43378617133158
  H   -0.86085038804166      1.75387509556178      0.42671585547975
  N   -1.03026907741041     -0.90657846107539      1.28108416121740
  O   -1.85085115520772     -0.24492560444541      1.90606192459524
  O   -0.61858881581717     -2.02335684064469      1.58471346832593
