15
Coordinates from ORCA-job run
  C   1.07816959050589     -0.11281421532981      0.28606407429128
  C   -0.42802347936638     -0.33149779530876      0.15922319204633
  Br  1.53954925320695      1.58684080614637      1.03477448399437
  H   -0.55741329893770     -1.36174690466968     -0.18558313263369
  H   1.52223863113643     -0.88887245310932      0.90579750075554
  N   1.65546010503340     -0.31041143748881     -1.10241186511558
  O   1.62531625092048     -1.48234371180995     -1.47048409425106
  O   2.04383707374700      0.65012184324828     -1.74857687229544
  C   -1.15090674290041      0.64897083246033     -0.73257958804399
  H   -0.76192046940226      0.57429415342504     -1.75010404559467
  H   -1.02954499425651      1.67164652081537     -0.38010091060614
  H   -2.21494343029447      0.41578816255741     -0.75506788593997
  N   -0.97771131380774     -0.34146764811548      1.56620448587942
  O   -1.87738971680012      0.44240732800141      1.84554362154465
  O   -0.46971745878453     -1.16091548082235      2.32730103596894
