13

C	0.0	0.0	0.0
C	-0.148395	0.239561	-1.555354
F	1.373218	0.0	0.0
H	0.326449	-0.634188	-2.008017
H	-0.408209	0.810324	0.597211
C	-0.455614	-1.320225	0.435293
N	-0.480906	-2.435211	0.80951
C	0.653252	1.420712	-1.897064
N	1.321886	2.33827	-2.194254
N	-1.448008	0.384294	-2.315857
O	-1.839829	-0.634514	-2.869763
O	-1.905358	1.510716	-2.43076
Cl	-2.97312	0.0	0.0
