13

C	0.0	0.0	0.0
C	-0.40243	0.961514	-1.146933
F	1.372976	0.0	0.0
H	0.557284	1.261735	-1.589359
H	-0.360237	0.401879	0.945445
C	-0.411153	-1.406349	-0.111366
N	-0.451032	-2.580736	-0.08847
C	-1.052419	2.18125	-0.685252
N	-1.343802	3.264286	-0.335929
N	-1.110081	0.371655	-2.343403
O	-0.736905	-0.744949	-2.678568
O	-1.858222	1.108383	-2.966613
Cl	-2.919326	0.0	0.0
