13

C	0.0	0.0	0.0
C	-0.145337	0.602207	-1.448373
F	1.373068	0.0	0.0
H	0.450581	-0.082173	-2.058457
H	-0.408268	0.64577	0.772013
C	-0.453653	-1.387101	0.11319
N	-0.446567	-2.559884	0.20121
C	0.514362	1.91125	-1.461308
N	1.091588	2.932944	-1.487795
N	-1.429818	0.722343	-2.233277
O	-1.94276	1.827127	-2.318111
O	-1.754126	-0.290867	-2.834024
Cl	-2.952531	0.0	0.0
