13

C	0.0	0.0	0.0
C	-0.402817	0.404978	-1.439961
F	1.373021	0.0	0.0
H	0.556567	0.496907	-1.968235
H	-0.363104	0.75244	0.697812
C	-0.405865	-1.329801	0.475391
N	-0.443145	-2.390396	0.981035
C	-1.053476	1.706754	-1.521479
N	-1.338452	2.838861	-1.654521
N	-1.109751	-0.624567	-2.288236
O	-1.85188	-0.206246	-3.163331
O	-0.739512	-1.780596	-2.132777
Cl	-2.917942	0.0	0.0
