16

C	-0.467995	0.042769	-1.44137
C	0.0	0.0	0.0
Cl	0.232566	-1.422769	-2.321635
H	1.091889	0.0	0.0
H	0.003389	0.884445	-1.939033
N	-1.88578	0.11878	-1.574303
H	-2.316993	-0.719555	-1.204501
H	-2.148693	0.208999	-2.547987
C	-0.521965	-1.154161	0.822773
H	-1.607134	-1.128274	0.974043
H	-0.046841	-1.132185	1.802681
H	-0.236489	-2.08624	0.331897
N	-0.389776	1.296256	0.60339
O	-0.218423	2.318544	-0.064656
O	-0.810164	1.310353	1.765105
F	2.546668	0.0	0.0
