16

C	-0.103113	-0.083242	-1.524535
C	0.0	0.0	0.0
Cl	-1.771151	0.290222	-2.138245
H	1.093186	0.0	0.0
H	0.047956	-1.139162	-1.760112
N	0.889064	0.680686	-2.24466
H	0.702748	1.655426	-2.03221
H	1.753324	0.466083	-1.717872
C	-0.610352	-1.160614	0.741845
H	-1.697233	-1.203923	0.624531
H	-0.169764	-2.081894	0.352607
H	-0.378968	-1.101422	1.805469
N	-0.470003	1.292835	0.522258
O	-1.115301	1.306157	1.575266
O	-0.178883	2.318151	-0.098773
F	2.602575	0.0	0.0
