15
Coordinates from ORCA-job run
  C   0.83709001953894     -0.59558555244621      0.23299293053363
  C   -0.37410904738848      0.32792286606136      0.19934120169168
  F   0.75494152766714     -1.30137688590956      1.46095507053888
  H   -0.40672746925364      0.80066126038855      1.18950258028913
  H   0.76852134177034     -1.37683542186561     -0.53173018416956
  N   2.05513651832910      0.09862272034096      0.07889004920469
  H   2.09630580563734      0.92215674225532      0.66344927403215
  H   2.84733440808615     -0.50315589334752      0.25815720964083
  C   -1.64922180694938     -0.49066763738051      0.01319745640951
  H   -2.53055342346237      0.15200713431990      0.08935311256963
  H   -1.73098442239634     -1.27100112907745      0.77273148892666
  H   -1.65648154883099     -0.95877872972924     -0.97599981070605
  N   -0.17231457315767      1.38457630422723     -0.79037915520891
  H   0.22298183205256      1.00156486394855     -1.64054519301227
  H   -1.06191916164271      1.81088935821422     -1.02091603074001
