15
Coordinates from ORCA-job run
  C   0.84883505269221     -0.54992263341424      0.21259596518662
  C   -0.41731524280193      0.27161248319460      0.04810574008856
  F   0.69732753732357     -1.37347677300903      1.34790995451619
  H   -0.47669243301727      0.93715652897036      0.92937906174954
  H   0.97258753290847     -1.21743954928390     -0.64346159791806
  N   1.98703707274766      0.29354875607821      0.32570148871293
  H   1.93688598945138      0.82410182889602      1.18761599452083
  H   2.84330206120685     -0.24494516845603      0.32698731902099
  C   -1.65601387841095     -0.60742037953979      0.01876180698727
  H   -2.55379996705652      0.00443608069636     -0.10583230359453
  H   -1.75506898522398     -1.17699921942494      0.94251724047888
  H   -1.59783141622843     -1.29706048881791     -0.82658762556684
  N   -0.29141722208341      0.98735075119798     -1.21626225013721
  H   -1.08857920826265      1.59695434476185     -1.35087735000900
  H   0.54874310675499      1.55210343815046     -1.19855344403617
