15
Coordinates from ORCA-job run
  C   0.84713372642913     -0.63465535614341      0.34674645488928
  C   -0.35354023573909      0.28989927601166      0.18715458362560
  F   0.57422499812928     -1.51369329180900      1.39701196719506
  H   -0.41390567627289      0.84222005375607      1.13120868156695
  H   0.94923195910257     -1.28667484564020     -0.53601090321915
  N   2.00857158000424      0.12525159590847      0.66140897814654
  H   1.96958157504624      0.99352481178376      0.14207119240734
  H   2.85717682081660     -0.37398486600225      0.43463286326221
  C   -1.64102609853795     -0.49503580470795     -0.03075601533571
  H   -2.49427979484420      0.18455746628338     -0.09999109303176
  H   -1.82021232619497     -1.19426119655051      0.78681926970078
  H   -1.58641596769063     -1.06588085513063     -0.96388248244846
  N   -0.04181201501741      1.26211435005769     -0.86465651146730
  H   -0.69016535886555      2.03855106303215     -0.81873212042627
  H   -0.16456318636536      0.82806759915075     -1.77402486486511
