15
Coordinates from ORCA-job run
  C   0.83902534472395     -0.48707918094448      0.17361970810635
  C   -0.46061875293867      0.30890990532359      0.13317013337941
  F   0.74352029748916     -1.44280499819303      1.20938911833874
  H   -0.51893216332805      0.86430922916513      1.07983235131552
  H   0.96728534124363     -1.05802237938881     -0.75205589601666
  N   1.95787948052430      0.36940905507099      0.35174710898323
  H   1.90072884565346      0.83089433601234      1.25199939104276
  H   2.82634475074671     -0.14739311771502      0.30776039619871
  C   -1.67205071192687     -0.60184486662384      0.02930848010811
  H   -1.72592590537663     -1.28727157801081      0.87414393152025
  H   -1.62377739260553     -1.19707892614987     -0.88919591090675
  H   -2.58015376110772      0.00175057379711     -0.00469170521786
  N   -0.48194262890658      1.28266365401055     -0.95294747091059
  H   -0.57794137503358      0.79331938768914     -1.83671705604203
  H   0.40755863084241      1.76823890595701     -0.97536257989917
