15
Coordinates from ORCA-job run
  C   1.09328816869230      0.05362100978619      0.19847689280864
  C   -0.40036708293074      0.30662230698964      0.32257187121356
  F   1.48837945493324      0.41459694709803     -1.09444346223193
  H   -0.68265494314621      0.04224448949049      1.35038734398907
  H   1.63123299367661      0.74868929978102      0.85430149493620
  N   1.41751729308517     -1.33081890193849      0.37647987337975
  H   0.92971995893633     -1.71188329459936      1.17614515185441
  H   2.41222512633799     -1.45056517772530      0.51605116672946
  C   -1.19829533835617     -0.54703943306621     -0.66051722376492
  H   -1.03177649642996     -1.61441097278008     -0.50565745952745
  H   -2.26662988806024     -0.34044566059311     -0.55265742925436
  H   -0.90046293713752     -0.30732093423032     -1.68304021027255
  N   -0.59959245656176      1.74820311116651      0.18445119578913
  H   -1.58604802295518      1.96514009547777      0.26436846968087
  H   -0.30653583008384      2.02236711514324     -0.74691767532989
