15
Coordinates from ORCA-job run
  C   1.06076695196204      0.09328249113516      0.28578902473683
  C   -0.44213847135038      0.33355725510830      0.21384744064020
  F   1.59955903044740      0.18571215019662     -1.00796364118469
  H   -0.81379412771057      0.16446346961214      1.23601072425742
  H   1.53995138934474      0.89370987887521      0.85949484471718
  N   1.36947146750268     -1.14947423074183      0.90254382293866
  H   2.37102834283414     -1.25272178411687      1.00106196129717
  H   1.02903160670842     -1.91753356323401      0.33846298785897
  C   -1.12989974434886     -0.64074995027714     -0.73134858661860
  H   -0.69714818872921     -0.55451285058106     -1.72789356514985
  H   -1.04821967869891     -1.67280822751794     -0.38264442536271
  H   -2.19675836357249     -0.41109976246270     -0.79671216133031
  N   -0.67490145637129      1.69520730956087     -0.26566803258112
  H   -1.67208371163106      1.86582946996667     -0.31990241342328
  H   -0.29486504638666      2.36513834447659      0.39392201920412
