16

C	-0.11542	-0.121939	-1.522359
C	0.0	0.0	0.0
Br	-0.595283	2.005736	-2.367988
H	1.091997	0.0	0.0
H	-1.027278	-0.504335	-1.967658
N	1.055616	-0.58222	-1.979043
H	1.913077	-0.374038	-1.371841
H	1.152979	-0.784997	-2.960535
N	-0.499829	-1.309423	0.530748
O	0.243683	-1.974884	1.247295
O	-1.659748	-1.629488	0.245973
C	-0.695482	1.110279	0.743174
H	-0.223966	2.056491	0.488663
H	-0.582216	0.939197	1.818346
H	-1.756366	1.164289	0.491158
F	2.709364	0.0	0.0
