16

C	-0.592352	-0.026346	-1.400912
C	0.0	0.0	0.0
Br	0.063324	-1.619554	-2.415083
H	1.088889	0.0	0.0
H	-0.125034	0.794708	-1.941883
N	-2.018475	0.043078	-1.47345
H	-2.442386	-0.141988	-0.573537
H	-2.341998	0.912444	-1.862842
N	-0.55519	-1.131766	0.78093
O	0.055544	-2.195181	0.803057
O	-1.642219	-0.954508	1.360917
C	-0.354094	1.311481	0.683897
H	-1.419627	1.543821	0.720874
H	0.040933	1.287989	1.700794
H	0.183451	2.102254	0.155882
F	2.572682	0.0	0.0
