16

C	-0.111257	-0.338972	-1.493919
C	0.0	0.0	0.0
Br	-0.664853	1.617695	-2.638336
H	1.091764	0.0	0.0
H	-1.012121	-0.810167	-1.873736
N	1.070672	-0.829399	-1.890402
H	1.922141	-0.536061	-1.310281
H	1.177599	-1.138633	-2.842806
N	-0.509557	-1.213897	0.711766
O	-1.698068	-1.511044	0.538134
O	0.256483	-1.830755	1.448433
C	-0.68884	1.216179	0.56242
H	-1.749032	1.237833	0.304165
H	-0.210223	2.108048	0.164541
H	-0.575865	1.213539	1.651123
F	2.717003	0.0	0.0
