16

C	-0.097034	0.047723	-1.515829
C	0.0	0.0	0.0
Br	-1.915531	0.513843	-2.169675
H	1.096036	0.0	0.0
H	0.072912	-0.955622	-1.901455
N	0.879531	0.946635	-2.098575
H	0.648676	1.895918	-1.817235
H	1.750719	0.698639	-1.590342
N	-0.50302	-1.27082	0.550886
O	-0.967987	-1.264444	1.696334
O	-0.396056	-2.294587	-0.130314
C	-0.523407	1.191132	0.76142
H	-0.133979	1.183409	1.779158
H	-0.167596	2.101343	0.273149
H	-1.614939	1.213973	0.797867
F	2.599742	0.0	0.0
