16

C	-0.148443	0.098803	-1.500901
C	0.0	0.0	0.0
Br	-2.003097	0.708985	-2.076189
H	1.096802	0.0	0.0
H	-0.124445	-0.894805	-1.947705
N	0.838469	1.022262	-1.962463
H	1.698758	0.813103	-1.422415
H	1.002587	0.897073	-2.953478
N	-0.494712	-1.283763	0.526096
O	-0.436741	-2.284893	-0.190999
O	-0.896426	-1.30956	1.692347
C	-0.496122	1.181948	0.794024
H	-1.584052	1.186775	0.892124
H	-0.046382	1.178777	1.786776
H	-0.179252	2.082873	0.265893
F	2.60536	0.0	0.0
