16

C	-0.581488	0.06759	-1.404436
C	0.0	0.0	0.0
Br	0.013537	1.751806	-2.257173
H	1.090553	0.0	0.0
H	-1.672297	0.202871	-1.368788
N	-0.140122	-0.997685	-2.270935
H	-0.574039	-0.889271	-3.179445
H	-0.461829	-1.864246	-1.854693
N	-0.466195	-1.23604	0.673986
O	-0.097579	-1.441221	1.827947
O	-1.21894	-2.019281	0.070194
C	-0.425149	1.159514	0.89174
H	-1.517347	1.268695	0.951243
H	0.019408	2.080883	0.517327
H	-0.031783	0.981024	1.890035
F	2.532139	0.0	0.0
