15

C	-0.435311	0.006613	-1.460538
C	0.0	0.0	0.0
Cl	-0.149867	-1.602636	-2.148339
H	1.096165	0.0	0.0
N	-1.955187	0.266181	-1.598702
O	-2.341906	0.659606	-2.688516
O	-2.639545	0.001273	-0.62192
C	0.261814	0.996631	-2.271459
N	0.788195	1.802409	-2.94605
C	-0.478417	-1.137867	0.763824
N	-0.830502	-2.05674	1.405313
N	-0.407903	1.2737	0.678644
O	-0.748643	2.204982	-0.048402
O	-0.317328	1.299391	1.897168
Br	3.218207	0.0	0.0
