15

C	-0.503082	0.008501	-1.448871
C	0.0	0.0	0.0
Cl	0.212518	1.3399	-2.352218
H	1.089944	0.0	0.0
N	-0.057003	-1.308411	-2.14814
O	-0.496351	-1.462035	-3.277985
O	0.687218	-2.045174	-1.521931
C	-1.957976	0.053372	-1.559055
N	-3.129908	0.08476	-1.65213
C	-0.556956	-1.123704	0.736253
N	-1.010182	-2.030561	1.330584
N	-0.475246	1.281425	0.657358
O	0.299064	2.228828	0.635739
O	-1.608162	1.270291	1.141101
Br	3.307538	0.0	0.0
