17

C	-0.145866	-0.0135	-1.550602
C	0.0	0.0	0.0
Br	-0.134277	1.900514	-2.17681
H	1.091651	0.0	0.0
N	0.96125	-0.657788	-2.19862
H	0.792837	-1.656573	-2.145208
H	1.784729	-0.452566	-1.597944
C	-1.443549	-0.516772	-2.015079
N	-2.499593	-0.901743	-2.361763
N	-0.389287	-1.346788	0.510115
O	-0.334103	-2.311521	-0.261903
O	-0.684528	-1.456146	1.702355
C	-0.654112	1.089677	0.810248
H	-0.535077	0.864564	1.868116
H	-1.722145	1.188067	0.589592
H	-0.159101	2.03538	0.604766
F	2.590041	0.0	0.0
