17

C	-0.50719	0.002442	-1.433538
C	0.0	0.0	0.0
Br	0.455743	-1.458291	-2.488881
H	1.090008	0.0	0.0
N	-1.922275	-0.078372	-1.574738
H	-2.186382	-0.04169	-2.551663
H	-2.226067	-0.9566	-1.170147
C	-0.045123	1.222342	-2.103943
N	0.189414	2.211539	-2.693653
N	-0.465239	-1.174386	0.757394
O	-0.141127	-1.233088	1.942538
O	-1.128653	-2.06062	0.195711
C	-0.392154	1.266452	0.750581
H	0.011387	1.193574	1.759287
H	0.087952	2.118328	0.267966
H	-1.474448	1.424714	0.783474
F	2.498849	0.0	0.0
