17

C	-0.395762	-0.00225	-1.443712
C	0.0	0.0	0.0
Br	-2.524827	-0.444903	-1.569024
H	1.093865	0.0	0.0
N	-0.168415	1.230584	-2.056778
H	-0.641927	1.987846	-1.586506
H	-0.389261	1.217666	-3.042242
C	0.165404	-1.061732	-2.277703
N	0.598921	-1.798889	-3.084403
N	-0.400118	-1.244925	0.668874
O	-0.339687	-2.287083	0.014715
O	-0.707873	-1.201683	1.863083
C	-0.424247	1.228959	0.76552
H	-0.14756	1.096321	1.80882
H	-1.501309	1.423959	0.708324
H	0.147558	2.080402	0.390826
F	2.46426	0.0	0.0
