17

C	-0.11835	0.058238	-1.519253
C	0.0	0.0	0.0
Br	-1.967902	0.609453	-2.128811
H	1.107557	0.0	0.0
N	0.833453	1.059181	-1.9236
H	1.704273	0.835669	-1.400085
H	0.994895	1.000202	-2.921918
C	0.113991	-1.202887	-2.241035
N	0.402636	-2.074509	-2.977484
N	-0.546093	-1.207425	0.635099
O	-0.736741	-2.219775	-0.041808
O	-0.746522	-1.151682	1.85056
C	-0.476556	1.25232	0.700695
H	-1.562214	1.266156	0.823745
H	-0.167883	2.109669	0.103623
H	-0.004964	1.31574	1.680574
F	2.576807	0.0	0.0
