17

C	-0.12137	0.177691	-1.514012
C	0.0	0.0	0.0
Br	-1.911125	0.838002	-2.09632
H	1.097989	0.0	0.0
N	0.888887	1.122778	-1.975765
H	0.630504	2.046277	-1.644677
H	1.745574	0.838791	-1.455277
C	0.109437	-1.069636	-2.255976
N	0.354012	-2.014573	-2.910113
N	-0.583126	-1.240015	0.542598
O	-0.356706	-1.480062	1.729552
O	-1.279464	-1.951583	-0.186685
C	-0.468747	1.16996	0.839852
H	-1.559726	1.239319	0.879991
H	-0.069201	2.09829	0.430632
H	-0.07015	1.051073	1.846956
F	2.585497	0.0	0.0
