17

C	-0.48038	0.138723	-1.435069
C	0.0	0.0	0.0
Br	0.378686	-1.336112	-2.565505
H	1.101858	0.0	0.0
N	-1.891771	0.190371	-1.605097
H	-2.133842	0.307139	-2.581521
H	-2.281669	-0.676326	-1.253912
C	0.11019	1.349256	-2.015847
N	0.493333	2.341917	-2.514647
N	-0.509998	-1.213872	0.653606
O	-0.14085	-1.416652	1.809391
O	-1.275576	-1.979129	0.045421
C	-0.37615	1.206732	0.852459
H	-1.457901	1.353917	0.932892
H	0.080678	2.096815	0.418079
H	0.0624	1.063233	1.839245
F	2.497591	0.0	0.0
