12

C	-0.573504	-0.050117	-1.406914
C	0.0	0.0	0.0
Cl	0.03285	-1.474315	-2.315245
H	1.095495	0.0	0.0
H	-1.654368	-0.190229	-1.32911
H	-0.348532	0.937778	0.446266
C	-0.310257	1.1645	-2.173456
N	-0.129655	2.154108	-2.778109
N	-0.569119	-1.117386	0.768563
H	-0.048674	-1.948628	0.507995
H	-0.334975	-0.956263	1.742056
Br	3.637343	0.0	0.0
