12

C	-0.575706	-0.008404	-1.406517
C	0.0	0.0	0.0
Cl	0.03595	-1.398477	-2.35595
H	1.098595	0.0	0.0
H	-1.655685	-0.155263	-1.331609
H	-0.34881	0.923922	0.473332
C	-0.313928	1.23178	-2.132098
N	-0.122654	2.237404	-2.705262
N	-0.564528	-1.140308	0.736433
H	-0.031046	-1.95898	0.462338
H	-0.339686	-0.997966	1.713697
Br	3.633749	0.0	0.0
