12

C	-0.439496	0.008539	-1.457159
C	0.0	0.0	0.0
Cl	-2.159846	0.520582	-1.641204
H	1.100853	0.0	0.0
H	0.157954	0.734461	-2.012147
H	-0.33327	0.942163	0.442474
C	-0.289244	-1.30335	-2.082181
N	-0.176362	-2.359287	-2.58251
N	-0.597263	-1.126692	0.714217
H	0.053165	-1.903271	0.666503
H	-0.678708	-0.88695	1.693582
Br	3.600316	0.0	0.0
