16
Coordinates from ORCA-job run
  C   -0.52021160862025      0.30121147282269     -0.02150641383803
  C   0.90641595183459     -0.26068862805796     -0.01008056682705
  Br  -0.50110192729994      2.13645844433950     -0.59818712927193
  H   0.88596807305647     -1.21122558328473      0.53383224720784
  C   -1.44129888187606     -0.52461621081187     -0.90573750839389
  H   -2.46140070415224     -0.14923754420301     -0.80791666463252
  H   -1.13728810195266     -0.44443515601773     -1.94881158830811
  H   -1.41187819246369     -1.57068541355913     -0.59251525396334
  N   -1.08793355892977      0.17458047764473      1.40617255592489
  O   -1.69224330918089      1.11244529587094      1.89145992153142
  O   -0.93644786356807     -0.93986884785150      1.89516229881513
  N   1.84709807776434      0.62696047943060      0.78904995117360
  O   2.94347018527491      0.87302958333648      0.30836332947104
  O   1.41609495340861      0.98263952065462      1.87779999917377
  C   1.41519941682951     -0.45434622021741     -1.35866110627255
  N   1.77455748987514     -0.65222167009621     -2.45942407179025
