16
Coordinates from ORCA-job run
  C   -0.50117288813080      0.33175997387602      0.01708288799374
  C   0.88734978726986     -0.31324278447579     -0.06692336754498
  Br  -0.39909398747003      2.18461855462587     -0.49037082244661
  H   0.83634810960656     -1.28223065773066      0.44114717681755
  C   -1.51354950952084     -0.40146241316644     -0.84887540681442
  H   -1.25826959532633     -0.29517263099473     -1.90265790517016
  H   -2.50305717945008      0.02799377431119     -0.68251050131083
  H   -1.53130120790870     -1.45982316827510     -0.57886791762593
  N   -1.00392844242203      0.18083350296092      1.46629474279127
  O   -1.52413121464519      1.13240489007650      2.01780594454130
  O   -0.89739386205581     -0.95984561796995      1.90402133347340
  N   1.91865908357045      0.48417018581662      0.71583534225360
  O   3.00213394793698      0.68644981198812      0.18785759182368
  O   1.56473648861317      0.81877961436474      1.83851165588968
  C   1.31611754542979     -0.48054983550468     -1.44641241013414
  N   1.60855292450299     -0.65368319990262     -2.57093834453716
