18
Coordinates from ORCA-job run
  C   0.65660318536191     -0.29702792383347      0.09603275883617
  C   -0.70470411719745     -0.26715978337889     -0.62037037029852
  Cl  1.14041150830894     -2.02224918726021      0.27189398986366
  H   -0.59901213766429     -0.73119237787610     -1.60200597895015
  C   1.67936362243372      0.38135909101863     -0.80457076155477
  H   1.40443348403298      1.42663208664726     -0.94887153314994
  H   2.66795609789436      0.32392156481598     -0.34558234780784
  H   1.72604178284579     -0.11045742585808     -1.77854162079082
  C   0.63994918042669      0.33398798827895      1.47886459904142
  H   1.63804851931651      0.26062047741561      1.91401963528892
  H   0.38300499541042      1.39369263347628      1.40346992352825
  H   -0.06621675445595     -0.16062218554054      2.14375274416229
  N   -1.18538713288751      1.07113428029059     -0.74026346578118
  H   -1.94045748364654      1.12168570539283     -1.41251328594651
  H   -1.52878968325409      1.39835071989561      0.15486360741843
  N   -1.71500591044145     -1.16368143276925      0.09128234940348
  O   -1.99334432099625     -2.23666897435404     -0.43442241672290
  O   -2.20289483548779     -0.72232525636116      1.13196217346002
