18
Coordinates from ORCA-job run
  C   0.64735650988468      0.39192317111290     -0.12505761465719
  C   -0.75430560576419      0.12599611935223     -0.71251131093269
  Cl  1.28706034648605      1.78997651258295     -1.06620210155581
  H   -0.68270942602695      0.07650114233015     -1.79905101590196
  C   0.60350240874886      0.79664870352636      1.33852506119437
  H   0.03200365901811      1.71531118148650      1.47037881590491
  H   0.15733424485266     -0.00131818746334      1.93703005789595
  H   1.61884811230278      0.97578621445747      1.69596040027510
  C   1.58653017702742     -0.78278813036735     -0.35397342629600
  H   1.58587771055147     -1.09719475442419     -1.39879698142585
  H   2.60141846418093     -0.49179916339175     -0.07970180165248
  H   1.29525671331609     -1.63362178037907      0.26679772478967
  N   -1.71721848910605      1.08658584451431     -0.31352582337346
  H   -1.96933028587090      0.96295620621663      0.65871601978417
  H   -2.55159825850532      1.02787424320687     -0.88188570220607
  N   -1.15302854733926     -1.30003524386070     -0.31373146296879
  O   -0.96975260948426     -2.19071887024736     -1.13953941103341
  O   -1.61624512427212     -1.45308320865260      0.81656857215955
