18
Coordinates from ORCA-job run
  C   0.45335031454329      0.33276611858915      0.18517966850943
  C   -0.80649492575117     -0.33517652897339     -0.41585362435257
  Cl  0.14359201269097      2.09271880604360      0.41074077994927
  H   -0.54372356960394     -1.37363965394200     -0.62924208260242
  C   0.83636746318263     -0.25510890046057      1.53367421563097
  H   0.95768258461077     -1.33847001411083      1.45032514701750
  H   0.07946920593285     -0.05347946711271      2.29133920772184
  H   1.77882148028795      0.18221290518723      1.86798262436239
  C   1.59069915250314      0.19441646211226     -0.81691551360882
  H   1.82028364213235     -0.86382491556727     -0.97584195889374
  H   1.33514367640864      0.65258767920139     -1.77313578746565
  H   2.48486090913328      0.68851605316766     -0.43393159973787
  N   -1.40475735502752      0.25225873524166     -1.56762354958463
  H   -0.94123657010665     -0.03298051589057     -2.41684548549770
  H   -1.44485125258996      1.26006246804641     -1.50015377291776
  N   -1.86237061552784     -0.44267177211662      0.65808010590709
  O   -2.60238086497725      0.52200421120536      0.81161744647556
  O   -1.87545528784156     -1.48019167062076      1.31960417908711
