18
Coordinates from ORCA-job run
  C   0.64046694508564      0.39865802029500     -0.13732538029344
  C   -0.77133773619961      0.12230574397240     -0.69458435410304
  Cl  1.24554669976131      1.80774368181599     -1.08474757151869
  H   -0.72322374130461      0.07853203178641     -1.78265847482871
  C   0.62600946003298      0.79493876190809      1.32913783023385
  H   1.64761820633099      0.98124216768191      1.66442827049677
  H   0.04973467350874      1.70782898433707      1.47918831059579
  H   0.20047787578413     -0.01003256521775      1.93321402878310
  C   1.58511023575552     -0.76592698319968     -0.39398735586612
  H   2.60326736731104     -0.46654887500257     -0.14170916203381
  H   1.56317714873442     -1.07516423586039     -1.44011690130340
  H   1.31647878468487     -1.62267683972988      0.22886310487645
  N   -1.73388005681667      1.07202683979477     -0.26986793533095
  H   -1.96325723115830      0.94267073591241      0.70720216301059
  H   -2.58006608583927      1.00880831692661     -0.81994749617519
  N   -1.14790710166461     -1.30924008198322     -0.29405921033480
  O   -0.97491962603198     -2.19395517400841     -1.12839619488683
  O   -1.58429581797457     -1.47221052942879      0.84536632867845
