18
Coordinates from ORCA-job run
  C   0.58884726187680      0.36594252826366     -0.11102466130886
  C   -0.82161846346242      0.01295636887337     -0.61508035119107
  Cl  1.06377375610629      1.82737899499794     -1.07455036714753
  H   -0.77218969269981     -0.15449689175569     -1.69629753793740
  C   0.63168836558790      0.73996948471355      1.36007713107997
  H   -0.04384432077651      1.56261662832237      1.58825089391665
  H   0.33411689722089     -0.11672495562111      1.96622478374201
  H   1.64898568326094      1.03289631728932      1.62654326643040
  C   1.57999227982269     -0.73758697078731     -0.44260322676023
  H   2.59297507875858     -0.39473252837880     -0.22666582546135
  H   1.37969779907871     -1.62087034983878      0.16842605119349
  H   1.52388109086679     -1.02184850336704     -1.49468117130740
  N   -1.81378792485469      0.93879249084966     -0.16747084482121
  H   -2.67087928990802      0.82837371094834     -0.69482758029076
  H   -1.48215585210491      1.88609668414488     -0.29584750628306
  N   -1.17232659388853     -1.37122969763044     -0.08507555540936
  O   -1.51379245230483     -1.48193708740552      1.08668639320892
  O   -1.05336362257986     -2.29459622361838     -0.89108389165322
