18
Coordinates from ORCA-job run
  C   0.51342928963642      0.34859761360225      0.14090825078293
  C   -0.74080735137403     -0.35523010666098     -0.40471947021717
  Cl  0.15504039616018      2.10663474715297      0.33336194099530
  H   -0.48710480790660     -1.40850652991246     -0.54956901850892
  C   0.94933309050023     -0.18663610760347      1.49526138368663
  H   1.89023108190297      0.28760859353778      1.77945808901961
  H   1.10036213425393     -1.26779697706231      1.43997404776774
  H   0.21543496807229      0.01672590740830      2.27378273120235
  C   1.62574948061110      0.20935419675847     -0.88848863088487
  H   2.51555459572352      0.73759943718580     -0.54183454583618
  H   1.87635338274655     -0.84864249608789     -1.01360570787230
  H   1.31638838643183      0.61285952499139     -1.85060535696417
  N   -1.20981181893559      0.21366872248332     -1.61358001478315
  H   -1.54957328111676      1.15384071255189     -1.45380451828269
  H   -1.95429635458775     -0.34200748867445     -2.01350573231662
  N   -1.81307141004770     -0.40976669110808      0.68988075602512
  O   -1.74665720784712     -1.34944524332098      1.48044176929313
  O   -2.65655457422339      0.48214218475847      0.69964402689328
