18
Coordinates from ORCA-job run
  C   0.65547223453750     -0.30864228445481      0.06177920713331
  C   -0.72510632885126     -0.22713422718190     -0.61269672676159
  Cl  1.12256560221762     -2.04563109243339      0.13519229551868
  H   -0.65253455078416     -0.63988707817045     -1.61991886201962
  C   1.66051399959455      0.40436050472304     -0.83191767754442
  H   1.67465219037611     -0.03804913153949     -1.83029077547604
  H   2.66069315044118      0.31400448697607     -0.40436145969003
  H   1.39371970240904      1.45829092072487     -0.91543427197619
  C   0.68543071699937      0.25038367690026      1.47513655494664
  H   0.43902054612756      1.31515506907410      1.46166143739411
  H   -0.00737084846565     -0.27060880053921      2.13388874472490
  H   1.69451705916604      0.14416340029597      1.87689857239608
  N   -1.19271277575047      1.12082688119034     -0.64935508397677
  H   -1.96551314521179      1.21403203020155     -1.29650728799321
  H   -1.50774124332376      1.40444309647086      0.27077152740958
  N   -1.72560067577851     -1.14873322018361      0.07993332131676
  O   -2.03110046468302     -2.19008954690643     -0.49226061213337
  O   -2.17890516902031     -0.75688468514779      1.15548109673118
