18
Coordinates from ORCA-job run
  C   0.64599369134312      0.39340860883717     -0.12641960326013
  C   -0.75341643923305      0.11840768216645     -0.71483139119731
  Cl  1.28267708362166      1.78732768748747     -1.07577611360995
  H   -0.67921411760422      0.06088732636234     -1.80080994338976
  C   0.59798386010975      0.80796279556393      1.33422911981511
  H   0.02368424379165      1.72591721864286      1.45887866386225
  H   0.15305023524509      0.01295284553254      1.93754040830207
  H   1.61212885299539      0.99278266785195      1.69224034724101
  C   1.58988928956650     -0.77945668593930     -0.34553951690333
  H   1.30129866234469     -1.62693986866937      0.28103228896524
  H   1.59164542372882     -1.10149809570784     -1.38802172642262
  H   2.60330022373083     -0.48246220492102     -0.07220428795619
  N   -1.72040951961078      1.07834449024359     -0.32505863963743
  H   -2.55377847977488      1.01247089131632     -0.89408023206915
  H   -1.97337694252800      0.96258258111043      0.64788744339101
  N   -1.14806736740330     -1.30642439877738     -0.30651957368976
  O   -0.95998919884642     -2.20220820811135     -1.12563813909221
  O   -1.61239950147685     -1.45305533298878      0.82409089565114
