15

C	-0.582479	0.009007	-1.39953
C	0.0	0.0	0.0
Cl	0.061377	-1.399014	-2.285351
H	1.090066	0.0	0.0
H	-0.287059	-0.954262	0.456197
C	-2.09686	-0.010148	-1.471813
H	-2.426401	-0.055335	-2.50936
H	-2.465301	-0.884703	-0.933274
H	-2.496853	0.890043	-0.997839
N	-0.122433	1.255558	-2.162894
O	0.564347	2.071635	-1.560818
O	-0.517865	1.359348	-3.322701
C	-0.547637	1.072392	0.81279
N	-1.012682	1.918604	1.485201
H	2.726906	0.0	0.0
