15

C	-0.395971	-0.094992	-1.461951
C	0.0	0.0	0.0
Cl	-0.030168	1.416543	-2.302507
H	1.092591	0.0	0.0
H	-0.310171	-0.924296	0.49659
C	0.349589	-1.238224	-2.118941
H	1.415886	-1.056517	-1.948952
H	0.126138	-1.283468	-3.187078
H	0.068802	-2.178037	-1.643038
N	-1.911646	-0.359818	-1.562525
O	-2.262346	-1.447205	-1.105522
O	-2.665059	0.479351	-2.039329
C	-0.571153	1.137156	0.694921
N	-1.019368	2.049677	1.285005
H	2.725645	0.0	0.0
