15

C	-0.384779	0.018763	-1.463886
C	0.0	0.0	0.0
Cl	0.04285	1.615417	-2.14657
H	1.093115	0.0	0.0
H	-0.375478	0.881368	0.52022
C	0.313224	-1.070135	-2.23584
H	-0.031287	-2.044563	-1.883862
H	1.381246	-0.965879	-2.01231
H	0.122281	-0.98541	-3.30434
N	-1.908753	-0.069205	-1.632041
O	-2.344367	-0.734996	-2.569814
O	-2.59415	0.550368	-0.824769
C	-0.49319	-1.205648	0.64132
N	-0.889565	-2.186287	1.154349
H	2.728996	0.0	0.0
