15

C	-0.386679	0.018567	-1.463153
C	0.0	0.0	0.0
Cl	0.030677	1.618544	-2.143259
H	1.093121	0.0	0.0
H	-0.375115	0.881201	0.520806
C	0.31705	-1.06503	-2.236548
H	-0.017631	-2.042512	-1.883508
H	0.121483	-0.982363	-3.304291
H	1.384977	-0.952243	-2.016372
N	-1.910467	-0.078246	-1.630076
O	-2.598544	0.539335	-0.824657
O	-2.342871	-0.750639	-2.563095
C	-0.492049	-1.206212	0.641383
N	-0.887338	-2.18986	1.149592
H	2.728353	0.0	0.0
