15

C	-0.511538	0.007809	-1.432831
C	0.0	0.0	0.0
Cl	0.048067	-1.432252	-2.293092
H	1.093213	0.0	0.0
H	-0.313145	0.930431	0.481545
C	-2.02019	0.11947	-1.573928
H	-2.299695	0.166942	-2.629706
H	-2.48615	-0.757031	-1.122561
H	-2.365301	1.019243	-1.061432
N	0.062038	1.263174	-2.111809
O	0.603234	1.176784	-3.203019
O	-0.165249	2.30726	-1.505034
C	-0.543062	-1.125439	0.733231
N	-0.978263	-2.035918	1.337368
H	2.704829	0.0	0.0
