12
Coordinates from ORCA-job run
  C   -0.52715670651716     -0.49083182272328     -0.20324351581433
  C   0.35684878253169      0.02083857790696      0.68220526072198
  H   0.46610146846491     -0.50043038644006      1.63311299140944
  N   -1.39402269379075     -1.56881216489389      0.03448848796680
  H   -1.51282964858642     -2.17052854670930     -0.76806740781296
  H   -1.13386592443981     -2.10239547937317      0.85189329549192
  C   -0.71645769031079      0.14354146697253     -1.48089839310450
  N   -0.85961775267346      0.64013514455790     -2.53735007205089
  C   1.16804391468907      1.26191725897769      0.48052665040846
  H   2.23538192586526      1.05115590646400      0.59404222429331
  H   0.90906364280068      2.02195587699484      1.22406672804519
  H   1.01051068196678      1.69245416826579     -0.50977624955441
