12
Coordinates from ORCA-job run
  C   -0.59552018004140     -0.17004031242500     -0.48380363163959
  C   0.18016211677410      0.84199018755876     -0.02931482218718
  H   -0.06281612656258      1.84684484359091     -0.35390435716993
  N   -0.40145814689772     -1.52399846123756     -0.19467022572264
  H   -0.02159718223221     -1.69913113524645      0.72248529277534
  H   -1.20766943605338     -2.10090476676604     -0.37922418596203
  C   -1.65603057843487      0.13137591204824     -1.40603659038970
  N   -2.53176112528212      0.37734701044534     -2.15110534444428
  C   1.34817544196888      0.61520556915038      0.88711377600079
  H   1.84644684218426     -0.32957855752852      0.65922974600405
  H   2.07216559438581      1.42462670858736      0.79307795034550
  H   1.03090278019124      0.58726300182257      1.93615239238967
