12
Coordinates from ORCA-job run
  C   -0.49386145212594     -0.25994701221943     -0.56451149479349
  C   0.16012980560163      0.84508825658257     -0.13957530590777
  H   -0.00937733018472      1.77426718819735     -0.67181284571860
  N   -0.31469648320289     -1.54294480916150     -0.03493366102823
  H   -0.01184835383823     -1.53907112674155      0.92822317881791
  H   -1.10632950462276     -2.15341465049381     -0.16999857773914
  C   -1.36962355325367     -0.18259027414039     -1.69991909955301
  N   -2.10238634149059     -0.13884116578952     -2.61877989983081
  C   1.11880273393585      0.80732171176657      1.01233493271714
  H   1.63637857811045      1.75960818494001      1.12406563337597
  H   1.87878745182825      0.03093983822989      0.87145674817362
  H   0.61302444924263      0.59858385882979      1.96345039148640
