12
Coordinates from ORCA-job run
  C   -0.56257734538357     -0.46902871110102     -0.14938275721408
  C   0.56815869718590     -0.12485001262231      0.50616814210628
  H   0.99647514400120     -0.86619300556476      1.18053539910456
  N   -1.29184276364568     -1.65331184077106      0.04188345788788
  H   -1.68273558291622     -2.02315394564445     -0.81299488617886
  H   -0.76083624771307     -2.35976806927789      0.53193866245474
  C   -1.17987086537078      0.45845266967374     -1.05981510553048
  N   -1.68034579797632      1.19776918772682     -1.82557227854291
  C   1.25770983947072      1.19959739460946      0.41045943854370
  H   1.26836266378291      1.70387749788616      1.38170727493050
  H   0.76795398330725      1.86067706513288     -0.30650590851008
  H   2.29954827525765      1.07493176995242      0.10157856094874
