12
Coordinates from ORCA-job run
  C   -0.45539000951012     -0.55161754000734     -0.21974207673119
  C   0.36339520950781      0.04084673840924      0.67794447570676
  H   0.46201634734668     -0.43859134340645      1.65170710085485
  N   -1.10298185713783     -1.78500390030466     -0.04790565210266
  H   -2.03308251544200     -1.80641627768065     -0.44125851082401
  H   -1.11042928374300     -2.08741728286281      0.91603790576485
  C   -0.63826727781745      0.03052589083842     -1.52292820617880
  N   -0.81496187800927      0.51200102786667     -2.58134310931720
  C   1.16989125862184      1.27732420673113      0.43396454469385
  H   0.98008824602588      1.69614688671169     -0.55569731709881
  H   2.24086095183742      1.06605960709168      0.51121219993314
  H   0.93886080832004      2.04514198661307      1.17800864529922
