12
Coordinates from ORCA-job run
  C   -0.63360679890852     -0.12896039065557     -0.45789264297412
  C   0.23275113816614      0.83718135039171     -0.07671845593271
  H   0.06157800395327      1.84489565463953     -0.43852814618722
  N   -0.50173912833955     -1.48559423903584     -0.13866158069992
  H   -0.00583609858202     -1.64685186397570      0.72565614216222
  H   -1.37243176921926     -1.99441122720149     -0.16544795829453
  C   -1.72490646255716      0.19345724437355     -1.33366307164869
  N   -2.63160717344779      0.43786199653553     -2.04198309129064
  C   1.40912697434714      0.54635343564950      0.80486814206930
  H   2.00515076453084     -0.28223717362999      0.40790649720849
  H   1.10057839175829      0.26527761643527      1.81965685980799
  H   2.06194215829861      1.41402759647350      0.89380730577985
