12
Coordinates from ORCA-job run
  C   -0.50383383084215     -0.51163287259299     -0.20859349535195
  C   0.57075182772791     -0.11126149644475      0.50681742365216
  H   0.98632153502000     -0.82391835793722      1.21884420820204
  N   -1.06414869470714     -1.79868151367750     -0.19503398808435
  H   -2.07210570746287     -1.79449293840316     -0.25956900441649
  H   -0.75365383505866     -2.34863303892354      0.59337915459702
  C   -1.11018382407248      0.38136081117101     -1.16039003223078
  N   -1.62918120131256      1.11251967580216     -1.92150611716842
  C   1.25405154455697      1.21330169484365      0.37763089866649
  H   1.30267453983445      1.72140611951571      1.34510095939450
  H   0.73674584166509      1.86906045774467     -0.32459977837113
  H   2.28356180465143      1.08897145890196      0.02791977111090
