12
Coordinates from ORCA-job run
  C   -0.42854025308649     -0.35662586218847     -0.56550061615893
  C   0.59724327423077      0.50573439026021     -0.38091597751885
  H   1.04462311789463      0.95916111983758     -1.25814144694948
  N   -1.04894592673157     -1.08658362498297      0.45404609879850
  H   -0.98465495302232     -0.64615003269741      1.36004716507449
  H   -1.99620804814106     -1.36143810111804      0.24226974911151
  C   -0.88428227966275     -0.65055560309477     -1.89532192394218
  N   -1.27955011211698     -0.89232866493495     -2.97634073263069
  C   1.13752124184537      0.81961055939904      0.98198874385792
  H   1.42805323777009     -0.09275975366708      1.51420708225908
  H   2.01568007204699      1.46163098042162      0.91852311742946
  H   0.39906062897332      1.34030459276523      1.60413874066917
