12
Coordinates from ORCA-job run
  C   -0.53049493019019     -0.23084549923179     -0.53919485869336
  C   0.16185476303533      0.85178713368010     -0.11563691888098
  H   -0.04196562053646      1.80251674940794     -0.59460382425311
  N   -0.33111247461524     -1.53488917323199     -0.07638278310403
  H   -1.12481752608600     -2.14334857517888     -0.20042856969183
  H   0.02107308340498     -1.57706810931691      0.86884088103820
  C   -1.47164143007372     -0.10137906520145     -1.61666250913845
  N   -2.25168547888730     -0.01262967023270     -2.49211725487843
  C   1.18747180950183      0.75476871929714      0.97465117522203
  H   0.72747301087602      0.56796178942873      1.95330968188784
  H   1.75819527740358      1.67968106655884      1.06467079791257
  H   1.89764951616718     -0.05555536597905      0.77355418257955
