12
Coordinates from ORCA-job run
  C   -0.45109213615607     -0.53070155466221     -0.14760259795927
  C   0.62327384850345     -0.09277756979287      0.53467549429983
  H   1.03736009624277     -0.79571274301104      1.25456880814761
  N   -1.00644330298099     -1.82505464560299      0.10839917057585
  H   -1.86180508163681     -1.74287511491478      0.64556896965924
  H   -1.23674056291773     -2.28922813843863     -0.76194423865276
  C   -1.07874183197130      0.30127732480995     -1.14517688601889
  N   -1.61845417541156      0.94026987210922     -1.97342262254436
  C   1.26520898048992      1.24787374809645      0.39133170720013
  H   0.78094887740141      1.85405921413840     -0.37573469971886
  H   2.32168997326722      1.13742820589487      0.13096367903123
  H   1.22579531516970      1.79444140137361      1.33837321598024
