12
Coordinates from ORCA-job run
  C   -0.46175633344829     -0.32479684729481     -0.55861980811760
  C   0.43305041942617      0.66792389012860     -0.35048261537148
  H   0.72088460831774      1.27919274284145     -1.19828412989289
  N   -0.99659176443819     -1.13927079644947      0.44520541530499
  H   -1.31555294170976     -2.03775795433816      0.11559800845252
  H   -0.39517279378293     -1.23169041361882      1.25060764397691
  C   -1.00451316691135     -0.53336019894748     -1.87179475258845
  N   -1.44842000572189     -0.72793638184119     -2.94334129414662
  C   1.00316481462498      0.95480024884104      1.00632473809585
  H   1.63324286927728      1.84368969261601      0.98786008133195
  H   0.21023140721566      1.12287960270298      1.74332105792832
  H   1.62143288715059      0.12632641535988      1.37360565502650
