12
Coordinates from ORCA-job run
  C   -0.56181381987483     -0.47491681508768     -0.13820626078440
  C   0.56077461423951     -0.10487792388466      0.51752444998694
  H   0.98061198443160     -0.81904614069618      1.22569817773662
  N   -1.29517528439395     -1.64963780619978      0.09012743473978
  H   -1.66672157148727     -2.05892340048138     -0.75526209386137
  H   -0.77705680517242     -2.33221684359821      0.62517977298143
  C   -1.16600432361561      0.41665455069548     -1.09276465630030
  N   -1.65195259053975      1.12698571357421     -1.89433417913824
  C   1.25265187540645      1.21456589188072      0.37818650526581
  H   1.24822861221266      1.75909809210470      1.32742483305598
  H   0.77527644235480      1.84499804112754     -0.37381450314616
  H   2.29918086643882      1.07631664056524      0.09124051946391
