12
Coordinates from ORCA-job run
  C   -0.55821608105927     -0.47711732567225     -0.14470370034163
  C   0.55595680528809     -0.10348766768528      0.52328455764945
  H   0.97374976071538     -0.81847815874970      1.23192290167362
  N   -1.28609275486957     -1.65767342081178      0.07193763190826
  H   -1.65038693445076     -2.06349070272961     -0.77828361517880
  H   -0.76574087945287     -2.34055477462268      0.60449692235377
  C   -1.15834915057373      0.41440612630126     -1.10167460871448
  N   -1.64150411218309      1.12449431489081     -1.90520603922251
  C   1.24246266947073      1.21999761570666      0.39513927981003
  H   1.22642378903378      1.76216501476510      1.34556800348781
  H   0.76943811813456      1.85053360314060     -0.35954211719248
  H   2.29225876994674      1.08720537546687      0.11806078376696
