12
Coordinates from ORCA-job run
  C   -0.51631891970913     -0.23372985807592     -0.55593735020605
  C   0.72828020477052      0.27056159734165     -0.39314114665218
  H   1.33960601739823      0.41164376311419     -1.27734460220482
  N   -1.45296384563011     -0.39065497816016      0.47144263193518
  H   -1.03418668929490     -0.50266277621527      1.38313039473704
  H   -2.14235109294310     -1.10456887687100      0.29059920661937
  C   -0.99109249053374     -0.55407268281503     -1.87298841714580
  N   -1.39160949844624     -0.83453074453201     -2.94266259054193
  C   1.25956409068985      0.65753963690451      0.95453428263917
  H   0.59477912435556      1.37130162767645      1.45320460058346
  H   2.24232566471323      1.12084137197802      0.87135004953835
  H   1.36396743462983     -0.21066808034542      1.61681294069823
