12
Coordinates from ORCA-job run
  C   -0.49083624207235     -0.31446322484555     -0.53904541781338
  C   0.53461538956153      0.55711826666214     -0.40233918311184
  H   0.92786171854961      1.02483007248483     -1.29788695999534
  N   -1.16073983537035     -0.92826040269197      0.52554560786847
  H   -1.60705148748041     -1.79885103695941      0.27951490764564
  H   -0.59141228853977     -1.02612904015378      1.35327181848078
  C   -1.02860811378514     -0.58663308598899     -1.84250170129376
  N   -1.47258768084100     -0.83186773157320     -2.90365260721865
  C   1.10792177145819      0.90635995331163      0.93827178509508
  H   1.59195358394714      0.04401532778510      1.41317342404854
  H   1.85933287203621      1.69090797231524      0.85248654456779
  H   0.32955031253635      1.26197292965397      1.62216178172668
