12
Coordinates from ORCA-job run
  C   -0.45613054435181     -0.36889182234107     -0.53487488340705
  C   0.66613516856497      0.37688176531044     -0.41525630885607
  H   1.18756418574957      0.66060164888334     -1.32233405065829
  N   -1.18860392596636     -0.88296485280470      0.54055137080874
  H   -2.15654818459021     -1.06836858794728      0.32535373511495
  H   -1.09383600007515     -0.34118136239914      1.38689461587648
  C   -0.91351699371985     -0.76795102584975     -1.83633779543761
  N   -1.31049666316102     -1.09201776869571     -2.89497388610567
  C   1.20832796975365      0.78898293216677      0.92042136278807
  H   2.16977990468574      1.29130895546873      0.81680651116402
  H   1.35328619453469     -0.07785758644160      1.57435327790252
  H   0.53403888857579      1.48145770464996      1.43939605080990
