12
Coordinates from ORCA-job run
  C   -0.43607568674777     -0.54481166823097     -0.16090838201253
  C   0.61947055755856     -0.08375522602029      0.53642097245350
  H   1.02346600346157     -0.76525221168717      1.28278361251612
  N   -1.00352657409405     -1.82576833265542      0.11424694933230
  H   -1.37271363832195     -2.24782752068607     -0.72814065563803
  H   -1.75529822258310     -1.75396287590947      0.78882721851830
  C   -1.03772071832738      0.25605003950137     -1.19833803539305
  N   -1.55259306767769      0.86840108852272     -2.06196852096403
  C   1.24856108617274      1.26191282490194      0.38000243565271
  H   0.78714440040878      1.83771318346723     -0.42391724741776
  H   2.31617807981017      1.15999472195725      0.16555696970693
  H   1.16210778034012      1.83830597683890      1.30643468324555
