12
Coordinates from ORCA-job run
  C   -0.48977768763296     -0.52018999386814     -0.22064579088470
  C   0.56363175955642     -0.10223355315429      0.51627468459778
  H   0.98370031789290     -0.81155520007508      1.22925611700883
  N   -1.02119920710140     -1.81945728989749     -0.22705392196639
  H   -2.02806624756285     -1.83760135244917     -0.30613345786715
  H   -0.70942793479861     -2.36966142074413      0.56074974024749
  C   -1.09843713805539      0.36615859723904     -1.17696233640330
  N   -1.61980906561619      1.09032178488737     -1.94310289246384
  C   1.22010305350639      1.23796127725908      0.40911563879823
  H   2.26061141403877      1.13924268325627      0.08474007541370
  H   0.70620385300919      1.88443849228377     -0.30426002262990
  H   1.23246688276373      1.74357597526278      1.37902216614927
