12
Coordinates from ORCA-job run
  C   -0.46472277152767     -0.54589194657129     -0.21422646692011
  C   0.51305188843337     -0.04476160540459      0.57315144065685
  H   0.86778164387988     -0.67656182120883      1.38731509053506
  N   -0.98632422027056     -1.84718788869257     -0.14488785709475
  H   -0.74644178586957     -2.31513904098044      0.71777407397409
  H   -1.98132834644632     -1.88780494993160     -0.31383612558620
  C   -0.98600882985661      0.23750267959330     -1.30301951009326
  N   -1.43617213321026      0.87943991369820     -2.17964376368000
  C   1.17053794505550      1.28801697499201      0.39915757730390
  H   0.72670358013725      1.85482195812073     -0.42103010053577
  H   1.08449635285400      1.88565955415526      1.31129953755512
  H   2.23842667682099      1.17190617222982      0.18994610388506
