12
Coordinates from ORCA-job run
  C   -0.64102224497502     -0.37662723014000     -0.08282676125878
  C   0.47194738515723     -0.04252267074177      0.60771468917429
  H   0.64917422191324     -0.56554440317086      1.54734387700641
  N   -1.64330605512495     -1.25644398278376      0.35469628834756
  H   -1.34573541259842     -1.82635757669342      1.13396226755875
  H   -2.02488330510840     -1.82717796312231     -0.38616210229591
  C   -0.93318939232943      0.26873135899633     -1.33541313730222
  N   -1.16800370550549      0.77202543416598     -2.37213572510046
  C   1.46016408360056      1.00699317874440      0.20678403987947
  H   1.21127116868501      1.45009748312060     -0.75894508782913
  H   2.46755730679425      0.58623427902446      0.13832052855781
  H   1.49702594949141      1.81159209260034      0.94766112326222
