12
Coordinates from ORCA-job run
  C   -0.38826416815649     -0.39425912543532     -0.56833610315001
  C   0.69517407106366      0.38723311866940     -0.35556717641852
  H   1.29787073157108      0.66610897956000     -1.21245552025563
  N   -1.21195846526213     -0.90462065919288      0.44096638971358
  H   -1.22280334077048     -0.33840873800105      1.27662152543507
  H   -2.14578093463380     -1.12887759910615      0.13260700602104
  C   -0.70152026788482     -0.83709054644399     -1.89801728499977
  N   -0.98379638551836     -1.20001456335192     -2.98048765629280
  C   1.08709762880771      0.84644224993347      1.01675843170254
  H   2.05194811374572      1.35289325337613      1.00078960886101
  H   0.35737007496392      1.55007654828490      1.43623456558861
  H   1.16466294207399      0.00251708170741      1.71088621379488
