12
Coordinates from ORCA-job run
  C   -0.50739968859761     -0.51395306542089     -0.19453221325459
  C   0.57747767356137     -0.10343886995542      0.49926163565312
  H   1.00481221666853     -0.80637194869384      1.21411648557506
  N   -1.06588930413480     -1.80136112515184     -0.15466051887210
  H   -0.74227603547866     -2.33947398242273      0.63694088698964
  H   -2.07501852205410     -1.79900872245464     -0.20142073527435
  C   -1.12813237108916      0.36468009904559     -1.15022033233476
  N   -1.65863880563674      1.08415361255802     -1.91455529101943
  C   1.25908852691847      1.21942527127548      0.34272125892108
  H   0.74181901274849      1.85893338352104     -0.37439511170665
  H   2.28938029387948      1.08873551153419     -0.00224470151544
  H   1.30477700321473      1.74867983616506      1.29898863683842
