12
Coordinates from ORCA-job run
  C   -0.48573892447186     -0.28823892285860     -0.55487577264689
  C   0.71297329729267      0.31574758563632     -0.38777015986585
  H   1.27473519443856      0.58727403363619     -1.27439160413115
  N   -1.28932029165321     -0.76020008923122      0.48995536855619
  H   -1.17848071555612     -0.23754035050501      1.34627604562339
  H   -2.26263345088253     -0.85712044147072      0.24318690971480
  C   -0.96458110578424     -0.56987500737923     -1.87912838435431
  N   -1.37674383287689     -0.79577001626429     -2.95721641579234
  C   1.27910053203639      0.59578467297192      0.97162838818156
  H   2.32526133314302      0.89506814651951      0.90724467882802
  H   0.74052619522369      1.40438124515497      1.48128692869886
  H   1.22490176909050     -0.29051085620982      1.61280401718772
