12
Coordinates from ORCA-job run
  C   -0.50339141954157     -0.22903871623956     -0.57016004724538
  C   0.72591658630650      0.30065679887149     -0.37508471529399
  H   1.34444482322966      0.48557855859207     -1.24598405652324
  N   -1.44846413801965     -0.44127463970360      0.43948051742165
  H   -2.11531567810710     -1.16832609491922      0.22863273712628
  H   -1.03763549102586     -0.56911221785906      1.35259466314290
  C   -0.95307256816212     -0.51909267602513     -1.90278113351389
  N   -1.33159334531915     -0.77689418428632     -2.98614826360948
  C   1.22979356919460      0.65797309321582      0.99109250789800
  H   2.20136976850922      1.14860790551530      0.93669703088654
  H   0.54013698488486      1.33777099963902      1.50340642411481
  H   1.34881090805062     -0.22784882680082      1.62725433559581
