12
Coordinates from ORCA-job run
  C   -0.55943534025861     -0.47739210993650     -0.13855311723742
  C   0.58032585148055     -0.11591031620427      0.49200089831010
  H   1.03539564351378     -0.85238983686221      1.15418545857360
  N   -1.26640892753326     -1.67198021396089      0.06852877757380
  H   -0.72253851864445     -2.36405290574911      0.56479156143039
  H   -1.65675722299615     -2.05750261914217     -0.77957155553181
  C   -1.21033828681450      0.44102240803816     -1.03503655086807
  N   -1.73692074258552      1.17440470468821     -1.78866043083271
  C   1.24779795483428      1.21871467032709      0.38265621564218
  H   1.26444731653501      1.72912055128112      1.35028469343343
  H   0.73857111854827      1.86803297299934     -0.33152853598561
  H   2.28686115392059      1.10693269452124      0.05990258549211
