12
Coordinates from ORCA-job run
  C   -0.46725863672253     -0.54446992729574     -0.21160340199627
  C   0.53387241012930     -0.05511388443004      0.55350903045109
  H   0.92152106534571     -0.70318177151953      1.33934613676301
  N   -0.97714930120403     -1.85112713420949     -0.15627253315354
  H   -1.97718699573378     -1.89522345816455     -0.29096575164260
  H   -0.70366790980563     -2.33799378613405      0.68569073967385
  C   -1.03219912578607      0.26121288443328     -1.26144346863400
  N   -1.51868351369711      0.92076845387167     -2.10500438445878
  C   1.17417238939203      1.28743346125456      0.38935471529690
  H   1.11657978872282      1.86178036568809      1.31850196291067
  H   0.69548849826431      1.87057066280143     -0.39921869391309
  H   2.23451133109497      1.18634413370437      0.13810564870277
