12
Coordinates from ORCA-job run
  C   -0.47624536247611     -0.28254437262477     -0.56940351303468
  C   0.71656313819531      0.32376096763564     -0.37129437573625
  H   1.29672586169151      0.60264645041601     -1.24350132130171
  N   -1.29701286482274     -0.77918245048707      0.44963368609182
  H   -1.17023626338978     -0.30555730470501      1.33210317411818
  H   -2.27232368249603     -0.83182145606753      0.19665083731892
  C   -0.93082412110236     -0.54541344455889     -1.90594963662969
  N   -1.32574316592344     -0.75396307424556     -2.99398597586512
  C   1.25673696240666      0.58946648489527      1.00201844462828
  H   2.26279892919511      1.00530111215362      0.95431241368392
  H   1.30314283830790     -0.32969384980771      1.59605221587659
  H   0.63541773041398      1.30600093739600      1.55336405084975
