16

C	0.0	0.0	0.0
C	-0.426449	0.219876	-1.46077
Cl	1.803571	0.0	0.0
H	0.214921	1.004546	-1.873477
H	-0.178382	-0.704552	-1.995501
C	-0.37117	1.160483	0.819265
N	-0.626153	2.097871	1.479835
C	-0.554659	-1.278112	0.602808
H	-0.239797	-2.130462	-0.003163
H	-1.647377	-1.218637	0.610793
H	-0.197333	-1.412483	1.624971
C	-1.889823	0.59736	-1.644461
H	-2.10211	1.577331	-1.212624
H	-2.607227	-0.085197	-1.189137
H	-2.112845	0.64957	-2.714143
Cl	-4.865527	0.0	0.0
