15

C	0.0	0.0	0.0
C	-0.303455	0.013783	-1.536631
Cl	1.826888	0.0	0.0
H	0.426197	-0.677106	-1.970294
N	-0.471298	1.207824	0.601529
H	-1.501313	1.056663	0.522256
H	-0.214584	1.194608	1.584123
N	-0.458231	-1.270941	0.495822
H	-1.488014	-1.110445	0.470672
H	-0.166081	-1.35481	1.465313
C	-0.028262	1.334355	-2.116471
N	0.210161	2.349683	-2.655196
C	-1.600293	-0.478387	-2.038696
N	-2.386994	-0.945799	-2.778474
F	-2.701222	0.0	0.0
