15

C	0.0	0.0	0.0
C	-0.286839	-0.295284	-1.515306
Cl	1.826431	0.0	0.0
H	0.394801	0.371147	-2.05338
N	-0.466521	1.33625	0.236003
H	-0.151574	1.641511	1.151143
H	-1.494942	1.170392	0.256507
N	-0.476453	-1.084295	0.801217
H	-1.506312	-0.942323	0.692219
H	-0.22625	-0.901864	1.76823
C	-1.613163	-0.014965	-2.09888
N	-2.436085	0.211891	-2.90847
C	0.100685	-1.66821	-1.869512
N	0.433173	-2.731062	-2.238396
F	-2.707467	0.0	0.0
