15

C	0.0	0.0	0.0
C	-0.293078	0.154485	-1.530099
Cl	1.82648	0.0	0.0
H	0.395523	-0.546937	-2.013221
N	-0.470618	1.153837	0.704134
H	-0.235643	1.038718	1.685748
H	-1.500659	1.02087	0.599416
N	-0.473186	-1.304061	0.376571
H	-1.503861	-1.124995	0.366468
H	-0.180481	-1.477184	1.33389
C	0.06804	1.498102	-2.004342
N	0.395816	2.52799	-2.464583
C	-1.616487	-0.210168	-2.072285
N	-2.420582	-0.53826	-2.867048
F	-2.713367	0.0	0.0
