15

C	0.0	0.0	0.0
C	-0.354273	0.51604	-1.453934
Cl	1.813369	0.0	0.0
H	0.460966	1.188704	-1.743936
N	-0.453521	0.876391	1.036993
H	-0.178442	1.836812	0.858334
H	-1.483455	0.775125	0.937942
N	-0.484664	-1.328901	0.154699
H	-0.280263	-1.595162	1.11348
H	-1.512622	-1.163635	0.087686
C	-1.562771	1.34893	-1.590979
N	-2.275192	2.22298	-1.924406
C	-0.353569	-0.567367	-2.439853
N	-0.320615	-1.382589	-3.284391
F	-2.709225	0.0	0.0
