15

C	0.0	0.0	0.0
C	-0.60734	-0.028998	-1.407921
Cl	1.826772	0.0	0.0
H	-1.74285	-0.032733	-1.040717
N	-0.516097	1.15737	0.640926
H	-0.181271	1.194401	1.596937
H	-1.54312	0.963588	0.611212
N	-0.38513	-1.25046	0.625443
H	-0.434555	-1.129189	1.62868
H	0.266675	-1.991404	0.39789
C	-0.295475	-1.260612	-2.110778
N	-0.042556	-2.264233	-2.66883
C	-0.255389	1.136183	-2.201291
N	0.007844	2.074864	-2.858593
F	-2.814742	0.0	0.0
