15

C	0.0	0.0	0.0
C	-0.305782	0.350592	-1.495595
Cl	1.826139	0.0	0.0
H	0.421255	-0.231188	-2.071255
N	-0.471425	1.045163	0.854419
H	-1.501405	0.917152	0.741896
H	-0.21811	0.810151	1.809509
N	-0.458429	-1.348581	0.205733
H	-0.164256	-1.641504	1.133027
H	-1.488354	-1.186372	0.218617
C	-0.027607	1.765258	-1.77294
N	0.218014	2.872643	-2.075102
C	-1.605139	-0.01797	-2.089295
N	-2.393936	-0.308099	-2.912765
F	-2.70376	0.0	0.0
