15

C	0.0	0.0	0.0
C	-0.307707	-0.229932	-1.519719
Cl	1.811192	0.0	0.0
H	0.413552	0.405028	-2.04478
N	-0.466142	1.327006	0.308358
H	-0.169364	1.553006	1.253424
H	-1.495111	1.15768	0.313673
N	-0.476111	-1.11077	0.766146
H	-1.505404	-0.973066	0.664377
H	-0.223386	-0.95494	1.737525
C	-1.609342	0.174938	-2.082184
N	-2.399497	0.529315	-2.878337
C	-0.011248	-1.612891	-1.915609
N	0.256325	-2.684366	-2.315228
F	-2.709694	0.0	0.0
