15

C	0.0	0.0	0.0
C	-0.633201	-0.078632	-1.392429
Cl	1.813856	0.0	0.0
H	-1.780249	-0.021	-0.986485
N	-0.384817	1.298959	0.531853
H	0.280646	2.01381	0.264044
H	-0.439866	1.246654	1.541513
N	-0.510555	-1.100343	0.742259
H	-0.165813	-1.055068	1.6954
H	-1.534474	-0.9178	0.709266
C	-0.342693	-1.31646	-2.091903
N	-0.125036	-2.29945	-2.699007
C	-0.32353	1.081209	-2.202907
N	-0.080944	2.036207	-2.844732
F	-2.818642	0.0	0.0
