15

C	0.0	0.0	0.0
C	-0.293411	-0.21638	-1.522399
Cl	1.832937	0.0	0.0
H	0.402623	-1.00403	-1.826287
N	-0.469798	1.286112	0.412923
H	-0.222029	1.414573	1.388524
H	-1.499266	1.127817	0.351837
N	-0.46134	-1.180035	0.680302
H	-0.173761	-1.113883	1.652208
H	-1.491296	-1.022172	0.626691
C	0.051314	0.979701	-2.299929
N	0.324028	1.888974	-2.99024
C	-1.612326	-0.711317	-1.96408
N	-2.414449	-1.226603	-2.653169
F	-2.705107	0.0	0.0
