15

C	0.0	0.0	0.0
C	-0.538482	0.234234	-1.44008
Cl	1.790845	0.0	0.0
H	-1.645559	0.174454	-1.212158
N	-0.453383	1.0183	0.91168
H	-0.153087	1.936916	0.601179
H	-1.478836	0.939858	0.83394
N	-0.475254	-1.302444	0.372059
H	-1.500931	-1.172046	0.350993
H	-0.200598	-1.441455	1.339628
C	-0.134786	-0.79191	-2.392627
N	0.163996	-1.602503	-3.188621
C	-0.205624	1.562611	-1.935768
N	0.046146	2.647275	-2.311465
F	-2.802314	0.0	0.0
