15

C	0.0	0.0	0.0
C	-0.535234	0.196548	-1.447667
Cl	1.792842	0.0	0.0
H	-1.642478	0.189701	-1.217469
N	-0.473515	1.139031	0.734252
H	-1.498873	1.022882	0.675383
H	-0.201452	0.989055	1.70115
N	-0.456811	-1.237236	0.575215
H	-0.158389	-2.027905	0.013152
H	-1.482556	-1.135107	0.52112
C	-0.201828	-0.933241	-2.305849
N	0.051935	-1.863618	-2.977476
C	-0.128977	1.453966	-2.060546
N	0.165737	2.463486	-2.583688
F	-2.802283	0.0	0.0
