19

C	0.0	0.0	0.0
C	-0.195748	0.033607	-1.5687
F	1.398426	0.0	0.0
H	0.222038	-0.900258	-1.950259
N	-0.563332	1.075167	0.733024
H	-0.372669	1.943563	0.244263
H	-1.58443	0.884096	0.661531
C	-0.511446	-1.308646	0.551879
H	-0.194514	-1.382383	1.594901
H	-1.604893	-1.259486	0.488584
H	-0.106642	-2.154186	-0.009638
N	0.752446	1.064293	-2.122635
O	1.672585	0.684123	-2.845376
O	0.538338	2.246388	-1.850137
C	-1.557588	0.31527	-2.158396
H	-2.328365	-0.253221	-1.630154
H	-1.828515	1.354227	-1.974703
H	-1.525456	0.130827	-3.237746
F	-3.056131	0.0	0.0
