19

C	0.0	0.0	0.0
C	-0.500858	-0.054685	-1.454614
F	1.387716	0.0	0.0
H	-1.59276	-0.13539	-1.345597
N	-0.538499	1.215499	0.545685
H	-0.329062	1.213832	1.5409
H	-1.565159	1.021134	0.454849
C	-0.420992	-1.237973	0.780719
H	-0.071814	-1.121742	1.812934
H	-1.51248	-1.25825	0.741223
H	0.01627	-2.151443	0.371323
N	-0.024662	-1.316886	-2.094429
O	1.10861	-1.337384	-2.582625
O	-0.789604	-2.284469	-2.098266
C	-0.037711	1.129011	-2.277464
H	1.050034	1.198058	-2.272843
H	-0.454106	2.033194	-1.837456
H	-0.382204	1.036082	-3.311407
F	-2.8922	0.0	0.0
