19

C	0.0	0.0	0.0
C	-0.211534	0.033114	-1.571274
F	1.402234	0.0	0.0
H	0.04574	-0.958419	-1.95052
N	-0.54845	1.091128	0.724265
H	-0.338356	1.950557	0.227133
H	-1.569613	0.918066	0.661556
C	-0.522824	-1.295951	0.563942
H	-1.613462	-1.256607	0.450198
H	-0.082081	-2.151656	0.04697
H	-0.260356	-1.336677	1.623788
N	0.863689	0.906899	-2.15898
O	0.860956	2.100797	-1.851614
O	1.672565	0.398444	-2.936313
C	-1.532882	0.517258	-2.126953
H	-2.360139	0.083019	-1.541722
H	-1.609013	1.597746	-1.983116
H	-1.584483	0.296027	-3.198927
F	-3.084013	0.0	0.0
