19

C	0.0	0.0	0.0
C	-0.25754	-0.107096	-1.550528
F	1.38484	0.0	0.0
H	0.506649	0.550861	-1.975241
N	-0.516084	1.168772	0.620447
H	-0.385016	1.955874	-0.006148
H	-1.543307	0.949858	0.597189
C	-0.451894	-1.216723	0.782589
H	-1.538262	-1.266543	0.670894
H	0.055547	-2.120688	0.442161
H	-0.187215	-1.034501	1.826627
N	-1.520077	0.515296	-2.081925
O	-2.309866	-0.18252	-2.704087
O	-1.59369	1.741078	-1.991175
C	-0.101315	-1.507181	-2.103838
H	-0.921155	-2.137267	-1.764349
H	0.849439	-1.918419	-1.759846
H	-0.108359	-1.498389	-3.195563
F	-2.782836	0.0	0.0
