15

C	-0.408967	-0.013031	-1.483897
C	0.0	0.0	0.0
Cl	-2.215686	-0.02245	-1.659681
H	1.097594	0.0	0.0
C	0.081871	1.175265	-2.186969
N	0.438945	2.124027	-2.78189
C	0.090776	-1.220645	-2.147622
N	0.474967	-2.181015	-2.705482
C	-0.449445	-1.246684	0.758141
H	-0.057025	-1.1855	1.774429
H	-0.016249	-2.133482	0.29132
H	-1.536393	-1.340421	0.797319
C	-0.490811	1.220477	0.62754
N	-0.895674	2.182035	1.168282
Br	3.345439	0.0	0.0
