15

C	-0.409172	-0.009514	-1.483727
C	0.0	0.0	0.0
Cl	-2.217514	-0.014488	-1.658252
H	1.09764	0.0	0.0
C	0.082907	1.179088	-2.185333
N	0.445044	2.127031	-2.778988
C	0.08669	-1.217118	-2.149809
N	0.46822	-2.177356	-2.709791
C	-0.450802	-1.248157	0.754739
H	-0.018075	-2.134241	0.285947
H	-0.059252	-1.189835	1.771469
H	-1.537892	-1.341011	0.792855
C	-0.489902	1.219718	0.629991
N	-0.894498	2.180649	1.17216
Br	3.346709	0.0	0.0
