15

C	-0.449046	0.007418	-1.481802
C	0.0	0.0	0.0
Cl	0.298659	-1.373017	-2.346086
H	1.096127	0.0	0.0
C	-1.907996	-0.13108	-1.583808
N	-3.075859	-0.258259	-1.625403
C	-0.046053	1.245276	-2.15762
N	0.236083	2.231232	-2.73199
C	-0.474916	-1.236057	0.7622
H	-0.063462	-2.133856	0.301117
H	-1.565305	-1.304264	0.802645
H	-0.08393	-1.177213	1.779266
C	-0.498817	1.218043	0.631305
N	-0.918548	2.17615	1.167659
Br	3.381562	0.0	0.0
