15

C	-0.446207	-0.014305	-1.478752
C	0.0	0.0	0.0
Cl	0.213827	1.411138	-2.33453
H	1.096009	0.0	0.0
C	0.030672	-1.229121	-2.149669
N	0.392641	-2.19241	-2.717438
C	-1.911417	0.021893	-1.581762
N	-3.08591	0.035916	-1.627552
C	-0.472037	-1.249399	0.745831
H	-0.03564	-2.138379	0.286525
H	-1.561883	-1.336505	0.763779
H	-0.104089	-1.194591	1.771553
C	-0.501776	1.210716	0.640039
N	-0.918611	2.158859	1.195199
Br	3.377951	0.0	0.0
