15

C	-0.449235	0.009245	-1.48176
C	0.0	0.0	0.0
Cl	0.298747	-1.369752	-2.348191
H	1.096121	0.0	0.0
C	-1.908118	-0.129647	-1.583794
N	-3.07579	-0.258257	-1.625828
C	-0.046866	1.248183	-2.155913
N	0.233737	2.235587	-2.728504
C	-0.474911	-1.237072	0.760572
H	-0.064001	-2.134318	0.297898
H	-0.083343	-1.179873	1.777478
H	-1.565287	-1.304985	0.801503
C	-0.498935	1.217173	0.632986
N	-0.920316	2.174133	1.170142
Br	3.3813	0.0	0.0
