15

C	-0.40108	0.027827	-1.48632
C	0.0	0.0	0.0
Cl	-2.204077	0.046753	-1.676392
H	1.108183	0.0	0.0
C	0.115721	1.225107	-2.153814
N	0.504764	2.187036	-2.70444
C	0.087382	-1.171075	-2.173055
N	0.421867	-2.150533	-2.728159
C	-0.452947	-1.26672	0.722525
H	-1.540095	-1.364207	0.746962
H	-0.072902	-1.228721	1.744354
H	-0.011727	-2.140423	0.238951
C	-0.498113	1.20037	0.658479
N	-0.937419	2.132928	1.221102
Br	3.347195	0.0	0.0
