15

C	-0.405541	0.111975	-1.480837
C	0.0	0.0	0.0
Cl	-2.210795	0.114204	-1.665432
H	1.110335	0.0	0.0
C	0.084786	1.356451	-2.077677
N	0.421525	2.367509	-2.573972
C	0.098196	-1.039416	-2.236743
N	0.441713	-1.986668	-2.841673
C	-0.447708	-1.305749	0.652084
H	-0.012046	-2.149922	0.115261
H	-0.057855	-1.327028	1.671365
H	-1.53517	-1.403654	0.680771
C	-0.489147	1.162689	0.728562
N	-0.900596	2.06875	1.355012
Br	3.340939	0.0	0.0
