15

C	-0.425572	0.254397	-1.45749
C	0.0	0.0	0.0
Cl	-2.230102	0.165656	-1.630894
H	1.10854	0.0	0.0
C	-0.019618	1.586017	-1.916634
N	0.263226	2.655717	-2.311879
C	0.145403	-0.760128	-2.347746
N	0.574835	-1.578151	-3.073881
C	-0.428277	-1.370539	0.520728
H	-1.512602	-1.463748	0.606405
H	0.02454	-1.511846	1.503791
H	-0.038045	-2.151437	-0.135572
C	-0.501981	1.074281	0.846471
N	-0.942729	1.910739	1.544016
Br	3.358442	0.0	0.0
