15

C	-0.441426	0.125963	-1.474652
C	0.0	0.0	0.0
Cl	0.157658	1.662764	-2.169929
H	1.104469	0.0	0.0
C	0.092678	-0.988128	-2.266387
N	0.462142	-1.896257	-2.914446
C	-1.906158	0.108175	-1.586471
N	-3.079704	0.07485	-1.644523
C	-0.457391	-1.324708	0.614467
H	-1.546345	-1.423465	0.630754
H	-0.016683	-2.156901	0.062112
H	-0.081003	-1.374034	1.637529
C	-0.517684	1.132711	0.75706
N	-0.968961	2.011648	1.393275
Br	3.372609	0.0	0.0
