13

C	-0.487941	-0.069964	-1.428347
C	0.0	0.0	0.0
F	0.024435	-1.179963	-2.023466
H	1.093086	0.0	0.0
H	-0.291157	-0.943047	0.474527
C	-1.955564	-0.101258	-1.581158
N	-3.123827	-0.192013	-1.691707
N	0.004022	1.150288	-2.224502
O	0.919282	0.983925	-3.01735
O	-0.585692	2.195391	-1.958114
C	-0.548672	1.107811	0.753185
N	-0.955304	1.983069	1.424973
H	2.622911	0.0	0.0
