13

C	-0.525205	0.074721	-1.40554
C	0.0	0.0	0.0
F	-1.894738	0.17823	-1.464225
H	1.091955	0.0	0.0
H	-0.282388	0.93082	0.504015
C	0.050001	1.206729	-2.14303
N	0.482312	2.14877	-2.693262
N	-0.169338	-1.210303	-2.164213
O	0.894278	-1.210459	-2.768837
O	-0.964533	-2.133054	-2.049153
C	-0.542335	-1.124199	0.735116
N	-0.933741	-2.031283	1.372943
H	2.609332	0.0	0.0
