13

C	-0.470715	0.003094	-1.423045
C	0.0	0.0	0.0
F	-1.829229	-0.200838	-1.551037
H	1.092043	0.0	0.0
H	-0.324906	-0.940156	0.453564
C	-0.118232	1.220175	-2.161773
N	0.134597	2.229659	-2.708868
N	0.18648	-1.200747	-2.112653
O	1.046053	-0.985862	-2.958357
O	-0.199363	-2.291717	-1.708934
C	-0.527896	1.129237	0.734539
N	-0.922543	2.047801	1.353703
H	2.603999	0.0	0.0
