13

C	-0.544772	-0.082743	-1.410309
C	0.0	0.0	0.0
F	0.091917	-1.073215	-2.092989
H	1.092186	0.0	0.0
H	-0.28028	-0.932575	0.500361
C	-1.994229	-0.33436	-1.477114
N	-3.137947	-0.591888	-1.46801
N	-0.258565	1.219446	-2.16097
O	-1.209008	1.99401	-2.304847
O	0.89822	1.390395	-2.51186
C	-0.544384	1.13335	0.717203
N	-0.896086	2.098268	1.288879
H	2.611113	0.0	0.0
