13

C	-0.473204	0.00752	-1.421406
C	0.0	0.0	0.0
F	-1.829265	-0.20437	-1.545199
H	1.092102	0.0	0.0
H	-0.32179	-0.942687	0.451012
C	-0.136703	1.227917	-2.158041
N	0.097321	2.235802	-2.710952
N	0.179636	-1.187869	-2.125952
O	1.005897	-0.963925	-2.99946
O	-0.193497	-2.2824	-1.718012
C	-0.534987	1.123486	0.739361
N	-0.942205	2.035921	1.359261
H	2.611299	0.0	0.0
