13

C	-0.442977	-0.019229	-1.436142
C	0.0	0.0	0.0
F	-0.076664	1.107633	-2.08546
H	1.093556	0.0	0.0
H	-0.316202	-0.924587	0.489086
C	0.044994	-1.200839	-2.166549
N	0.379076	-2.148088	-2.775282
N	-1.984532	-0.08849	-1.509536
O	-2.578252	0.906612	-1.900671
O	-2.479577	-1.138546	-1.113323
C	-0.533939	1.154962	0.693065
N	-0.925677	2.098084	1.275853
H	2.604083	0.0	0.0
