13

C	-0.456077	-0.070146	-1.439623
C	0.0	0.0	0.0
F	-0.149088	-1.288173	-1.95412
H	1.09406	0.0	0.0
H	-0.314335	-0.935232	0.472607
C	-1.892735	0.176427	-1.65012
N	-3.04857	0.319381	-1.808712
N	0.282127	0.987733	-2.288057
O	0.109098	2.137976	-1.913572
O	0.923999	0.60172	-3.248057
C	-0.541225	1.12339	0.737363
N	-0.943866	2.009302	1.396789
H	2.62276	0.0	0.0
