13

C	-0.467493	-0.005838	-1.438797
C	0.0	0.0	0.0
F	0.05289	-1.084971	-2.078995
H	1.093955	0.0	0.0
H	-0.315757	-0.943218	0.455296
C	-1.930298	-0.017714	-1.623661
N	-3.097436	-0.107458	-1.731081
N	0.071742	1.245224	-2.147993
O	-0.675975	2.22038	-2.148105
O	1.195953	1.166909	-2.610003
C	-0.542043	1.125441	0.73391
N	-0.942651	2.045461	1.346566
H	2.641895	0.0	0.0
