15

C	-0.283617	0.046334	-1.517336
C	0.0	0.0	0.0
Cl	0.111435	-1.621944	-2.208532
H	1.095788	0.0	0.0
C	-1.698114	0.253921	-1.850922
N	-2.836311	0.422337	-2.091475
N	0.537965	1.075798	-2.029076
H	0.542996	1.092018	-3.040531
H	1.488172	0.937285	-1.661258
N	-0.504189	-1.171769	0.681718
H	-1.225112	-0.935879	1.350243
H	0.275461	-1.604285	1.165402
C	-0.450708	1.247298	0.605689
N	-0.830975	2.203163	1.17732
H	2.695242	0.0	0.0
