15

C	-0.53095	-0.039863	-1.433531
C	0.0	0.0	0.0
Cl	-0.193773	1.523783	-2.25916
H	1.0947	0.0	0.0
C	0.190351	-1.083659	-2.19315
N	0.642251	-1.98342	-2.801148
N	-1.956071	-0.266691	-1.428661
H	-2.094261	-1.091378	-0.849009
H	-2.280449	-0.471099	-2.368242
N	-0.358026	-1.27798	0.63981
H	-0.880195	-1.119595	1.491519
H	0.529398	-1.711938	0.888846
C	-0.522948	1.143982	0.724706
N	-0.894315	2.042635	1.389141
H	2.62128	0.0	0.0
