15

C	-0.282431	-0.114279	-1.499394
C	0.0	0.0	0.0
Cl	-2.021489	-0.634321	-1.816595
H	1.104519	0.0	0.0
C	-0.175234	1.205742	-2.151614
N	-0.038759	2.225257	-2.721997
N	0.618357	-1.081497	-2.030694
H	0.702761	-0.988037	-3.03518
H	1.533609	-0.937099	-1.578486
N	-0.350261	-1.214333	0.707313
H	0.40937	-1.430928	1.342706
H	-1.213986	-1.117341	1.222008
C	-0.546021	1.212478	0.587864
N	-0.985829	2.157965	1.134017
H	2.640122	0.0	0.0
