15

C	-0.534571	0.248949	-1.409284
C	0.0	0.0	0.0
Cl	-0.12022	1.913238	-1.936043
H	1.106056	0.0	0.0
C	0.12096	-0.676096	-2.358929
N	0.478701	-1.43567	-3.182361
N	-1.970897	0.096516	-1.429328
H	-2.303837	0.079015	-2.388038
H	-2.149684	-0.808	-0.999742
N	-0.370673	-1.382751	0.369951
H	0.518176	-1.881986	0.426806
H	-0.773707	-1.395224	1.299284
C	-0.53352	0.972966	0.933305
N	-0.945926	1.720649	1.741998
H	2.61975	0.0	0.0
