15

C	-0.520136	0.04593	-1.434738
C	0.0	0.0	0.0
Cl	-0.19975	1.658351	-2.15533
H	1.102544	0.0	0.0
C	0.203976	-0.940211	-2.267793
N	0.611883	-1.756803	-3.008774
N	-1.94721	-0.193746	-1.458158
H	-2.257164	-0.320721	-2.416335
H	-2.08159	-1.071385	-0.960678
N	-0.349996	-1.312609	0.562945
H	0.527311	-1.712675	0.895923
H	-0.97198	-1.213703	1.355517
C	-0.526514	1.099889	0.787938
N	-0.927372	1.949008	1.497443
H	2.616264	0.0	0.0
