15

C	-0.293561	0.202095	-1.498906
C	0.0	0.0	0.0
Cl	0.1588	-1.361926	-2.371918
H	1.103686	0.0	0.0
C	-1.716369	0.388198	-1.799923
N	-2.862693	0.540083	-2.008919
N	0.484054	1.311472	-1.901721
H	1.442662	1.16147	-1.565597
H	0.475511	1.433569	-2.906348
N	-0.491897	-1.245098	0.549385
H	0.283283	-1.702157	1.017571
H	-1.241073	-1.095239	1.208957
C	-0.458266	1.17073	0.737115
N	-0.852515	2.055662	1.40372
H	2.684992	0.0	0.0
