17

C	0.0	0.0	0.0
C	-0.241312	-0.049458	-1.546674
Cl	1.843977	0.0	0.0
H	-1.558227	-0.002895	-1.805728
N	-0.359344	1.11801	0.692982
H	0.25103	1.345165	1.681865
H	-0.27508	2.10748	-0.030952
N	-0.201599	-1.273864	0.515486
H	-1.29277	-1.259342	1.110254
H	0.496184	-1.409941	1.480923
N	0.34466	-1.027254	-2.189942
H	0.056136	-2.001827	-1.44243
H	-0.486455	-1.420821	-3.026283
N	0.045035	1.280313	-1.940759
H	1.151023	1.191915	-2.526161
H	-0.6155	1.507586	-3.01019
Cl	-2.782644	0.0	0.0
