17

C	0.0	0.0	0.0
C	-0.363954	0.61212	-1.401417
Cl	1.843681	0.0	0.0
H	0.42915	1.334597	-1.620331
N	-0.511836	0.820161	1.023025
H	-0.090171	0.67764	1.930384
H	-0.594583	1.791078	0.762229
N	-0.403756	-1.383177	0.106593
H	-0.018232	-1.781031	0.955093
H	-1.418088	-1.350172	0.219509
N	-1.60231	1.344135	-1.307827
H	-1.908961	1.557495	-2.246497
H	-2.355234	0.825622	-0.852013
N	-0.332693	-0.358119	-2.48709
H	-0.996261	-1.09088	-2.262687
H	0.58385	-0.7969	-2.495393
Cl	-4.295955	0.0	0.0
