17

C	0.0	0.0	0.0
C	-0.239447	-0.058103	-1.548334
Cl	1.874342	0.0	0.0
H	0.418602	-0.854016	-1.917893
N	-0.474614	1.172727	0.650546
H	-1.468695	1.030281	0.824848
H	-0.38033	1.941637	-0.006613
N	-0.443721	-1.221423	0.597658
H	-1.460211	-1.228425	0.514435
H	-0.221959	-1.188969	1.587055
N	0.08866	1.257339	-2.102444
H	-0.365106	1.295468	-3.006381
H	1.088846	1.347954	-2.224915
N	-1.572764	-0.375008	-1.989764
H	-2.28803	0.135639	-1.474544
H	-1.764948	-1.353293	-1.815114
Cl	-3.981722	0.0	0.0
