17

C	0.0	0.0	0.0
C	-0.330291	-0.42783	-1.452697
Cl	1.865115	0.0	0.0
H	0.272803	0.229225	-2.091787
N	-0.406527	1.365828	0.20424
H	-0.012247	1.716343	1.069981
H	-1.42123	1.33486	0.30984
N	-0.541077	-0.912454	0.90278
H	-0.376298	-0.704565	1.875097
H	-0.351418	-1.869399	0.641326
N	-1.705196	-0.27905	-1.837369
H	-2.354608	-0.643737	-1.138455
H	-1.955976	0.695307	-1.935452
N	0.016015	-1.845619	-1.595693
H	1.00271	-1.943355	-1.801168
H	-0.520131	-2.180789	-2.386731
Cl	-4.377904	0.0	0.0
