16
Coordinates from ORCA-job run
  C   -0.51585561948698      0.30080943276791      0.37679201608129
  C   0.79712585591175     -0.50733818937119      0.45353482389807
  H   -0.73435180350383      0.55991139648757      1.42638103541643
  H   0.62750873763706     -1.45390677438373      0.97247167368192
  C   -1.67462372345689     -0.52007118695288     -0.16747672231592
  H   -2.60170523786418      0.04789825495254     -0.05217110629942
  H   -1.52886995075817     -0.73647443744690     -1.22524492601642
  H   -1.78718313460314     -1.46266473223839      0.37108062277050
  N   -0.28627729274829      1.45223687348616     -0.47848164383926
  H   0.34185168967171      2.11865978679312     -0.04374302110107
  H   -1.16188550705488      1.92380218621830     -0.66663956060351
  C   1.83665247007932      0.26121149182322      1.13099179547776
  N   2.61369973703570      0.90806062230695      1.72835030336369
  N   1.26046425675582     -0.87267656112944     -0.93462568352391
  O   2.12691898658093     -0.18394561684513     -1.45490945101846
  O   0.68553053580407     -1.83451254646812     -1.43631015597169
