16
Coordinates from ORCA-job run
  C   -0.47773855574836      0.44059821225734      0.11497550083137
  C   0.72985749982755     -0.53244401527011      0.00732394593789
  H   -0.18873295616893      1.20704089849739      0.84099546168316
  H   0.50112658878459     -1.35482727699575     -0.67492184851224
  C   -1.69209619214949     -0.32357423428606      0.61983897066789
  H   -1.50414125857586     -0.79804433883461      1.58478200138291
  H   -1.98265342926758     -1.09864423530037     -0.09649235974229
  H   -2.52648717970422      0.37029613090739      0.72299377924102
  N   -0.79006366533268      1.11026453256685     -1.12743663926555
  H   -0.96837644060173      0.45177572311151     -1.87628526634206
  H   -0.05871369038827      1.74640132998295     -1.41776126775516
  C   1.14976471248711     -1.04026330286210      1.30657008197875
  N   1.43684459475018     -1.44837162712647      2.36982112889026
  N   1.86508192885940      0.22051609436869     -0.62649250664181
  O   2.13661988034452     -0.06949796298396     -1.78803048901201
  O   2.36870816288378      1.11777407196731      0.04111950665788
