16
Coordinates from ORCA-job run
  C   -0.56386406499583     -0.05964575228636      0.48130362734493
  C   0.95286620901658     -0.31734251966821      0.39175666734926
  H   -0.98131538772163     -0.94942703335121      0.96240822696547
  H   1.32600140434869     -0.55968354566827      1.38826989273839
  C   -1.19263610425525      0.12736974993723     -0.89535424797419
  H   -1.08446795165225     -0.75740319261020     -1.52720253281108
  H   -0.74042366083434      0.97677620280167     -1.41551990416140
  H   -2.26036728967095      0.32725966137645     -0.77975202389943
  N   -0.72019991901742      1.05904032626976      1.40213603293684
  H   -0.58160574912374      1.93680082985832      0.91249211407308
  H   -1.65798269634617      1.06578503849187      1.78309499961799
  C   1.65657281884262      0.83927384421192     -0.14907950476940
  N   2.16463599962967      1.82039748697258     -0.54659355064940
  N   1.19202393650614     -1.53368258610692     -0.46342489500339
  O   1.64546857811753     -1.38094674992028     -1.59219533766681
  O   0.84729387715635     -2.59457176030835      0.04866043590912
