9
Coordinates from ORCA-job run
  C   -0.35897897681928     -0.55754986884379     -0.46779678813042
  C   0.95379417793559     -0.21645827027030     -0.43202756576551
  H   -0.67688397635891     -1.36504067906196     -1.12090262801664
  H   1.67375504902542     -0.73561401806386     -1.04968741840462
  N   -1.37059274726467      0.07860643387724      0.19511298172592
  H   -1.10697932456021      0.70690359400966      0.93936266231632
  H   -2.21198813074412     -0.44476177259304      0.36216714475109
  C   1.39677172260355      0.83125159734432      0.42065705352621
  N   1.70110220618264      1.70166298360173      1.15311455799764
