9
Coordinates from ORCA-job run
  C   -0.42659424023341      0.17046181213420     -0.23974391577726
  C   0.77425717828717     -0.09149872109642      0.32779909080363
  H   -0.48337660391576      0.86368959483234     -1.07491061305542
  H   0.86806961038289     -0.77214291871996      1.16892082823601
  N   -1.63727015577800     -0.30654521316484      0.19237628660774
  H   -2.37661767686407     -0.33712213534817     -0.48832580156734
  H   -1.61815958479431     -1.10083957658975      0.81185212816434
  C   1.95787790662967      0.53324410315320     -0.15222069913013
  N   2.94281356628581      1.04175305479939     -0.54674730428157
