9
Coordinates from ORCA-job run
  C   -0.29580398852126     -0.26250301865796     -0.33612354376876
  C   0.63765811580000      0.31670160973563      0.45505885165235
  H   -0.00318766289948     -0.66474060804320     -1.30239465002378
  H   0.38292362857353      0.72024944855877      1.43068237350861
  N   -1.60894769488671     -0.47256622247856     -0.00178737934303
  H   -1.97053616551141      0.05832754849895      0.77453043525544
  H   -2.25633900803042     -0.57222803264778     -0.76458991707089
  C   1.99512172526529      0.39874418023543      0.04018415324069
  N   3.12011105021046      0.47701509479873     -0.29556032345063
