9
Coordinates from ORCA-job run
  C   -0.37755487706406      0.02081354799262     -0.35482505400839
  C   0.74067210145113     -0.01588042346898      0.40726772250249
  H   -0.35098138381925      0.52048173878028     -1.31961679414008
  H   0.75287159000080     -0.51176642794508      1.37367345456232
  N   -1.56746619854642     -0.59419368315385     -0.06041589944976
  H   -1.70676353171287     -0.87830215267373      0.89619911318835
  H   -2.38933288210806     -0.21079694610127     -0.49482444910148
  C   1.94834413375792      0.58494695241324     -0.04239419184418
  N   2.95021104804079      1.08469739415676     -0.40406390170927
