9
Coordinates from ORCA-job run
  C   -0.39760665330895      0.10136306068708     -0.31649901831541
  C   0.76295923676455     -0.10110270988034      0.35041195294216
  H   -0.43016060263928      0.82764031710857     -1.12437756092239
  H   0.83560414464810     -0.82473945229708      1.15699757466295
  N   -1.56321994928373     -0.59511934373255     -0.12429790314680
  H   -1.64527728153931     -1.11432066676374      0.73521611552933
  H   -2.41180281736969     -0.13412719213388     -0.40442016777448
  C   1.93740179580408      0.62126443610521      0.00303689067200
  N   2.91210212692425      1.21914155090672     -0.27406788364737
