9
Coordinates from ORCA-job run
  C   -0.36270352214277     -0.59344086837496     -0.41759864059020
  C   0.95769199021796     -0.45568615009977     -0.13739408554511
  H   -0.69975103057149     -1.47811262319346     -0.94990336272000
  H   1.66678941053555     -1.21128056063739     -0.44656081182859
  N   -1.33754927977013      0.32889065613497     -0.15942665916244
  H   -2.28277148705531     -0.00618034420043     -0.09708116125503
  H   -1.10750014518485      1.07203014982832      0.48322458180629
  C   1.42305069015869      0.68882968757570      0.56587423924446
  N   1.74374337381235      1.65495005296703      1.15786590005063
