9
Coordinates from ORCA-job run
  C   -0.34632176450533     -0.56103322786097     -0.47286271311186
  C   0.97023115718057     -0.41011799410069     -0.18199343395048
  H   -0.65759622574560     -1.39923336015254     -1.08945732454319
  H   1.70120926936071     -1.10954969530929     -0.56398110532129
  N   -1.34785488426910      0.30132437886742     -0.12541151586756
  H   -2.28242627952800     -0.06658481175553     -0.09570246943543
  H   -1.13809689978431      0.98532507477961      0.58610580508915
  C   1.40312717687367      0.67378244508835      0.62969335999557
  N   1.69672845041738      1.58708719044365      1.31260939714509
