9
Coordinates from ORCA-job run
  C   -0.34065530082780     -0.67669892248239     -0.29073958012189
  C   0.97887991015011     -0.41473241689920     -0.11506124442777
  H   -0.64115373830086     -1.65702477462806     -0.64853204998979
  H   1.72307395582010     -1.16784785038664     -0.33493703821328
  N   -1.36239233570389      0.21719284900132     -0.13338940261009
  H   -1.15253639204595      1.06788348741676      0.36706601033291
  H   -2.27825257643742     -0.15830932449793      0.04029932869807
  C   1.39670870280853      0.85953838835583      0.35740112896023
  N   1.67632777453719      1.93099856412031      0.75789284737162
