9
Coordinates from ORCA-job run
  C   -0.35757868292122     -0.58530145324937     -0.43301947139019
  C   0.96302299628373     -0.43485531763182     -0.16055875484069
  H   -0.68474585073481     -1.45743310406607     -0.99159149711827
  H   1.68122272408067     -1.16817688625578     -0.50095538285875
  N   -1.34488746539944      0.31142422846813     -0.13578806706469
  H   -1.12157114567137      1.03685269996180      0.52914123899777
  H   -2.28419857993835     -0.04064918456736     -0.07776410273792
  C   1.41757147203967      0.69394439457392      0.57462499486402
  N   1.73016453226110      1.64419462276654      1.19591104214873
