9
Coordinates from ORCA-job run
  C   -0.42251871972049      0.08657803385066     -0.28709048291763
  C   0.75209940470941      0.04237655883641      0.38452745614278
  H   -0.48733300061578      0.65080282497119     -1.21380547743493
  H   0.85255819085343     -0.50444555611195      1.31747349059925
  N   -1.60583241363557     -0.46435518756166      0.13263465312181
  H   -1.55070540090562     -1.16145319973297      0.85787158616023
  H   -2.28352992784429     -0.67023213396863     -0.58100834566641
  C   1.89648246023364      0.72970232089771     -0.10499855980034
  N   2.84977940692527      1.29102633881924     -0.50560432020476
