9
Coordinates from ORCA-job run
  C   -0.39678439260254     -0.27152396962998     -0.65303483132780
  C   0.91334383949516      0.06667110323650     -0.55218633324033
  H   -0.79067739632366     -0.57401445037991     -1.61901967458334
  H   1.55807006635903      0.02962800792297     -1.41952755919177
  N   -1.28673437079818     -0.34921344853038      0.38123606868583
  H   -2.26272636643337     -0.27571262540319      0.15351017506986
  H   -1.01912184394580      0.08854998300909      1.25010529015213
  C   1.45127905894043      0.47440111953350      0.69890921548307
  N   1.83235140530893      0.81121428024140      1.76100764895235
