9
Coordinates from ORCA-job run
  C   -0.35460842816030     -0.10601514192789     -0.36265816290299
  C   0.71223649294200      0.09394439832193      0.44634328706647
  H   -0.21289262653756     -0.12206374493268     -1.44017184590204
  H   0.60978810465344      0.10696053711589      1.52754121978176
  N   -1.63373748269279     -0.37692058744883      0.05138527522751
  H   -2.37001011104969     -0.15442744061189     -0.59642113336791
  H   -1.85532538195446     -0.16074707852779      1.01004182357334
  C   2.01300164835444      0.27948351185594     -0.09711757733354
  N   3.09154778444493      0.43978554615531     -0.53894288614260
