9
Coordinates from ORCA-job run
  C   -0.40022454354874      0.01258634231000     -0.32907203518043
  C   0.76603883999825     -0.02231790435728      0.35746860866309
  H   -0.41611765662890      0.42000152725931     -1.33656339226317
  H   0.82000593228770     -0.42978787023340      1.36277613955657
  N   -1.59683729991662     -0.50163265152366      0.09970445868423
  H   -2.42646172432884     -0.11395804071391     -0.31549915643175
  H   -1.68333636042832     -0.69097842575101      1.08546738718603
  C   1.96900173285528      0.46186431084246     -0.22563822432135
  N   2.96793107971020      0.86522271216749     -0.69864378589322
