9
Coordinates from ORCA-job run
  C   -0.37209930431206     -0.69115334249369      0.20446792699297
  C   0.94787851169910     -0.39242156218890      0.30141094467220
  H   -0.72374321193813     -1.65206986922444      0.56867349640482
  H   1.64196009284571     -1.10273051764506      0.72925610532737
  N   -1.32703062255063      0.08256707384410     -0.39297735018812
  H   -1.08647427552157      1.04434900203228     -0.58100473014219
  H   -2.28105547917961     -0.06770065846079     -0.11565960039333
  C   1.43206656979614      0.86183163010266     -0.16059924037014
  N   1.76849771916106      1.91932824403384     -0.55456755230357
