9
Coordinates from ORCA-job run
  C   -0.34087092703185     -0.67107597579131     -0.30302682893934
  C   0.97876815470875     -0.41421232276623     -0.11930323203831
  H   -0.64172560309677     -1.64505742773281     -0.67776240064939
  H   1.72206450332558     -1.16550876900071     -0.34813554473734
  N   -1.36195728920400      0.22109953439550     -0.13396997980589
  H   -2.28004954753021     -0.15417568325562      0.02696590592117
  H   -1.15319796282358      1.06690135072166      0.37517936146561
  C   1.39772240306417      0.84968998268093      0.37896936757210
  N   1.67924626858790      1.91233931074860      0.80108335121139
