9
Coordinates from ORCA-job run
  C   -0.37089408959207     -0.34919830518428     -0.09734292368446
  C   0.73142915747962      0.39985632960089      0.14056430398419
  H   -0.35425247634417     -1.41216306337575      0.12894818531628
  H   0.75348907534354      1.46304754076050     -0.08018594543386
  N   -1.52655227238461      0.09315648924110     -0.68848951990936
  H   -1.66718646603790      1.09047839182943     -0.71791849585525
  H   -2.36149916490204     -0.42989655351272     -0.48733013646389
  C   1.90965429308272     -0.18848961148902      0.67639594066034
  N   2.88681194335491     -0.66579121787015      1.12535859138602
