9
Coordinates from ORCA-job run
  C   -0.41397232456637      0.03924657121288     -0.31073186262159
  C   0.77976924112788     -0.04104891529956      0.32280057279971
  H   -0.47998154003076      0.55811490634656     -1.26343945025142
  H   0.88422440076581     -0.55974735875500      1.27132620043440
  N   -1.57979807776715     -0.55246733253043      0.10214753231791
  H   -2.43523876769116     -0.14670743135280     -0.23568269075418
  H   -1.62090756264471     -0.85675887441915      1.06160528760851
  C   1.94699335787238      0.53945844437687     -0.24458281261834
  N   2.91791127293408      1.02090999042063     -0.70244277691500
