9
Coordinates from ORCA-job run
  C   -0.36591094723959     -0.68508277150966     -0.23556031219922
  C   0.96426359107309     -0.42440435192360     -0.17971790154100
  H   -0.69670911271852     -1.67772871843030     -0.52691064220013
  H   1.68538978701327     -1.19066508510506     -0.42900078234007
  N   -1.36966907386170      0.22037790423200     -0.03103251722167
  H   -1.11600498363446      1.08780133988719      0.41799985870597
  H   -2.26651326731191     -0.14468872920394      0.23822790078012
  C   1.42427957188474      0.86412258397097      0.20687159755084
  N   1.74087443479510      1.94826782808240      0.54012279846517
