12

C	0.0	0.0	0.0
C	-0.21366	0.003825	-1.541238
Br	2.026512	0.0	0.0
H	0.554822	0.645274	-1.975155
H	-0.242448	0.960618	0.444269
H	0.008553	-1.008278	-1.910009
N	-0.544519	-1.036593	0.705955
H	-0.709146	-1.918585	0.228122
H	-1.234279	-0.865275	1.461422
C	-1.452145	0.477163	-2.183703
N	-2.249784	0.883616	-2.949744
Br	-3.884485	0.0	0.0
