12

C	0.0	0.0	0.0
C	-0.475378	-0.206799	-1.434223
Br	1.949385	0.0	0.0
H	-1.57327	-0.241686	-1.392004
H	-0.273535	0.9996	0.350808
H	-0.092819	-1.16843	-1.786311
N	-0.479491	-1.098548	0.792649
H	-1.500957	-1.066515	0.717619
H	-0.238879	-0.944133	1.765704
C	-0.046591	0.849625	-2.343406
N	0.308034	1.685276	-3.088139
Br	-3.706764	0.0	0.0
