12

C	0.0	0.0	0.0
C	-0.502803	0.58772	-1.312911
Br	2.010602	0.0	0.0
H	-1.603342	0.577857	-1.220124
H	-0.275621	0.648165	0.830295
H	-0.215504	-0.059533	-2.147105
N	-0.529461	-1.275754	0.188902
H	-0.184347	-1.982989	-0.440564
H	-0.573054	-1.592868	1.141954
C	-0.02187	1.939887	-1.568595
N	0.344108	3.034253	-1.783613
Br	-3.886655	0.0	0.0
