12

C	0.0	0.0	0.0
C	-0.484505	0.139459	-1.43937
Br	1.954152	0.0	0.0
H	-0.148336	1.093049	-1.854938
H	-0.275197	0.908878	0.545255
H	-1.582958	0.143189	-1.400796
N	-0.484416	-1.229024	0.555601
H	-1.506206	-1.183589	0.48106
H	-0.249861	-1.274332	1.540896
C	-0.020815	-0.942276	-2.304261
N	0.333616	-1.787317	-3.037365
Br	-3.703616	0.0	0.0
