12

C	0.0	0.0	0.0
C	-0.496247	0.537791	-1.338583
Br	2.010373	0.0	0.0
H	-0.194545	-0.146161	-2.139767
H	-0.273148	0.675539	0.806909
H	-1.597364	0.53386	-1.257518
N	-0.52236	-1.268082	0.2391
H	-0.21059	-1.996155	-0.382159
H	-0.572708	-1.553044	1.199706
C	-0.006723	1.877384	-1.639604
N	0.369226	2.962476	-1.880334
Br	-3.870453	0.0	0.0
