12

C	0.0	0.0	0.0
C	-0.495313	0.19052	-1.428589
Br	1.95399	0.0	0.0
H	-1.593695	0.210845	-1.374424
H	-0.26868	0.892883	0.574222
H	-0.14917	1.150706	-1.819496
N	-0.491651	-1.240381	0.521138
H	-1.511196	-1.204389	0.420293
H	-0.28831	-1.297609	1.5125
C	-0.065612	-0.87144	-2.334127
N	0.258531	-1.694054	-3.105749
Br	-3.720938	0.0	0.0
