12

C	0.0	0.0	0.0
C	-0.523552	-0.408533	-1.369902
Br	2.010494	0.0	0.0
H	-1.62019	-0.314923	-1.282461
H	-0.26597	1.033123	0.212686
H	-0.28123	-1.457674	-1.56252
N	-0.519466	-0.846308	0.981578
H	-0.196324	-1.799398	0.926572
H	-0.477121	-0.483923	1.919174
C	-0.018234	0.406826	-2.467484
N	0.383729	1.057031	-3.357242
Br	-3.905914	0.0	0.0
