12

C	0.0	0.0	0.0
C	-0.488683	-0.149427	-1.436989
Br	1.949115	0.0	0.0
H	-0.142932	-1.114185	-1.818455
H	-0.270972	0.98891	0.383814
H	-1.588093	-0.152099	-1.396887
N	-0.490788	-1.116039	0.760863
H	-1.512721	-1.077926	0.679838
H	-0.261901	-0.980235	1.739613
C	-0.033917	0.918916	-2.31899
N	0.32517	1.772478	-3.040397
Br	-3.714611	0.0	0.0
