12
Coordinates from ORCA-job run
  C   0.64256693410331      0.16605200755494      0.78164649256272
  C   -0.53843792999704     -0.02547951995846     -0.17676694829628
  Br  2.26488882327356     -0.58763787966121      0.02704457192224
  H   -1.44356916843288      0.36126923898417      0.30537813651950
  H   0.43322402222568     -0.39246855177287      1.69587607789427
  C   0.82000670539747      1.57900491270785      1.07791086948680
  N   0.93159536049129      2.72292689366492      1.32314032866692
  N   -0.79038682476467     -1.51917898108354     -0.33528914158358
  O   -0.91836097047431     -2.12348542617917      0.72220982056743
  O   -0.86441038899683     -1.97486420190333     -1.46599156464849
  C   -0.34156647453803      0.61505767941257     -1.46774484453172
  N   -0.19355008828756      1.17880382823412     -2.48741379855981
