12
Coordinates from ORCA-job run
  C   0.61630004324637      0.70000919068114      0.47888076565042
  C   -0.60170238098462     -0.14255555430190      0.07764632537236
  Br  0.11206785972264      1.90418754356027      1.91688415712823
  H   -0.94318742941540     -0.75826136303674      0.91181522342158
  H   0.92945108626235      1.31418340457289     -0.36663744025322
  C   1.70802196421611     -0.16521811891619      0.90229953071202
  N   2.57776355611966     -0.88490202124140      1.22886507818391
  N   -0.16139283644260     -1.10482727050969     -1.01418094017088
  O   -0.41292434429099     -2.28843073149759     -0.83433179569932
  O   0.41017939957316     -0.59572590428865     -1.97096284489276
  C   -1.68219064780069      0.68215576573308     -0.44818470849645
  N   -2.55338627020597      1.34038505924478     -0.88109335095588
