12
Coordinates from ORCA-job run
  C   0.45717100866171      0.37868198773160      0.92558423656786
  C   -0.68487545715309     -0.23848943696577      0.10550174687835
  Br  1.33856578485947     -1.00549991631696      1.96957325383474
  H   -1.38882425504259     -0.73213887042643      0.77813249397876
  H   0.00508734598981      1.06141261453854      1.64985998710357
  C   1.42563162177281      1.11466667867073      0.12573422402503
  N   2.20715658436778      1.75799405208462     -0.47110792039915
  N   -0.16223050487591     -1.32405927199931     -0.81280525513588
  O   -0.59545027495813     -2.45189867299047     -0.61314141319059
  O   0.64707249738386     -0.97036532506018     -1.66001740391056
  C   -1.35193952839018      0.78327222958451     -0.69303051508289
  N   -1.89736482261555      1.62542393114912     -1.30428343466923
