17

C	-0.521154	0.022005	-1.460134
C	0.0	0.0	0.0
Br	0.383468	-1.356009	-2.490775
H	1.092442	0.0	0.0
C	-2.01808	-0.152793	-1.601299
H	-2.310667	-1.098492	-1.145316
H	-2.541688	0.667885	-1.10221
H	-2.30639	-0.150676	-2.649589
N	-0.120461	1.351285	-2.092799
O	0.884711	1.903152	-1.66766
O	-0.829935	1.768017	-3.00593
C	-0.468502	-1.248675	0.615661
N	-0.90447	-2.220722	1.111858
N	-0.425471	1.120303	0.816114
H	0.16814	1.911176	0.618687
H	-1.397919	1.36094	0.696478
Br	3.467323	0.0	0.0
