17

C	-0.358456	0.092602	-1.502165
C	0.0	0.0	0.0
Br	-2.288234	0.383161	-1.748792
H	1.095101	0.0	0.0
C	0.414204	1.204718	-2.171152
H	1.479259	1.048355	-1.978819
H	0.22489	1.214016	-3.244342
H	0.105171	2.160661	-1.747879
N	-0.034619	-1.240206	-2.18226
O	-0.783524	-2.186867	-1.967577
O	0.979435	-1.267167	-2.872087
C	-0.541264	-1.194573	0.651029
N	-0.975614	-2.11793	1.23289
N	-0.361108	1.177505	0.769618
H	0.381581	1.860739	0.6986
H	-1.24448	1.572561	0.473136
Br	3.413414	0.0	0.0
