14
Coordinates from ORCA-job run
  C   0.80176986374160     -0.63916703611857      0.61209653046249
  C   -0.17611302625578     -0.04597460700296     -0.40481066449463
  Br  0.63427997880398     -2.58248330237874      0.63832367585496
  H   0.06442428906901     -0.40197744370577     -1.40766640855073
  H   0.55928255487577     -0.28959252199027      1.61595514070945
  C   2.17830410765372     -0.28742383184073      0.28932522336380
  N   3.27829310889961      0.01071794109767      0.00378257381317
  N   0.06155583763225      1.44059982132583     -0.44208311479491
  O   0.00579664223384      1.98425784611981     -1.53987526362504
  O   0.23790223455982      1.99846854750921      0.63946085099393
  C   -1.63972776080024     -0.26009459910099     -0.06124812409277
  H   -1.85350023849564      0.12832684097143      0.93674641260260
  H   -2.26299351671716      0.26507872237502     -0.78735329490365
  H   -1.88927407520078     -1.31973637726096     -0.09465353733867
