14
Coordinates from ORCA-job run
  C   0.81315125813441     -0.67448704815386      0.55437162529845
  C   -0.18160270963956     -0.01757941533839     -0.40548205357315
  Br  0.65745366780415     -2.61585935990989      0.44604111969759
  H   0.04874115712101     -0.29856188721625     -1.43423390808190
  H   0.58116590639476     -0.39798010883430      1.58320013015541
  C   2.18331485198218     -0.29130567822166      0.24052016537468
  N   3.27828652819759      0.03322022100879     -0.03541021440634
  N   0.04716236401793      1.46914910990268     -0.33727575839394
  O   0.21230230488299      1.94987182801863      0.78233639612918
  O   -0.00094556207738      2.08830366292371     -1.39454015125331
  C   -1.63885363616267     -0.26812763285571     -0.05977610169121
  H   -1.84026436183417      0.03484651043568      0.96988670884248
  H   -2.27584969011588      0.31142607072971     -0.73067898824002
  H   -1.88306207870536     -1.32291627248915     -0.17795896985793
