14
Coordinates from ORCA-job run
  C   0.79077611677832     -0.97727985709693     -0.01345863604599
  C   -0.38635990144222     -0.12356286863213     -0.48085004175614
  Br  2.04700478286986     -1.29325242662166     -1.47078485958951
  H   -0.88736821236357     -0.64712093376316     -1.29621384441513
  H   0.39399148215022     -1.96380428835077      0.24132496117913
  C   1.48940360498057     -0.45252480051452      1.15225389722078
  N   2.00604396234324     -0.05943322054733      2.13144797042752
  N   0.10009304730933      1.15743984293572     -1.09125635478051
  O   0.85323869508737      1.84374200937382     -0.40727259298619
  O   -0.32187557228281      1.43212558551672     -2.21114502122617
  C   -1.34024566017883      0.21137104260274      0.65340137855510
  H   -1.72201859704975     -0.70655538788250      1.10593169170122
  H   -0.83382114365765      0.80103222812409      1.41856644919068
  H   -2.18786260454408      0.78082307485591      0.26705500252522
