17

C	-0.387356	0.005014	-1.456659
C	0.0	0.0	0.0
Br	0.126542	-1.590465	-2.438099
H	1.096813	0.0	0.0
H	0.086952	0.83738	-1.974846
N	-1.86641	0.214596	-1.628048
O	-2.632464	-0.718525	-1.400709
O	-2.217183	1.366564	-1.902131
C	-0.493296	-1.190538	0.803269
H	-0.178136	-2.131401	0.348837
H	-0.036291	-1.139974	1.795742
H	-1.582398	-1.205579	0.916483
C	-0.418306	1.322197	0.639986
H	-1.502752	1.412947	0.770698
H	0.059638	1.388495	1.621043
H	-0.069093	2.173858	0.050051
H	2.824808	0.0	0.0
