17

C	-0.383922	-0.091272	-1.440379
C	0.0	0.0	0.0
Br	-2.338154	-0.213454	-1.794819
H	1.097438	0.0	0.0
H	0.03946	-0.978315	-1.90661
N	0.119137	1.049295	-2.282589
O	-0.273471	2.183998	-2.029854
O	0.908547	0.747722	-3.174746
C	-0.395622	-1.289793	0.710939
H	0.126335	-1.325932	1.670926
H	-1.474492	-1.35594	0.887775
H	-0.078713	-2.168709	0.140886
C	-0.481864	1.224808	0.757956
H	-1.57378	1.315672	0.747755
H	-0.149019	1.132306	1.795882
H	-0.050739	2.140558	0.355223
H	2.803067	0.0	0.0
