12

C	-0.106997	-0.024572	0.005672
C	-0.523908	-0.288867	-1.424776
Cl	1.645301	0.287557	0.142208
H	-0.049034	-1.200102	-1.791164
H	-0.66399	0.796113	0.449581
H	-1.613533	-0.404895	-1.398254
N	-0.392286	-1.229285	0.86926
O	-0.419929	-1.028375	2.075345
O	-0.522601	-2.316073	0.313342
C	-0.177482	0.829227	-2.294486
N	0.104977	1.70542	-3.022082
Cl	-3.231274	0.535086	0.188776
