16

C	-0.326686	0.038279	-1.478959
C	0.0	0.0	0.0
F	-1.654258	0.446856	-1.723448
H	1.104905	0.0	0.0
H	-0.291142	-0.981098	-1.890385
N	0.560337	0.965985	-2.118539
H	0.645686	0.753548	-3.103571
H	1.484116	0.879114	-1.687612
N	-0.545604	-1.227628	0.611029
H	-0.550036	-1.082756	1.616538
H	0.150643	-1.954527	0.458382
C	-0.518312	1.229057	0.716162
H	-0.232297	2.130294	0.172584
H	-0.08373	1.282808	1.719892
H	-1.608999	1.194443	0.795498
H	3.021504	0.0	0.0
