16

C	-0.436461	-0.01093	-1.456609
C	0.0	0.0	0.0
F	-0.363225	1.28511	-1.978687
H	1.095419	0.0	0.0
H	-1.486515	-0.326857	-1.545826
N	0.38053	-0.864801	-2.281534
H	1.348281	-0.661675	-2.026477
H	0.207351	-1.807292	-1.950969
N	-0.386539	-1.31649	0.548537
H	0.407016	-1.662871	1.076261
H	-1.159921	-1.210102	1.195831
C	-0.537463	1.169175	0.800516
H	-1.636276	1.163502	0.83198
H	-0.159714	1.11648	1.825885
H	-0.212117	2.115402	0.366805
H	3.013118	0.0	0.0
