16

C	-0.537106	-0.075464	-1.414911
C	0.0	0.0	0.0
F	-0.077219	-1.269428	-1.981675
H	1.100341	0.0	0.0
H	-0.126367	0.737342	-2.022456
N	-1.977098	-0.083697	-1.515814
H	-2.33012	-0.514821	-0.666902
H	-2.323117	0.86609	-1.568521
N	-0.546598	-1.161754	0.733363
H	-0.148686	-1.123023	1.66718
H	-0.123078	-1.979761	0.303109
C	-0.44856	1.282216	0.679759
H	0.040634	1.365785	1.654864
H	-0.137722	2.154073	0.095327
H	-1.532925	1.311445	0.828598
H	3.076249	0.0	0.0
