16

C	-0.528714	-0.024219	-1.411833
C	0.0	0.0	0.0
F	-1.951175	-0.270846	-1.344099
H	1.094828	0.0	0.0
H	-0.124053	-0.889225	-1.937948
N	-0.283316	1.158032	-2.153962
H	-0.700951	1.955414	-1.693416
H	-0.677624	1.074201	-3.081967
N	-0.389057	-1.266878	0.629855
H	-1.295512	-1.177476	1.073809
H	0.30376	-1.474446	1.340104
C	-0.457903	1.233932	0.774486
H	-0.107965	1.14906	1.806541
H	-1.550821	1.328715	0.779752
H	-0.013521	2.147629	0.36761
H	3.039098	0.0	0.0
