16

C	-0.338542	0.122773	-1.478602
C	0.0	0.0	0.0
Br	0.13917	-1.627683	-2.399472
H	1.097747	0.0	0.0
C	-1.749402	0.341819	-1.804085
N	-2.860418	0.568459	-2.112749
N	0.46577	1.193119	-1.943967
H	1.429725	1.030452	-1.622198
H	0.432275	1.274541	-2.9519
N	-0.588982	-1.182659	0.665222
O	-1.594214	-1.71024	0.184492
O	-0.047964	-1.518532	1.716913
N	-0.458648	1.162471	0.752626
H	0.310928	1.392871	1.377914
H	-0.533768	1.937145	0.102841
H	2.695652	0.0	0.0
