16

C	-0.583685	-0.021023	-1.406995
C	0.0	0.0	0.0
Br	0.415931	1.497109	-2.407655
H	1.088043	0.0	0.0
C	-0.302303	-1.178152	-2.253284
N	-0.189661	-2.043519	-3.041261
N	-1.96934	0.241278	-1.361743
H	-2.093925	1.047769	-0.754422
H	-2.347177	0.423893	-2.28357
N	-0.367105	-1.206046	0.727102
O	-0.216564	-2.287482	0.142059
O	-0.663634	-1.107685	1.932217
N	-0.436061	1.196816	0.680241
H	0.413418	1.712737	0.904751
H	-0.851023	0.904345	1.559258
H	2.464784	0.0	0.0
