16

C	-0.407001	0.05556	-1.490391
C	0.0	0.0	0.0
Br	-0.09782	-1.651636	-2.412819
H	1.090176	0.0	0.0
C	-1.84107	0.343723	-1.625641
N	-2.98859	0.581464	-1.71722
N	0.380613	1.069628	-2.156192
H	1.354665	0.847323	-1.926152
H	0.177491	1.931925	-1.655398
N	-0.534659	-1.193691	0.72121
O	0.096343	-2.24636	0.632049
O	-1.578157	-1.052767	1.378811
N	-0.419239	1.230554	0.595839
H	0.276133	1.497612	1.286222
H	-1.325517	1.131481	1.039006
H	2.69717	0.0	0.0
