16

C	-0.527848	-0.027249	-1.432122
C	0.0	0.0	0.0
Br	0.191212	1.574008	-2.360851
H	1.109785	0.0	0.0
C	-0.016896	-1.155539	-2.229402
N	0.302491	-2.02461	-2.954443
N	-1.971072	0.102785	-1.469865
H	-2.284353	0.146298	-2.434689
H	-2.334603	-0.747881	-1.047058
N	-0.413454	-1.220177	0.70307
O	-1.040529	-2.106229	0.077075
O	-0.034544	-1.345641	1.867277
N	-0.371226	1.151963	0.754958
H	0.428842	1.7756	0.789982
H	-1.171376	1.613475	0.343136
H	2.495169	0.0	0.0
