16

C	-0.42209	-0.073284	-1.469856
C	0.0	0.0	0.0
Br	-0.132976	1.684585	-2.31051
H	1.107843	0.0	0.0
C	0.455786	-0.978077	-2.241834
N	1.078879	-1.68462	-2.946406
N	-1.835484	-0.378199	-1.608378
H	-1.947947	-1.326043	-1.256974
H	-2.080244	-0.37636	-2.593734
N	-0.369219	-1.2155	0.667145
O	-0.427439	-1.199189	1.915042
O	-0.442458	-2.272825	-0.00989
N	-0.385598	1.182327	0.687712
H	0.292178	1.335853	1.427216
H	-1.299234	1.065039	1.107695
H	2.378328	0.0	0.0
