16

C	-0.506579	0.054916	-1.43992
C	0.0	0.0	0.0
Br	-0.081656	1.824296	-2.194726
H	1.109186	0.0	0.0
C	0.206649	-0.888184	-2.328406
N	0.657954	-1.611745	-3.137056
N	-1.950858	-0.096505	-1.501065
H	-2.250082	-0.006891	-2.467803
H	-2.136829	-1.050318	-1.200482
N	-0.368149	-1.253172	0.605307
O	-0.63261	-2.232098	-0.134508
O	-0.258976	-1.343617	1.843173
N	-0.32762	1.139127	0.790626
H	0.434636	1.273175	1.448223
H	-1.185004	0.988282	1.306913
H	2.388738	0.0	0.0
