16

C	-0.564562	-0.000664	-1.411924
C	0.0	0.0	0.0
Br	0.414771	1.583615	-2.353266
H	1.107743	0.0	0.0
C	-0.219741	-1.117309	-2.289055
N	-0.01631	-1.938998	-3.105742
N	-1.954249	0.22199	-1.38578
H	-2.116245	0.992336	-0.742018
H	-2.32378	0.431634	-2.304778
N	-0.36677	-1.199876	0.708904
O	-0.55585	-1.124132	1.940636
O	-0.313271	-2.275749	0.090992
N	-0.440149	1.191645	0.693335
H	0.394178	1.76219	0.824606
H	-0.738291	0.886957	1.614941
H	2.414175	0.0	0.0
