16

C	-0.365001	-0.086587	-1.48831
C	0.0	0.0	0.0
Br	-0.075395	-1.928005	-2.124589
H	1.107579	0.0	0.0
C	-1.760144	0.262321	-1.774344
N	-2.855568	0.627017	-1.997457
N	0.518019	0.782192	-2.237658
H	0.325579	1.721609	-1.896291
H	1.467321	0.56096	-1.907734
N	-0.584014	-1.107664	0.818137
O	0.129514	-1.662686	1.649836
O	-1.787258	-1.340503	0.651601
N	-0.409012	1.278243	0.502542
H	0.232756	1.568868	1.231466
H	-1.36583	1.279015	0.834106
H	2.742891	0.0	0.0
