16

C	-0.512229	0.006857	-1.406449
C	0.0	0.0	0.0
Br	0.777756	-1.198962	-2.623815
H	1.108632	0.0	0.0
C	-1.798858	-0.640111	-1.650146
N	-2.887665	-1.017311	-1.891018
N	-0.537438	1.32007	-1.920397
H	0.229898	1.857287	-1.536292
H	-0.533184	1.312735	-2.930965
N	-0.381515	-1.180215	0.739372
O	-0.313509	-1.108904	1.981265
O	-0.606709	-2.229343	0.113763
N	-0.173987	1.235028	0.70106
H	-1.04906	1.250779	1.211097
H	0.594343	1.300616	1.366311
H	2.309519	0.0	0.0
