17

C	0.0	0.0	0.0
C	-0.342319	-0.017914	-1.505741
Cl	1.764906	0.0	0.0
H	0.329196	0.733786	-1.930666
C	-0.402512	1.28517	0.706066
H	-1.490337	1.26911	0.759263
H	-0.038746	2.131889	0.120536
H	0.069374	1.299218	1.687383
N	-0.479892	-1.214715	0.766128
O	-0.703967	-2.239522	0.140717
O	-0.496734	-1.097836	1.98429
N	-1.693215	0.501828	-1.979236
O	-2.406125	-0.257986	-2.614314
O	-1.81107	1.719625	-1.907147
C	-0.026978	-1.264696	-2.203017
N	0.341283	-2.186243	-2.83079
F	-2.496349	0.0	0.0
