17

C	0.0	0.0	0.0
C	-0.352004	0.009854	-1.504742
Cl	1.766279	0.0	0.0
H	0.349844	0.732429	-1.932379
C	-0.382428	1.279808	0.732356
H	-0.01294	2.130056	0.157661
H	-1.468236	1.282834	0.801865
H	0.101189	1.269077	1.708716
N	-0.489645	-1.21814	0.753042
O	-0.713575	-2.237119	0.118354
O	-0.511086	-1.112464	1.971835
N	-1.682091	0.603361	-1.958886
O	-2.417594	-0.093899	-2.63755
O	-1.756083	1.818678	-1.822797
C	-0.107049	-1.245653	-2.214659
N	0.169461	-2.162107	-2.895069
F	-2.478528	0.0	0.0
