17

C	0.0	0.0	0.0
C	-0.549408	0.270908	-1.416116
Cl	1.759558	0.0	0.0
H	-0.525815	-0.665609	-1.97157
C	-0.396903	1.032038	1.043268
H	-1.473255	0.977374	1.17289
H	-0.101989	2.010525	0.660346
H	0.135726	0.833015	1.972247
N	-0.421525	-1.401604	0.436183
O	-0.503207	-1.591367	1.641073
O	-0.558911	-2.256064	-0.430423
N	0.397795	1.182865	-2.165831
O	0.937784	0.720985	-3.169943
O	0.55637	2.32007	-1.735306
C	-1.887725	0.897466	-1.524778
N	-2.551256	1.625262	-2.186166
F	-2.568484	0.0	0.0
