18

C	0.0	0.0	0.0
C	-0.476425	0.037187	-1.503116
Br	1.970686	0.0	0.0
H	0.417704	0.22778	-2.105062
C	-0.492174	1.165392	0.846988
H	-0.063514	1.102318	1.8505
H	-0.220292	2.106833	0.372144
H	-1.582008	1.040781	0.86688
C	-0.355899	-1.246867	0.683781
N	-0.579762	-2.215316	1.310615
N	-1.384118	1.163957	-1.693804
H	-1.631354	1.174146	-2.679315
H	-2.227453	0.884919	-1.140649
C	-1.084155	-1.304476	-1.918691
H	-1.330937	-1.262304	-2.986577
H	-0.403039	-2.147656	-1.75943
H	-2.001025	-1.426781	-1.335196
F	-2.975396	0.0	0.0
