18

C	0.0	0.0	0.0
C	-0.265224	-0.00271	-1.558695
Br	1.979759	0.0	0.0
H	0.463497	-0.721549	-1.958909
C	-0.697709	1.105794	0.740962
H	-1.781212	0.865643	0.591548
H	-0.442693	1.088956	1.803736
H	-0.44106	2.0646	0.294781
C	-0.344533	-1.311901	0.553785
N	-0.553833	-2.381686	0.992459
N	0.009623	1.349307	-2.051394
H	-0.55682	1.518305	-2.871373
H	0.984173	1.440472	-2.305745
C	-1.640353	-0.465966	-2.005951
H	-2.464157	0.048094	-1.480493
H	-1.777265	-1.51873	-1.751203
H	-1.665863	-0.3759	-3.100524
F	-3.268896	0.0	0.0
