11
Coordinates from ORCA-job run
  C   -0.50866293268139      0.43728760418887     -0.24182667117181
  C   0.78553726605872      0.28699294825427      0.55276587038758
  Br  -1.65725472004456      1.72717156033019      0.81821107540989
  H   1.21179327569811      1.26935034212169      0.76429879980508
  H   -0.33771574996844      0.97615687986065     -1.17245832378125
  H   0.57347991036947     -0.18764350559560      1.51560020927333
  N   -1.10774295103376     -0.80562130279468     -0.50213584735937
  H   -1.35161185873664     -1.30736874207150      0.34184958057815
  H   -1.91646115008939     -0.73516537879976     -1.10419231732467
  C   1.75848221199805     -0.51725571234892     -0.18754703219653
  N   2.55115669842984     -1.14390469314521     -0.78356534362040
