13

C	-0.394362	0.050218	-1.471062
C	0.0	0.0	0.0
Br	0.046382	-1.73021	-2.205114
H	1.090553	0.0	0.0
H	-0.407294	-0.881189	0.492483
C	-1.824494	0.249603	-1.707931
N	-2.981969	0.373715	-1.869371
C	0.374543	1.027892	-2.242596
N	0.931824	1.809781	-2.917299
N	-0.491998	1.180005	0.706038
O	-0.729403	2.196441	0.042729
O	-0.590327	1.105105	1.929449
F	2.472052	0.0	0.0
