13

C	-0.392939	0.02961	-1.473054
C	0.0	0.0	0.0
Br	0.051228	-1.763381	-2.182773
H	1.090483	0.0	0.0
H	-0.406101	-0.874608	0.503756
C	-1.824918	0.220672	-1.710717
N	-2.983541	0.334273	-1.876785
C	0.37638	0.997221	-2.256242
N	0.952812	1.770109	-2.927788
N	-0.497622	1.18958	0.685804
O	-0.597978	1.13251	1.910578
O	-0.743094	2.195024	0.00753
F	2.473342	0.0	0.0
