13

C	-0.426977	0.015433	-1.459017
C	0.0	0.0	0.0
Br	0.51507	-1.345148	-2.530179
H	1.088364	0.0	0.0
H	-0.337839	0.913657	0.493912
C	-1.865319	-0.157617	-1.680351
N	-3.027763	-0.224689	-1.841917
C	-0.035653	1.316895	-2.010173
N	0.224642	2.373591	-2.45327
N	-0.559448	-1.122633	0.750636
O	-0.48964	-1.048553	1.977745
O	-1.026183	-2.085642	0.134034
F	2.472702	0.0	0.0
