13

C	-0.456744	0.056845	-1.448723
C	0.0	0.0	0.0
Br	0.548674	1.384846	-2.503256
H	1.088602	0.0	0.0
H	-0.343214	-0.924318	0.467723
C	-0.175058	-1.248042	-2.054603
N	-0.015088	-2.311303	-2.529638
C	-1.885157	0.334014	-1.627129
N	-3.048454	0.47005	-1.731662
N	-0.515149	1.107034	0.801029
O	-0.499431	0.953095	2.022552
O	-0.888176	2.135791	0.229305
F	2.470442	0.0	0.0
