13

C	-0.46102	-0.015308	-1.448608
C	0.0	0.0	0.0
Br	0.533696	-1.324666	-2.538013
H	1.088395	0.0	0.0
H	-0.347417	0.905791	0.499649
C	-1.891329	-0.276432	-1.630605
N	-3.048241	-0.427867	-1.773254
C	-0.166818	1.299564	-2.022681
N	-0.012489	2.376677	-2.466493
N	-0.495809	-1.140732	0.765751
O	-0.438199	-1.043912	1.991774
O	-0.880423	-2.146408	0.160944
F	2.47173	0.0	0.0
