16

C	-0.472346	-0.03796	-1.462731
C	0.0	0.0	0.0
Br	0.155233	1.551986	-2.429476
H	1.091381	0.0	0.0
C	0.124546	-1.204601	-2.119348
N	0.575672	-2.144647	-2.662417
C	-1.92707	-0.142043	-1.622995
N	-3.077485	-0.31707	-1.792164
C	-0.517667	-1.180111	0.806052
H	-1.61056	-1.197209	0.845792
H	-0.149465	-2.110662	0.371539
H	-0.112632	-1.102672	1.81643
N	-0.485082	1.247102	0.663557
O	0.179551	1.658104	1.606871
O	-1.54504	1.739691	0.270018
Cl	3.219051	0.0	0.0
