16

C	-0.438862	0.021139	-1.470371
C	0.0	0.0	0.0
Br	-2.417093	0.252915	-1.623135
H	1.094315	0.0	0.0
C	0.168294	1.063528	-2.29773
N	0.624192	1.831361	-3.062317
C	-0.152582	-1.274457	-2.086172
N	0.058468	-2.313838	-2.595529
C	-0.481201	-1.205454	0.778338
H	-0.110628	-2.112064	0.299003
H	-0.053114	-1.160299	1.777662
H	-1.569357	-1.242252	0.856786
N	-0.412441	1.275499	0.663647
O	-0.391759	2.298842	-0.01627
O	-0.700252	1.229778	1.855704
Cl	3.150197	0.0	0.0
