13

C	-0.405189	-0.050473	-1.474173
C	0.0	0.0	0.0
Br	-0.261196	1.727677	-2.285445
H	1.091552	0.0	0.0
H	-1.451417	-0.342514	-1.582703
C	0.416146	-0.963407	-2.271907
N	0.997804	-1.660741	-3.018555
N	-0.373548	-1.222503	0.663875
O	-0.582088	-2.219339	-0.057988
O	-0.289185	-1.25172	1.901428
C	-0.480897	1.144142	0.731312
N	-0.825396	2.100849	1.324502
H	2.327585	0.0	0.0
