13

C	-0.443455	0.013982	-1.448053
C	0.0	0.0	0.0
Br	0.60388	-1.16573	-2.628216
H	1.095844	0.0	0.0
H	-0.229977	1.013423	-1.834014
C	-1.861886	-0.267202	-1.633874
N	-3.013664	-0.440952	-1.790834
N	-0.401811	-1.178957	0.737655
O	-0.660951	-2.203274	0.089539
O	-0.304275	-1.121752	1.970657
C	-0.423257	1.202792	0.676528
N	-0.741401	2.221813	1.172397
H	2.343442	0.0	0.0
