13

C	-0.325616	0.00539	-1.469797
C	0.0	0.0	0.0
Br	-2.255809	-0.163318	-1.84668
H	1.09659	0.0	0.0
H	0.135842	-0.877826	-1.913514
C	0.155948	1.214446	-2.123722
N	0.503708	2.189578	-2.679779
N	-0.329657	-1.262572	0.622699
O	-0.526567	-1.274732	1.846434
O	-0.216785	-2.274765	-0.086566
C	-0.51138	1.127794	0.735143
N	-0.881187	2.101762	1.282121
H	2.348717	0.0	0.0
