18

C	0.0	0.0	0.0
C	-0.369651	-0.133576	-1.549227
Cl	1.804977	0.0	0.0
H	0.571018	-0.178485	-2.104835
C	-0.444205	1.327616	0.590844
H	-1.535168	1.379605	0.547662
H	-0.016717	2.16602	0.04053
H	-0.11355	1.365662	1.629882
N	-0.479005	-1.046964	0.851564
H	-0.298201	-1.956146	0.443855
H	-1.493642	-0.926309	0.919793
C	-1.025773	1.065212	-2.077034
N	-1.443642	2.03941	-2.583703
C	-1.159212	-1.395683	-1.906721
H	-0.56517	-2.28607	-1.679842
H	-1.36215	-1.399085	-2.981001
H	-2.109275	-1.417835	-1.373552
Br	-3.868117	0.0	0.0
