18

C	0.0	0.0	0.0
C	-0.350607	0.162974	-1.500516
Cl	1.849229	0.0	0.0
H	0.110632	-0.690116	-2.015412
C	-0.512323	1.137278	0.854744
H	-0.138277	1.034024	1.876523
H	-0.182905	2.099755	0.462553
H	-1.605656	1.092413	0.866921
N	-0.513762	-1.234494	0.457283
H	-0.51966	-1.304208	1.465246
H	-0.039727	-2.029273	0.050335
C	0.271573	1.369321	-2.05484
N	0.716296	2.349745	-2.524384
C	-1.855636	0.177805	-1.775895
H	-2.335461	1.081334	-1.404185
H	-2.35547	-0.65321	-1.2833
H	-2.024223	0.120404	-2.854644
Br	-4.899739	0.0	0.0
