18

C	0.0	0.0	0.0
C	-0.296019	0.200406	-1.520365
Cl	1.79798	0.0	0.0
H	0.304346	-0.569821	-2.016838
C	-0.507725	1.137787	0.867666
H	-0.206885	0.967197	1.904869
H	-0.11542	2.103755	0.543672
H	-1.602084	1.147098	0.818657
N	-0.490881	-1.307224	0.372246
H	-1.511735	-1.251928	0.354878
H	-0.225778	-1.490094	1.33542
C	0.224318	1.49684	-1.967331
N	0.605388	2.535823	-2.360816
C	-1.743632	0.053	-1.97896
H	-1.779708	0.195493	-3.063
H	-2.418956	0.762121	-1.50662
H	-2.126182	-0.939995	-1.752067
Br	-4.475059	0.0	0.0
