18

C	0.0	0.0	0.0
C	-0.493153	-0.249864	-1.448676
Cl	1.800491	0.0	0.0
H	-1.588329	-0.30862	-1.338426
C	-0.455313	1.358678	0.505507
H	-0.135571	1.456465	1.543669
H	-1.547147	1.404331	0.453089
H	-0.016011	2.168497	-0.078162
N	-0.455	-1.005583	0.925609
H	-0.240663	-1.930093	0.564697
H	-1.473502	-0.914965	0.971598
C	-0.025376	-1.555635	-1.914467
N	0.354557	-2.597934	-2.301983
C	-0.154395	0.835343	-2.471067
H	-0.486048	0.526662	-3.465161
H	-0.679621	1.756081	-2.216622
H	0.920006	1.025251	-2.504765
Br	-3.833078	0.0	0.0
