18

C	0.0	0.0	0.0
C	-0.387266	-0.076628	-1.534761
Cl	1.801168	0.0	0.0
H	0.554603	-0.173475	-2.077971
C	-0.45171	1.285831	0.673315
H	-0.115055	1.279056	1.714312
H	-0.049111	2.174723	0.183384
H	-1.544142	1.309222	0.644734
N	-0.459909	-1.19614	0.666042
H	-1.484469	-1.1556	0.613637
H	-0.218582	-1.115672	1.650716
C	-0.942651	1.183208	-2.036378
N	-1.278273	2.17574	-2.567606
C	-1.233026	-1.283128	-1.960162
H	-2.221941	-1.262098	-1.50254
H	-0.706437	-2.195824	-1.675844
H	-1.350174	-1.260227	-3.047707
Br	-3.889581	0.0	0.0
