18

C	0.0	0.0	0.0
C	-0.285462	-0.34745	-1.503899
Cl	1.806272	0.0	0.0
H	0.272125	-1.274171	-1.693086
C	-0.515141	1.36797	0.395408
H	-0.2189	1.571703	1.425761
H	-1.608895	1.368094	0.335328
H	-0.111499	2.143265	-0.256225
N	-0.497403	-0.978896	0.91855
H	-1.5011	-0.835511	1.027107
H	-0.343538	-1.917159	0.566032
C	0.29001	0.666436	-2.393125
N	0.706153	1.488429	-3.121967
C	-1.747438	-0.567574	-1.875149
H	-2.350135	0.329164	-1.757839
H	-1.807003	-0.894672	-2.917284
H	-2.212345	-1.322438	-1.244779
Br	-4.482488	0.0	0.0
