11
Coordinates from ORCA-job run
  C   -0.29352808848434     -0.25667407699388      0.51828604654569
  C   0.58577268182906      0.08807541208789     -0.67881702031874
  H   0.28839141774540     -0.30014506016726      1.44091241957662
  H   1.09353090744335      1.03831854330392     -0.50871489529152
  H   -0.83819577009206     -1.18925838615459      0.38619197887294
  H   -0.02652857849681      0.19819783565865     -1.57798782845934
  N   -1.32400144961643      0.80981311382232      0.72466325262793
  O   -0.96818061247845      1.97197025748191      0.54618768710099
  O   -2.43697386811579      0.44402077102133      1.08795789056390
  C   1.56953455081473     -0.97084367603831     -0.89357235065427
  N   2.35017880945136     -1.83347473402199     -1.04410718056421
