16
Coordinates from ORCA-job run
  C   -0.23877176226051      0.28203836389290      0.52688509109557
  C   0.44054003535247      0.32015957419415     -0.84750362010949
  Cl  0.46302532043495      1.41244043251562      1.68426622939990
  H   0.38142767098459      1.33064151917508     -1.24452336326926
  N   -1.68381344443710      0.84478804048916      0.24580488349977
  O   -1.76713715886765      1.85974253979240     -0.43097223636058
  O   -2.60785549716081      0.21917605190158      0.74617860430726
  N   -0.26025109088478     -1.01480896848600      1.05666712546651
  H   -0.65909921225573     -1.02557488436039      1.98641869000039
  H   -0.80830299414934     -1.61911763538560      0.45559104125099
  N   -0.20413188859322     -0.63652516193357     -1.68597983890492
  H   -0.18425429647228     -0.34458711684133     -2.65346211169264
  H   0.26758549567638     -1.53093618451828     -1.60378904021306
  N   1.92616724278161      0.03549437041366     -0.67266689322656
  O   2.28293446496059     -1.13497484698249     -0.77084216789881
  O   2.64993711489083      1.00204390613311     -0.45707239334505
