16
Coordinates from ORCA-job run
  C   -0.66051498495798     -0.22247138597978      0.25598867601316
  C   0.34555173090741     -0.52918757303277     -0.86642512910757
  Cl  -1.14212053270863     -1.80147264615950      1.00565163134478
  H   -0.20290550739534     -1.09113056989999     -1.62598657910796
  N   -0.05682688353494      0.56963276895173      1.42768629289666
  O   1.08526271743883      0.29621081551792      1.76550629693716
  O   -0.79935390041079      1.37484841702205      1.97179241176171
  N   -1.70951207023870      0.54560539977478     -0.25973399261729
  H   -2.35413692014034      0.84722862970466      0.45817932088451
  H   -2.19011247118290      0.07959916968385     -1.01737197506932
  N   1.50426253700267     -1.23349945086204     -0.49283848560679
  H   2.03364770933181     -1.53102028303484     -1.29979442375995
  H   2.07586867117299     -0.71776461260742      0.15973710284608
  N   0.61528546546707      0.81896954482597     -1.54992756277187
  O   1.32000709504312      1.61087721033392     -0.93229576632903
  O   0.13259734420571      0.98357456576148     -2.66616781831428
