16
Coordinates from ORCA-job run
  C   -0.30775326233695      0.30676849810167      0.54321883583748
  C   0.43329909245061      0.36238331545449     -0.80552150293038
  Cl  0.44915927841383      1.50917646995728      1.63981059719541
  H   0.44836411548492      1.38598381917544     -1.17369323469787
  N   -1.71732321880637      0.84425738251349      0.20233099771951
  O   -1.75625248497813      1.95414869628191     -0.30374514080915
  O   -2.67110074254418      0.11692394381067      0.44218088224219
  N   -0.44235600115619     -0.94533503456976      1.14687588062939
  H   0.35844931827371     -1.54656906028539      1.03154508966104
  H   -1.33997178709384     -1.37706994656753      0.99200016451842
  N   -0.21243085023397     -0.51109087295436     -1.71423776197064
  H   -0.08785084167982     -1.48027854007079     -1.45310934597141
  H   0.09011028044123     -0.36410311742724     -2.66753082200688
  N   1.89611942288021      0.01135682292071     -0.56326772582122
  O   2.73184443961794      0.88870149615999     -0.74634308540318
  O   2.12969324126701     -1.15425387250059     -0.23551382819270
