16
Coordinates from ORCA-job run
  C   -0.29957392733643      0.46350613462355      0.47061150931610
  C   0.42374698489119      0.22849837540729     -0.87066511051738
  Cl  0.49987472055898      1.82761118460259      1.30107756910948
  H   0.43722049163796      1.15120173148769     -1.44707747902525
  N   -1.70154527074994      0.94892171199028      0.03587013240587
  O   -1.72521709070659      1.94815208218623     -0.66551078223999
  O   -2.66393319141348      0.28671126450533      0.39734629497035
  N   -0.46078953343132     -0.63438956243681      1.32714692480895
  H   -1.31638256907180     -1.14188867441296      1.15856493554381
  H   0.36460140543981     -1.21212425178378      1.38584358458194
  N   -0.23752906635194     -0.81465823105093     -1.56512438466653
  H   0.04192685545737     -0.86501193259455     -2.53536793878953
  H   -0.09384819053217     -1.70920697287004     -1.11496848964235
  N   1.88729141882848     -0.07350813148742     -0.57880624368121
  O   2.72462172205819      0.73830405523369     -0.95577555964889
  O   2.11953524072175     -1.14211878340020     -0.00916496252536
