16
Coordinates from ORCA-job run
  C   -0.35948354126215      0.06029403856230      0.53383532936004
  C   0.25000552139010     -0.20444923486576     -0.86205712955129
  Cl  0.91444201981949     -0.08039645835872      1.74153312873355
  H   -0.50744361460671      0.06156920319628     -1.60198124219717
  N   -0.96226238395465      1.47640143429526      0.54378521199189
  O   -0.53383573964088      2.31656179463927      1.31161777762087
  O   -1.88306094979395      1.60493122494196     -0.25778182546338
  N   -1.44273862421173     -0.80388387817639      0.86440657428777
  H   -1.14018881089088     -1.76211353003269      0.73125309447034
  H   -2.21758247707455     -0.61154141959810      0.23824925324943
  N   0.62736823971437     -1.56343352023616     -0.97566294415798
  H   0.76085846463644     -1.82436663648043     -1.94302144925757
  H   1.49096318767739     -1.73689239097054     -0.47549723506794
  N   1.39639793861145      0.78055829520519     -1.11142856984840
  O   1.07938082620093      1.96494431581998     -1.16031369731259
  O   2.52517994338533      0.32081676205854     -1.24193627685757
