16
Coordinates from ORCA-job run
  C   -0.33702899024086      0.20222893358347      0.41043872190876
  C   0.52721515225130      0.34189139127575     -0.85054422278735
  Cl  0.28446028151655      1.36203144681091      1.66536147797085
  H   0.51707087770840      1.37722916589248     -1.17822881266716
  N   -1.73828283554214      0.74054830817944      0.08038118372072
  O   -1.83343682494430      1.54924087260586     -0.83429425254816
  O   -2.64696742808183      0.33411398515352      0.79058386286041
  N   -0.49596475360944     -1.12243695064340      0.82214415673328
  H   -1.15024407097498     -1.20454836286811      1.58923602272899
  H   0.39799296903673     -1.54933151850166      1.03037076875201
  N   0.17139326499266     -0.54494639816594     -1.90045005713126
  H   -0.25042385097869     -1.39395490725573     -1.54882915240708
  H   -0.42255784846249     -0.09632619952605     -2.58087468391332
  N   1.97115244787454      0.07506211108042     -0.46629203918545
  O   2.22009318898374     -1.02242687401617      0.03013130202299
  O   2.78752842047081      0.95062499639518     -0.72313427605824
