16
Coordinates from ORCA-job run
  C   -0.36394152197497      0.19630639075230      0.39751063755678
  C   0.55283350487830      0.34765707283929     -0.82444005876466
  Cl  0.20366070252063      1.34505585971887      1.68784794472711
  H   0.55563822249775      1.38595892148664     -1.14291913076131
  N   -1.75013686748047      0.73716738304575      0.01324459365942
  O   -1.80712705243647      1.55402966593810     -0.89729063104466
  O   -2.68792525237882      0.32405350500320      0.68059154683490
  N   -0.53936749714715     -1.13192727710749      0.78999404929470
  H   -1.22838866479785     -1.22207460901783      1.52503796017289
  H   0.34430264475693     -1.56171214228667      1.03282006734227
  N   0.24233290177346     -0.52980576295145     -1.89610306963101
  H   -0.19520397247332     -1.38135296515598     -1.57098405525253
  H   -0.31933826522417     -0.07476665243986     -2.59919845473123
  N   1.97936587502901      0.07814850187516     -0.38160366223703
  O   2.80541819711454      0.95590707631790     -0.59661861054639
  O   2.20787704534258     -1.02364496801794      0.11511087338069
