16
Coordinates from ORCA-job run
  C   -0.35590283634343     -0.11067704046700      0.39878562348649
  C   0.38049040922615     -0.14640939861189     -0.96876767248104
  Cl  0.71228603542235     -0.50893695729664      1.72865828238644
  H   -0.35769308703043      0.14378872758783     -1.72041107539452
  N   -0.88478689625018      1.34565346410263      0.58563368294297
  O   -1.87464830229399      1.58641917800030     -0.10129302632132
  O   -0.29103132379024      2.12255016008272      1.31428493607944
  N   -1.42174837461697     -1.04782290958985      0.32906213508612
  H   -1.80134345317983     -1.23553530161807      1.24924711569885
  H   -2.15418308255427     -0.67727126409278     -0.26745044313758
  N   0.99377767350628     -1.38393454473728     -1.30655947200966
  H   0.29849263429344     -2.11870035027328     -1.26354940585358
  H   1.74245843454028     -1.59049283927528     -0.65656182349162
  N   1.42070783088426      0.93813934109970     -0.99538287447967
  O   2.55909443151570      0.62945726360727     -0.66090571164730
  O   1.03302990667084      2.05477247148165     -1.33079027086407
