16
Coordinates from ORCA-job run
  C   -0.39229067539703     -0.11146255697316      0.51579310049430
  C   0.77937233696399     -0.39180993872276     -0.44072918195356
  Cl  0.23488363587954     -0.26794734102669      2.20965897439683
  H   1.05171724562353     -1.43965358806252     -0.29450623790641
  N   -0.91123845890609      1.33429627641264      0.44988914184029
  O   -0.08657273234544      2.22454429483929      0.30640459598291
  O   -2.11473123005241      1.48174051279583      0.61041687459840
  N   -1.46566766781178     -0.94699505690421      0.19009840358614
  H   -1.22076457100812     -1.92632296610301      0.24555483394286
  H   -2.29219029109839     -0.74038782736405      0.73427244466759
  N   1.91572686381712      0.42390532874985     -0.29419679628689
  H   2.69130577347531      0.08158732115465     -0.84303794989017
  H   1.72091712240049      1.39522093904130     -0.48701770718334
  N   0.16672338203738     -0.37855698032334     -1.84863905720621
  O   -0.13635163864260      0.72144468720505     -2.29956744926285
  O   0.05916090506452     -1.45960310471887     -2.41939398981987
