16
Coordinates from ORCA-job run
  C   -0.31292046964855      0.32928546024020      0.36830488730585
  C   0.54053407224277      0.19447087189354     -0.90018035091296
  Cl  0.40665887444591      1.63709161969379      1.40787139460055
  H   0.59586576515533      1.15828337730550     -1.39760946731388
  N   -1.67789142188419      0.90280503157052     -0.04331076343785
  O   -1.73090811008632      1.55031829239788     -1.08134950349443
  O   -2.60166470324214      0.68759595411439      0.72852804118613
  N   -0.55730660494698     -0.89231168439062      0.99823047662407
  H   0.30745916371550     -1.33961385639226      1.27518453860923
  H   -1.20711305517297     -0.79814915533768      1.76770701943308
  N   0.10909656579233     -0.82837799734736     -1.78501360147493
  H   -0.36609940291255     -1.57422370544864     -1.29491310602175
  H   -0.46022201304033     -0.45933693380473     -2.53101155403661
  N   1.96839756265998     -0.10476257209132     -0.48202451111337
  O   2.14832389307907     -1.11235466585097      0.20010566350616
  O   2.83978988384318      0.64927996344772     -0.89551916345930
