16
Coordinates from ORCA-job run
  C   -0.32812892550335     -0.12414616983292      0.41114070900420
  C   0.35264178379710     -0.13123313620034     -0.98546857515634
  Cl  0.80040545444709     -0.51974664203924      1.69135886615142
  H   -0.42035325187793      0.15392290100264     -1.70333719793215
  N   -0.87314445676905      1.32055942105642      0.63832887703713
  O   -0.26048849377202      2.09912497265744      1.34939900433620
  O   -1.89609455350034      1.55227901158000     -0.00146170864063
  N   -1.38000574317287     -1.07838329851105      0.37282378888088
  H   -2.14343714890816     -0.71277037409681     -0.18668414716532
  H   -1.71702130755285     -1.28587079778308      1.30523771736523
  N   0.97255759663828     -1.35394434631813     -1.36237828508411
  H   0.29204241931837     -2.10105361725885     -1.30043891506090
  H   1.75056720281977     -1.55505903224275     -0.74601761130360
  N   1.37177202196958      0.97185565459766     -1.04155310312356
  O   0.95027680947388      2.08503943349808     -1.34651268184977
  O   2.52841059259252      0.68042601989094     -0.75843673745872
