16
Coordinates from ORCA-job run
  C   -0.38130153411262      0.03235295806266      0.52564067275593
  C   0.27223889507484     -0.18335095405214     -0.85888260346162
  Cl  0.86262919814561     -0.10020949509690      1.76457752025206
  H   -0.47356787185767      0.07637028534984     -1.61270252413727
  N   -1.02335265008231      1.43100813532765      0.54899645379778
  O   -1.92767612495816      1.55095410150069     -0.27240228378088
  O   -0.63523834941918      2.26750201676323      1.34194447382639
  N   -1.44825021310419     -0.86855288675829      0.80734274708894
  H   -1.11420741045477     -1.81506370617028      0.66616952569752
  H   -2.20968049926888     -0.68637642833235      0.16204049997713
  N   0.69354387587391     -1.52774940782840     -0.99120648554772
  H   0.85868971600083     -1.76320539288316     -1.96025512215607
  H   1.54982382507967     -1.68548766916342     -0.47349078894957
  N   1.39418207669158      0.84054798523954     -1.05624355435048
  O   1.04164718348912      2.01515300883510     -1.09859196465256
  O   2.54051988290222      0.41810744920620     -1.15693656635961
