16
Coordinates from ORCA-job run
  C   -0.36305230972514     -0.25100553613111      0.57192086468024
  C   0.83624716389735     -0.33212239366585     -0.40274465346777
  Cl  0.18531748240068      0.00940704281639      2.23472182640789
  H   1.12101792404674     -1.38659089443732     -0.44431673208961
  N   -1.16236625878154      1.05491621777168      0.23782053831468
  O   -2.36930687771344      1.01818840719913      0.42111063075907
  O   -0.51033125276543      2.01777237960438     -0.15511291826321
  N   -1.15936267530356     -1.40581214306980      0.53003696109960
  H   -1.92270973671721     -1.34065343658841      1.19150049134671
  H   -1.51900794478282     -1.54115704632755     -0.40713069714213
  N   1.94189011320919      0.46551887560394     -0.07706193059273
  H   1.70898120317477      1.44858851373110     -0.11319416679889
  H   2.72398116970798      0.27202144244124     -0.68551033047359
  N   0.28639183268126     -0.05903007889201     -1.84025744165873
  O   1.01230167516155      0.56786264851740     -2.59679603393375
  O   -0.80899150849039     -0.53790399857324     -2.12998640818778
