16
Coordinates from ORCA-job run
  C   -0.41075823760562     -0.19141803620136      0.56555339094965
  C   0.75242840608335     -0.49018948870492     -0.41092759495696
  Cl  0.17079027543541     -0.08716014927076      2.23435848596511
  H   0.81804886401455     -1.57911360070554     -0.47855677511803
  N   -0.92721824238296      1.25710839186747      0.26305738831974
  O   -0.09115249669319      2.07744293622036     -0.10400051094057
  O   -2.11784173034533      1.46103718266026      0.44339875856278
  N   -1.42406626733840     -1.15916798919290      0.49537796666418
  H   -1.79678057071992     -1.19978903095442     -0.44547884578512
  H   -2.16270559091205     -0.95708496703017      1.15708359136005
  N   1.99443129632466      0.05924229611045     -0.06594310966282
  H   2.72645595430737     -0.27816708235882     -0.67363696651161
  H   1.96738564440306      1.06955802455834     -0.08004009294859
  N   0.27573757153780     -0.07644708040111     -1.84111474668769
  O   1.11447027855141      0.41743596194994     -2.57928350556568
  O   -0.89022515466012     -0.32428736854685     -2.14484743364445
