16
Coordinates from ORCA-job run
  C   -0.42305049481883     -0.19657246771498      0.40463429999170
  C   0.75656228393764     -0.40017301038496     -0.57759161289238
  Cl  0.20847996687912     -0.65371242721202      2.05709008046090
  H   0.95572246262704     -1.47330730343009     -0.59135568129787
  N   -0.83626772893504      1.27319326162205      0.56598191136171
  O   0.06219754091826      2.08640727234337      0.72733341009891
  O   -2.03593253630088      1.50928629547411      0.56780993739704
  N   -1.53413389449048     -0.90799917575671     -0.03803431434845
  H   -1.35240986223606     -1.89640795758343     -0.14343680445713
  H   -2.36988523382634     -0.73048452030630      0.50148406678663
  N   1.97317526529084      0.30825478410206     -0.41769165658927
  H   1.81505862551326      1.26203693259114     -0.12511944161933
  H   2.58627166848258     -0.16069157458936      0.23216678102058
  N   0.19710924254799     -0.08831051420216     -1.94649377439051
  O   -0.08443363649648      1.08798456145124     -2.14797885701683
  O   0.08153633090734     -1.01850415640396     -2.73579834450572
