16
Coordinates from ORCA-job run
  C   -0.34025545643033     -0.08542429953921      0.58692652340669
  C   0.84562936352041     -0.20034268249605     -0.43432051326078
  Cl  0.37806901868264      0.35553796849952      2.14194299985640
  H   1.40575349651316     -1.08860026564107     -0.13726687779646
  N   -1.23142604022918      1.06422937119949      0.09658160992911
  O   -2.26733729028364      0.73504549896778     -0.46766505268303
  O   -0.79956462101389      2.20241342547321      0.22925772671823
  N   -1.16680639156971     -1.22077639937625      0.76679565830309
  H   -1.64671368218720     -1.47455917883084     -0.08693761808109
  H   -0.62752948371818     -2.00358673052192      1.11257192303948
  N   1.72512762029578      0.89272909938530     -0.63582512449725
  H   1.22846553493342      1.76794336341958     -0.73961728801047
  H   2.38566853844783      0.96409714286702      0.12465935677629
  N   0.20603826975103     -0.55249604889945     -1.75844609436896
  O   -0.08073703859640      0.38509338526133     -2.49487619476505
  O   -0.01738183811571     -1.74330364976842     -1.96978103456616
