16
Coordinates from ORCA-job run
  C   -0.34362592352106      0.34128100937540      0.39960528076561
  C   0.39899602435944      0.24079446049145     -0.93292769045463
  Cl  0.39793555463289      1.68820999929703      1.37235193899330
  H   0.37412662196562      1.20152208406238     -1.44117569878622
  N   -1.76113004329761      0.84902181161745      0.08618116373240
  O   -1.86278463951756      1.69209086270417     -0.79084037038800
  O   -2.66264926870330      0.39905358238178      0.77998819138669
  N   -0.45602549380232     -0.88767200302651      1.05047117086921
  H   -1.10303842778328     -0.84677537739373      1.82646020375256
  H   0.44996758119812     -1.24675451696625      1.32113083497937
  N   -0.19026303624879     -0.77812001929064     -1.70901608558203
  H   -0.16771568354994     -1.67486457186024     -1.24344835516435
  H   0.17970281931376     -0.82607745198611     -2.64770602066322
  N   1.88668301348132      0.01576536976705     -0.63514210595264
  O   2.18525427545508     -1.01516118896647     -0.03099527621438
  O   2.67556662601765      0.84668594979317     -1.07193718127367
