16
Coordinates from ORCA-job run
  C   -0.22231730207753      0.25711498678100      0.54081607209008
  C   0.44043307659088      0.33542554958338     -0.84003232305607
  Cl  0.52041092142473      1.32184790724424      1.73437094510880
  H   0.40122050946456      1.36256806060953     -1.19433832550513
  N   -1.65633280571262      0.86423264148516      0.30107438463583
  O   -2.59010053582859      0.23673931100536      0.78057329205501
  O   -1.72204321140835      1.91117620919153     -0.32713865507753
  N   -0.26788863561076     -1.05953058662234      1.01743093975591
  H   -0.64938014067828     -1.09939428004946      1.95356451633818
  H   -0.84078546557191     -1.62592535133908      0.40291405524441
  N   -0.23917605508841     -0.56882033207174     -1.70845720214740
  H   -0.21776572970103     -0.24181136418080     -2.66456248010092
  H   0.20626510016245     -1.47928240789799     -1.66369019782741
  N   1.92067274260556      0.00701163506328     -0.69727802653369
  O   2.67074549669890      0.94497845119591     -0.44817935678547
  O   2.24704203473041     -1.16633042999800     -0.85106763819458
