16
Coordinates from ORCA-job run
  C   -0.45256691697281     -0.11741168911989      0.47882314428889
  C   0.83115077583640     -0.31763933145235     -0.34483341829311
  Cl  0.01612633991969     -0.13882155155191      2.23111264258771
  H   1.18925851278587     -1.32363209686938     -0.11406116941126
  N   -1.10151229667547      1.26362315205354      0.29217251713187
  O   -0.35940228201619      2.22595428427998      0.16298301409558
  O   -2.32280111569451      1.29472294524007      0.35113123746141
  N   -1.40286528786821     -1.06945276045833      0.09676346929767
  H   -2.29253891010525     -0.92978368444753      0.55598568177427
  H   -1.06870586639193     -2.01629225874417      0.21465624434264
  N   1.86097620485609      0.61704198280718     -0.13581618108951
  H   1.59253772083422      1.55250216756872     -0.40305612931583
  H   2.71817672664183      0.33128244034710     -0.58693937481919
  N   0.36537653064426     -0.43353841449375     -1.80365651529757
  O   0.40510926108207     -1.54905355021367     -2.31363276322140
  O   0.01868060312396      0.60949836505439     -2.34863239953211
