16
Coordinates from ORCA-job run
  C   -0.41444790708633      0.06539855162086      0.42816728502366
  C   0.25385233074167     -0.14879610756571     -0.93461815607182
  Cl  0.85017590097589     -0.07755534534358      1.70846326184656
  H   -0.44190751213720      0.20214274164952     -1.69774472409769
  N   -1.03733633015417      1.47996065719904      0.51034101888381
  O   -1.62288573055862      1.83063467392798     -0.50280425741929
  O   -0.98396463554327      2.07412776376483      1.57426749226123
  N   -1.48731255049404     -0.82685435653574      0.55326320866856
  H   -1.87071542639955     -0.84399585412148      1.48936424857577
  H   -1.22082139487735     -1.74910581327076      0.23282506834004
  N   0.56665458100311     -1.51833001826196     -1.11249030628323
  H   1.38143965765617     -1.77464462092918     -0.56779149038250
  H   0.75198256551622     -1.72770477038896     -2.08336729990841
  N   1.47001553756876      0.77987220382505     -1.05026390839883
  O   1.28685197310834      1.95726424753295     -0.76816300121504
  O   2.51741894068036      0.27858604689708     -1.44244843982284
