12
Coordinates from ORCA-job run
  C   0.89702070988585     -0.03838707570816     -0.33941038716231
  C   -0.45238397625505      0.01382989430423     -0.27176809796766
  H   1.39990186836364      0.12571674504904     -1.29111684482474
  N   1.62894876747561     -0.38224745409815      0.84836765585010
  H   2.14219710533341     -1.24557325042017      0.71826369519738
  H   2.30197832409042      0.33673870156774      1.08343174639085
  N   -1.16096827833788     -0.40630303484059      0.85819051271810
  H   -1.81931973653693      0.29097872583132      1.18171266058866
  H   -0.49116052538683     -0.63433887472068      1.58422723009081
  N   -1.25164177571892      0.37385135380091     -1.36276781085493
  H   -2.23928281006538      0.35940797478690     -1.16943670485858
  H   -0.95528967284794      1.20732629444761     -1.84169365516769
