12
Coordinates from ORCA-job run
  C   0.72100851784397     -0.54737198621955      0.16849492829701
  C   -0.52074372301803     -0.01858753532677      0.09839666247044
  H   0.88293420534178     -1.50079280023117      0.67100225321704
  N   1.81056727798227      0.18113611294110     -0.41786665273449
  H   2.29238396037445     -0.38017339993821     -1.10925222896054
  H   2.48939569095826      0.44837227098228      0.28417332194878
  N   -1.69154826139716     -0.68573069582399      0.48359860859838
  H   -1.50185795171774     -1.58062822465261      0.91105063303457
  H   -2.26020917938619     -0.11009247031511      1.09032736408174
  N   -0.76803510318671      1.27033956667566     -0.37225646190943
  H   0.08247205561436      1.63891704374069     -0.78045791451210
  H   -1.53836748940925      1.28361211816769     -1.02721051353140
