12
Coordinates from ORCA-job run
  C   0.80560509642177     -0.18629198434604     -0.40567761352438
  C   -0.48109552973935      0.14963840421875     -0.16478734542746
  H   1.19265914142276     -0.17740809103743     -1.42442920978201
  N   1.64261056480570     -0.53671546453074      0.70711508427072
  H   2.41344813164641      0.11287987409534      0.80155860684626
  H   2.03677227063268     -1.46173669607650      0.58794244830130
  N   -0.98786269276455      0.32707407644258      1.12195437326015
  H   -0.29797760516390      0.01021967244466      1.79240458321477
  H   -1.87396353763548     -0.14584937165566      1.23909247850526
  N   -1.44721952046450      0.35886779662223     -1.15829904656030
  H   -1.05672184163391      0.32278137349457     -2.08875482170517
  H   -1.94525447752762      1.22654041032823     -1.01011953739913
