12
Coordinates from ORCA-job run
  C   0.80563953515712     -0.27019300598825     -0.40184262110093
  C   -0.46360816380492      0.12298663483941     -0.17932654395520
  H   1.19619619061951     -0.36654909739685     -1.40984132419550
  N   1.62440541693900     -0.66245723856347      0.70398621709339
  H   1.85166888236871      0.14088748242349      1.27959059364489
  H   2.49076027037036     -1.07411460049970      0.39095388870007
  N   -0.95960570766459      0.27089224361896      1.12696506221350
  H   -0.46292449012771     -0.35360289504544      1.75418067106075
  H   -1.95002391438994      0.06405431108592      1.14013779329349
  N   -1.41063641777339      0.44923068462654     -1.17749380081662
  H   -1.67523264511612      1.42613746961869     -1.12727486818630
  H   -1.04763895657802      0.25272801128071     -2.10003506775153
