12
Coordinates from ORCA-job run
  C   0.85893960915092     -0.20637543366355     -0.37407269733133
  C   -0.46284486312325      0.04936333302985     -0.24888612810230
  H   1.31617657696751     -0.22672013490382     -1.36207854457494
  N   1.61166862316916     -0.51886167665645      0.80941312977494
  H   1.99062221143043     -1.45665305692654      0.75713282852357
  H   2.39236715313545      0.11595015468872      0.92242451640818
  N   -1.14817667716213     -0.13328699547658      0.95608052500134
  H   -1.68269097119674      0.68317026950822      1.22435125568916
  H   -0.47200330311355     -0.37275106061101      1.67232492000867
  N   -1.27336603691063      0.39579654352893     -1.33602601071212
  H   -0.89254208356740      1.11426371667099     -1.92830026065050
  H   -2.23715023877976      0.55510434081124     -1.09336353403467
