12
Coordinates from ORCA-job run
  C   0.78996072813571     -0.46423907856622      0.42896107505463
  C   -0.42911288393515     -0.07281773330056      0.01023261788768
  H   0.89760019957411     -1.26494911840897      1.15423009975930
  N   1.97628740661677      0.20773517886455      0.06091896983467
  H   2.74162871394926     -0.43852289980803     -0.07638180554940
  H   1.80596182965515      0.72720026717502     -0.79409826608660
  N   -1.64193392229166     -0.76743796467806      0.25873805215716
  H   -1.47306095098377     -1.68314142050195      0.65320802530000
  H   -2.26159635390812     -0.24671771798753      0.86972445061680
  N   -0.53619780561549      1.05606330128823     -0.84490236910071
  H   -0.47566490220235      1.93403874434365     -0.34561016740352
  H   -1.39487205899444      1.01278844157987     -1.37602068247002
