12
Coordinates from ORCA-job run
  C   0.80301054316365     -0.56954796764742      0.32790380164832
  C   -0.40174628746878     -0.00724827330068      0.10636367654987
  H   0.87539583571884     -1.50026115952207      0.88581551514969
  N   2.02813975883914      0.04652259302011      0.01056740362642
  H   2.65197295761724     -0.56635327061800     -0.49561332748784
  H   1.84401829959317      0.88528234282882     -0.52565578333224
  N   -0.48645943547747      1.18654641597707     -0.67262162252333
  H   -1.12959806920454      1.82930834236519     -0.22593495205928
  H   -0.82627871698676      0.99628210937051     -1.60826082965703
  N   -1.60423513950977     -0.42198807547502      0.73892389711165
  H   -1.44396946069651     -1.17739492667654      1.39286595677022
  H   -2.31025028558821     -0.70014813032199      0.06664626420355
