12
Coordinates from ORCA-job run
  C   0.88814815090578     -0.07008673722728     -0.35647190664671
  C   -0.41599321493878      0.25266807903576     -0.20435339410186
  H   1.38124263561986      0.10103921318453     -1.31206017503473
  N   1.60684231919988     -0.57194216527685      0.78212190458037
  H   2.01753125453339     -1.47596759839004      0.58400813812398
  H   2.36215333410958      0.05356182104163      1.03523089423053
  N   -1.20985002451478      0.71472782944191     -1.26039609814695
  H   -2.15925008086919      0.92202885718483     -0.99809151819687
  H   -1.14412164045832      0.16839009982805     -2.10251548678418
  N   -1.04119547157868      0.26719467591980      1.04646609492998
  H   -1.89959838239970     -0.26890215106706      1.05441391759056
  H   -0.38590887960903     -0.09171192367529      1.73164762945588
