12
Coordinates from ORCA-job run
  C   0.78145016794801     -0.48325946883039      0.27635119413662
  C   -0.50559546812194     -0.14801963932719      0.03255202819540
  H   1.00886510205651     -1.34380691804917      0.90350679016948
  N   1.82002859974925      0.27557349996482     -0.36436992660520
  H   2.36358587090501     -0.31158457249464     -0.98534608042129
  H   2.45886553595347      0.66628399812981      0.31713063743687
  N   -1.58593393850088     -0.80298670993350      0.63483564110962
  H   -1.50042434967921     -0.92086541827538      1.63021957323800
  H   -2.48602909145459     -0.44925429139575      0.35588133822741
  N   -0.86063810191961      0.79745748879006     -0.93461197060484
  H   -1.48197166134470      1.50818671542301     -0.56981814596780
  H   -0.01020266559132      1.21327531599832     -1.29733107891426
