12
Coordinates from ORCA-job run
  C   0.87688525100544     -0.07726008313679     -0.38142095093413
  C   -0.46432195853871      0.03259034232687     -0.24949227973347
  H   1.33995076649106      0.06505789240732     -1.35656184614481
  N   1.65012015847881     -0.45085635380087      0.77076452159004
  H   2.36527006224613      0.23813112715290      0.96841927357226
  H   2.11809478209335     -1.33604664237897      0.61825532414797
  N   -1.13442580289074     -0.35559717535065      0.91483661034987
  H   -0.44068433838649     -0.60929971719073      1.60914765523244
  H   -1.74811281193364      0.36824779112466      1.26655143908425
  N   -1.29934469732794      0.42397107306903     -1.30230539363158
  H   -2.27557149551573      0.45766178861656     -1.05949096239955
  H   -0.98885991572154      1.24139995716069     -1.79970339113329
