12
Coordinates from ORCA-job run
  C   0.77696420486028     -0.27493611783138      0.41080634691554
  C   -0.51855092421971     -0.05438430888217      0.09578190922385
  H   1.03454056368304     -0.86697237959439      1.28878637364736
  N   1.79291358235733      0.27405267352630     -0.44250258116086
  H   2.34971068018310     -0.45907665200107     -0.86391443107804
  H   2.42157309649485      0.87216930447017      0.07930007970851
  N   -1.60438409684256     -0.39180481022352      0.91527661950112
  H   -2.31122338399441     -0.89784303581010      0.39830056025979
  H   -1.32145890333451     -0.90760390478214      1.73595969244749
  N   -0.91457420880404      0.54127032164829     -1.10106948726905
  H   -0.09491761023188      0.90411296975101     -1.57271268121013
  H   -1.60959300015148      1.25901593972900     -0.94501240098558
