12
Coordinates from ORCA-job run
  C   0.79814168042363     -0.52010633912791      0.34295593513165
  C   -0.42518740894751     -0.01614106266176      0.08970139560404
  H   0.92108536532233     -1.38080371107184      0.99329201411834
  N   1.96487573359782     -0.05774245942376     -0.30483903786010
  H   2.75776627678311     -0.04791982181529      0.32258307850408
  H   1.79283291530336      0.87817397134037     -0.65764732899411
  N   -1.61399567596787     -0.36653048573720      0.78191146965233
  H   -2.27099958468031     -0.85867274971253      0.18646871269369
  H   -1.41759481668063     -0.92697323249509      1.60046770855734
  N   -0.55737732793382      1.03158321298263     -0.86000984879994
  H   -1.39621402963325      1.56518957735901     -0.67828003360549
  H   -0.55333312758686      0.69894310036337     -1.81560406500183
