12
Coordinates from ORCA-job run
  C   0.77550487136878     -0.53627628343834      0.17739081998712
  C   -0.50490409101094     -0.15196928622072     -0.02557481285269
  H   0.98821333833782     -1.52641086559481      0.57732763302476
  N   1.82928865318409      0.36033413412566     -0.21069967726117
  H   2.40330062941741     -0.05182879874211     -0.93626683929162
  H   2.43671008677377      0.56907173550653      0.57203427871462
  N   -1.60000496419837     -0.93822883068122      0.35021835353359
  H   -2.49288556159916     -0.52793761542701      0.13228851710792
  H   -1.55143941961172     -1.30197667701227      1.28684106707019
  N   -0.83344361299422      1.00521726773955     -0.73847668342835
  H   0.02543124599073      1.49966319566233     -0.95189650210221
  H   -1.47577117565818      1.60134202408242     -0.23218615450215
