12
Coordinates from ORCA-job run
  C   0.90735665692856     -0.48216606368749      0.37654547999755
  C   -0.36580360563213     -0.12842350768025      0.11876054465585
  H   1.09436062870513     -1.32036607402600      1.03886036424596
  N   2.01840209058962      0.23004713119327     -0.07164262910299
  H   2.81016100303125     -0.35633620470715     -0.28748477195771
  H   1.76115560723296      0.82978488000739     -0.84575633534565
  N   -0.58689882755339      1.02360210491032     -0.71215104686641
  H   -0.77991594276793      1.85015054105315     -0.15624606573490
  H   -1.37533134464951      0.87415687856446     -1.32986589638670
  N   -1.43695628982889     -0.88539202544523      0.68977414388060
  H   -2.06771815268650     -0.28295462829134      1.20662359884943
  H   -1.97881182336917     -1.35110303189113     -0.02941738623502
