12
Coordinates from ORCA-job run
  C   1.02659319741048      0.00244724140531     -0.37987390932462
  C   -0.30931305963576      0.09783171515882     -0.24282460030269
  H   1.46889714136041      0.19848873591223     -1.35055666126791
  N   1.90273505327213     -0.23053805714052      0.67886027203487
  H   1.40203830810749     -0.62045254459780      1.46786059303485
  H   2.70373981479612     -0.78683470093990      0.42127104593179
  N   -1.11345158646245      0.41656737664812     -1.38237860700808
  H   -1.72817763253966     -0.35305749153997     -1.62217468702914
  H   -1.69447882747897      1.22646448348038     -1.19684294804767
  N   -0.86593676650409     -0.10632737520541      1.06659743838564
  H   -1.05502977969555      0.77579841433954      1.53084163824103
  H   -1.73661586263015     -0.62038779752080      1.01022042535192
