12
Coordinates from ORCA-job run
  C   0.74278431901052     -0.50170849141649      0.21123668312939
  C   -0.52412039595394     -0.05719884798109      0.05688409576608
  H   0.93314777934842     -1.45518594606043      0.70348998553401
  N   1.81966948617934      0.31626420998207     -0.27148350138819
  H   2.39368761383281     -0.19192960647934     -0.93285336263490
  H   2.42005230065231      0.61297930900413      0.48786871046730
  N   -1.67114267271979     -0.81302339830856      0.33505192168642
  H   -1.45224171599390     -1.70319802904813      0.75841336664958
  H   -2.32324590345843     -0.29331197832379      0.90743659703741
  N   -0.82415457954939      1.22427772852184     -0.40363169826804
  H   -1.54195371312683      1.20301573791207     -1.11561350282355
  H   0.02751748177885      1.65901931219773     -0.73779929515551
