12
Coordinates from ORCA-job run
  C   0.82776795192324     -0.12588643948551     -0.38355615067863
  C   -0.48958170324372      0.09649350850393     -0.17958818374627
  H   1.23459224239393     -0.12066011732651     -1.39456427109195
  N   1.66967856999657     -0.35030503760912      0.75775941590042
  H   2.15470957562983     -1.23592096823287      0.68295397841573
  H   2.37114925364516      0.37505107661812      0.84090990129873
  N   -1.03776984916752      0.27500173423955      1.09002092501798
  H   -1.87833109211791     -0.27408933834406      1.21070730636429
  H   -0.33526915607844      0.04894597206617      1.78385821026583
  N   -1.44957750170399      0.17425097753567     -1.19775852360541
  H   -1.03726789544150      0.14131256999939     -2.11888867225623
  H   -2.03010039583565      0.99580606203526     -1.09285393588448
