12
Coordinates from ORCA-job run
  C   0.78484775224610     -0.50006552851089      0.23272168096990
  C   -0.50089705233236     -0.16632258342830     -0.01997079551507
  H   1.01445449584823     -1.44789148573440      0.71696124895261
  N   1.82323984559647      0.38688702374027     -0.21442231572208
  H   2.41254545370241      0.67601226619062      0.55650576283940
  H   2.41874833429166     -0.07021950612518     -0.89428253921635
  N   -0.84505413099662      0.91898020409975     -0.83185116758413
  H   0.00546798638600      1.41473433459509     -1.07380874785041
  H   -1.50917831698375      1.53914404512639     -0.38622456921390
  N   -1.58316067087275     -0.94522319222290      0.40480614579116
  H   -1.54128787682309     -1.22942881412221      1.36884256988720
  H   -2.48172582006229     -0.57660676360822      0.14072272666166
