12
Coordinates from ORCA-job run
  C   0.81014890823668     -0.33461884633882      0.39019977983506
  C   -0.49145687293749     -0.02707990441292      0.19116193820677
  H   1.08913702311913     -1.02738677754093      1.18255191044271
  N   1.80064723714709      0.32465822343047     -0.41549319140830
  H   2.37500262283677     -0.34733262371553     -0.90920282470971
  H   2.41832115613721      0.88412792866995      0.16005777137537
  N   -1.53138089173046     -0.63952639071809      0.89959967823808
  H   -1.47370105507158     -1.64284654267901      0.94337794452101
  H   -2.44816330470980     -0.30748284433835      0.65001083715663
  N   -0.89233660306340      1.01505376112405     -0.65068961082508
  H   -1.58726242892016      0.72097026231360     -1.32510661953042
  H   -0.06895579104398      1.37946375420558     -1.11646761330211
