12
Coordinates from ORCA-job run
  C   0.87661792183326     -0.15069896393371     -0.36027031887515
  C   -0.40058231166480      0.26848645978323     -0.21439864156765
  H   1.36876235187800     -0.06483024098371     -1.32773857220698
  N   1.57445442041077     -0.63698744917883      0.79795824240577
  H   1.92034431099415     -1.57657430188177      0.64725547852725
  H   2.37378699205795     -0.05152930419713      1.00800709449038
  N   -1.00698088636808      0.39419784722067      1.03931910577709
  H   -0.36880382947842      0.02981662568628      1.73759301436047
  H   -1.89989090711525     -0.08003001787528      1.08521543294913
  N   -1.17447015237796      0.72565127665668     -1.28724741351560
  H   -1.15712718065316      0.13053902899146     -2.09812542481023
  H   -2.10411072951647      1.01195903971211     -1.02856799753448
