12
Coordinates from ORCA-job run
  C   0.80879636016825     -0.56934375087261      0.31464070977458
  C   -0.40862345831546     -0.06796692988417      0.02677283042842
  H   0.90471012430213     -1.41847060757817      0.98738278362933
  N   1.99637675180895     -0.16036277697341     -0.32007978232427
  H   2.73910057523646      0.03652057052945      0.33602337517306
  H   1.79897587140484      0.65366197406265     -0.88880671573792
  N   -0.51030166680664      1.07826891976103     -0.81981772377624
  H   -1.24421612998251      0.92238472458123     -1.50093654048181
  H   -0.74551419135286      1.90913844994786     -0.28886119676893
  N   -1.63437469987543     -0.69988697590653      0.36897513584602
  H   -1.48369813183039     -1.58125167741698      0.84295990766844
  H   -2.22023140475734     -0.10369192025036      0.94274721656934
