12
Coordinates from ORCA-job run
  C   0.92760580085537     -0.05471371615929     -0.46190155091766
  C   -0.37979519066546      0.06158899768665     -0.15605032431612
  H   1.28359919396383      0.22100353355493     -1.45187478195676
  N   1.87948173795206     -0.66149452117929      0.37847346809353
  H   2.71473129029421     -0.10311323616277      0.48544327528582
  H   1.45311943332992     -0.84007181492371      1.27923943121711
  N   -1.40272253712678      0.32278587450961     -1.10698979915595
  H   -1.92310969768877      1.16325513180551     -0.88182417277003
  H   -1.03320774030267      0.39655608024497     -2.04623706849672
  N   -0.81998074598560     -0.25880128576069      1.16474693511396
  H   -1.65785535199219     -0.82567253811953      1.10577065678988
  H   -1.04286619263391      0.57767749450361      1.69220393111293
