12
Coordinates from ORCA-job run
  C   0.93346495095458     -0.18833054652701     -0.43520114178486
  C   -0.35109298263468      0.19437086781825     -0.28541722217556
  H   1.34609801985913     -0.19877031159468     -1.43889276691550
  N   1.77495880757741     -0.70602118900623      0.58043203728803
  H   1.29105690382617     -0.82151869292875      1.45937722625451
  H   2.60919922235347     -0.15249278803860      0.72167945192263
  N   -0.97717717104094      0.48867823049545      0.95128202829862
  H   -0.32041565196342      0.60567905247593      1.70953371949705
  H   -1.70306186237588     -0.16919118484463      1.20719435306127
  N   -1.16441843262661      0.39371920980655     -1.42798016337586
  H   -1.51174939223367     -0.46488562716569     -1.82810634969690
  H   -1.92686241169555      1.02076297950941     -1.21390117237343
