12
Coordinates from ORCA-job run
  C   0.75344240759966     -0.43814084446167      0.29765743324463
  C   -0.52240312195634     -0.08605853923159      0.02462562757695
  H   0.96392706670298     -1.36319753205373      0.83397039362363
  N   1.81232664569528      0.42528530514567     -0.14442544862658
  H   2.41273694524730     -0.04677295249957     -0.80917211260764
  H   2.39071915695616      0.71733968672388      0.63370605688966
  N   -0.84977775338799      0.98736656974536     -0.80280612511079
  H   -1.57037634950521      1.56536423428205     -0.39146996578954
  H   -0.00882718221358      1.51519151376296     -1.00295550010519
  N   -1.65362036126467     -0.74415135600094      0.52636306653069
  H   -2.31203130656743     -0.95649099641023     -0.21144308928549
  H   -1.41611614730615     -1.57673508900219      1.04594966365968
