12
Coordinates from ORCA-job run
  C   0.89910859553577      0.06887133895543     -0.32774046973393
  C   -0.43481539108416      0.23655479918593     -0.18370197586106
  H   1.39610663995964      0.42385545653428     -1.22915318402932
  N   1.63726937564215     -0.51523585877270      0.75790161001172
  H   2.14266515810870     -1.33823594372948      0.45389763189031
  H   2.31841204469871      0.13914926467003      1.12337985422455
  N   -1.08919899180726      0.01162604839987      1.03130316549763
  H   -1.88800601957426     -0.60180939701664      0.93213674012797
  H   -0.41733962012236     -0.37354147053964      1.68549317624633
  N   -1.24478276569307      0.76333949674058     -1.19676002900261
  H   -2.21660021447057      0.83759701710040     -0.94516747103865
  H   -1.10381881119329      0.34682924847193     -2.10158904833294
