12
Coordinates from ORCA-job run
  C   0.75734827992116     -0.43841832037703      0.28710672117135
  C   -0.51822752245611     -0.02979071594383      0.10774840171677
  H   0.98418063297581     -1.23071749798374      1.00017621590542
  N   1.79485961229973      0.19899443167042     -0.47381489737384
  H   2.31934095098651     -0.47933300271808     -1.01230794244168
  H   2.44926426080995      0.67805585562981      0.13230920156710
  N   -0.85372497700049      1.08634897801608     -0.65800923027908
  H   -0.02904378776866      1.40113007275792     -1.15484807415132
  H   -1.61958815308027      0.88585310207372     -1.28724701658673
  N   -1.64057753276836     -0.66296221462685      0.65827386042666
  H   -2.25288563781104      0.00248102724877      1.11117762750021
  H   -1.39094612610822     -1.40964171574720      1.29043513254515
