12
Coordinates from ORCA-job run
  C   0.80628013312374     -0.44869210276621      0.26455803197944
  C   -0.48964492990980     -0.07204742984787      0.18229162610202
  H   1.07601485819575     -1.34699045868429      0.81757054540995
  N   1.80443148872663      0.39693107293026     -0.33003605658622
  H   2.36071846369198     -0.11453471805539     -1.00394744451105
  H   2.43823615658721      0.75512958151699      0.37410699635391
  N   -1.53653649419201     -0.84613396398235      0.69516719547226
  H   -2.44720319783445     -0.43381853774011      0.57855383232369
  H   -1.50610150928131     -1.81753403787716      0.43601811793401
  N   -0.87510308724757      1.17715055434955     -0.31446409093849
  H   -0.04815537379578      1.64665025697400     -0.66580817828798
  H   -1.58093650806440      1.10288978318258     -1.03601057525155
