12
Coordinates from ORCA-job run
  C   0.79531502401953     -0.57868670660273      0.23671527285620
  C   -0.43033753277094     -0.06444142296265      0.01765532986156
  H   0.91531183706453     -1.54758333449222      0.71160805775700
  N   1.98271053781272      0.14448072796671     -0.01247903926155
  H   2.71467788710460     -0.45573271505013     -0.36783672228917
  H   1.78315666009488      0.87872949711758     -0.68406773169491
  N   -1.65157955142568     -0.77627328331297      0.14811824985325
  H   -1.49400427845517     -1.76777438576901      0.26914417996651
  H   -2.21623917134071     -0.42875532031787      0.91540760886544
  N   -0.54442949823985      1.25552487968834     -0.49361293393576
  H   -1.43314215253832      1.37506477086686     -0.95959279560839
  H   -0.42243976132560      1.96444729286810      0.21794052362983
