12
Coordinates from ORCA-job run
  C   0.76414562785657     -0.28951301879208      0.42487499783091
  C   -0.52119950012319     -0.05990155627335      0.07592577430745
  H   0.99383520607095     -0.91767045139924      1.28536390453495
  N   1.80565072297837      0.29876255174427     -0.36908772824545
  H   2.41430241019888      0.87506305329523      0.19889652049947
  H   2.37907422097022     -0.41356387207992     -0.80366724967207
  N   -1.63204968531375     -0.43585343957384      0.84300891790369
  H   -1.37512042326205     -0.98458043087590      1.65067521934442
  H   -2.32041373880176     -0.92008059691961      0.28223026415070
  N   -0.87950054649894      0.58507760412952     -1.10706874807512
  H   -0.04675407709826      0.97113145215045     -1.53526414812765
  H   -1.58397021697702      1.29212870459446     -0.94488772445130
