12
Coordinates from ORCA-job run
  C   0.80503450319411     -0.20241846983298     -0.39854794307986
  C   -0.47288607643434      0.17150279026454     -0.16732148334145
  H   1.20895709193039     -0.17793616325373     -1.41040654337758
  N   1.60996825476158     -0.61707895550995      0.71604774682340
  H   1.97395290218279     -1.55108141883889      0.57316625487124
  H   2.40124334876930      0.00162470058166      0.84342896719491
  N   -1.41444202804993      0.44545140171408     -1.16890924828646
  H   -1.88260988352332      1.32622075449514     -1.00150781651091
  H   -1.00968039848005      0.42409567003984     -2.09372271025829
  N   -0.99397758000864      0.32789520143599      1.11629043118315
  H   -1.89861011776090     -0.11499954616314      1.20554536786637
  H   -0.32695001658100     -0.03427596493255      1.78693697691549
