12
Coordinates from ORCA-job run
  C   0.72511529294522     -0.55054774137767      0.13753405624438
  C   -0.51469178990211     -0.01330993598649      0.12535163078293
  H   0.90686462875050     -1.49902283491811      0.64256358678086
  N   1.78808699675372      0.16366353803958     -0.51237750919067
  H   2.22988416063680     -0.40916398528051     -1.22091740516819
  H   2.50399591368122      0.43278070266967      0.15113989776859
  N   -0.77757837749723      1.27172675969623     -0.34740159745043
  H   -1.58061035028754      1.28286944723783     -0.96188134190473
  H   0.05309830165850      1.62926387101979     -0.80356184333214
  N   -1.66886754541233     -0.66760048438689      0.57756376043059
  H   -1.46293290051225     -1.55863898421378      1.00568846158088
  H   -2.20136433081449     -0.08102035249965      1.20629830345793
