12
Coordinates from ORCA-job run
  C   0.83760412362119     -0.15079908053881     -0.35159547020381
  C   -0.46745052230620      0.16138048959227     -0.19128354109789
  H   1.29582308158654     -0.10128611576052     -1.33916324150826
  N   1.59006979093407     -0.56385300771322      0.79935248519257
  H   2.40105411649356      0.02695939667113      0.93496380022035
  H   1.92029179499640     -1.51542759109468      0.69647082638098
  N   -1.27750198905059      0.72515436250126     -1.18658809669328
  H   -0.80585513679081      0.78639417981018     -2.07734078329667
  H   -2.15124173553408      0.22362881026241     -1.27630452357013
  N   -1.15399646044801     -0.04985508502265      1.00373326387604
  H   -0.48758437363541     -0.30294296457997      1.72336707344638
  H   -1.70121268986666      0.75964660587260      1.26438820725372
