12
Coordinates from ORCA-job run
  C   0.78367467328305     -0.69308365056067     -0.01411892205848
  C   -0.45885251315479     -0.17238168036399      0.04802105820195
  H   0.90134126172190     -1.75236312067248      0.19024934506167
  N   1.98583008690231      0.03502555975526     -0.19431702081620
  H   1.83075854763830      1.03249977950325     -0.22465474690435
  H   2.50276324244928     -0.25373532530701     -1.01386702472700
  N   -1.52811366131835     -0.95846824585322      0.54171343475449
  H   -2.41193786928297     -0.61799008658731      0.19132332669241
  H   -1.54535861825964     -1.02970405150540      1.54772127694689
  N   -0.82907138068411      1.11690711764160     -0.40939845424683
  H   -0.12810274274729      1.54473096788538     -0.99723040213487
  H   -1.10393102654769      1.74756273606457      0.33355812923034
