12
Coordinates from ORCA-job run
  C   0.77253124509074     -0.59125064309908      0.32195100978901
  C   -0.45836800764275     -0.06811162799624      0.12668118004636
  H   0.88136002228915     -1.45155802116939      0.97762304948577
  N   1.98443329216427     -0.05367999710291     -0.21579322050881
  H   2.03171836309355      0.95285110445837     -0.13509695084268
  H   2.15836381923899     -0.32371233768053     -1.17462893963145
  N   -0.76771235207529      0.91432876153271     -0.82161952658933
  H   -1.29905969044620      1.67485678347912     -0.42027424195983
  H   0.04941283171734      1.24803734071545     -1.30940624514033
  N   -1.59527760819631     -0.43612991790135      0.86504212507969
  H   -2.36111222676058     -0.69556970183026      0.25691861831916
  H   -1.39628968847291     -1.17106174340588      1.52860314195244
