12
Coordinates from ORCA-job run
  C   0.84215482749981     -0.12056622950996     -0.35133416830907
  C   -0.47464068908221      0.13859202152594     -0.19211191114587
  H   1.30525823547146     -0.02681547044581     -1.33340351119876
  N   1.60870715971644     -0.50889415755467      0.79901268838695
  H   2.05608579269274     -1.40525603583721      0.65214575496468
  H   2.33678211410165      0.16631924143076      0.99657037629945
  N   -1.37139244057224      0.37041276831674     -1.24403516340884
  H   -1.92147846741019      1.20346760303717     -1.08176614432434
  H   -0.90906654444854      0.41388741984550     -2.14067267000050
  N   -1.08585547449904      0.20566883881273      1.05915271343580
  H   -1.95340507966726     -0.31349306437895      1.07613945657772
  H   -0.43314943380263     -0.12332293524223      1.76030257872277
