12
Coordinates from ORCA-job run
  C   0.76538164672057     -0.51355336406961      0.18797007231742
  C   -0.52029195800359     -0.09628625967047      0.07065573120466
  H   1.02377724993435     -1.39979479134940      0.76531644540706
  N   1.80463355997210      0.19741422359801     -0.52189366453825
  H   2.33593020916922      0.77362945647517      0.12149920593023
  H   2.44417042840002     -0.46500861239693     -0.93948751051027
  N   -0.91949002894660      0.86893503184153     -0.84891736591975
  H   -0.12687482834435      1.14230098662079     -1.41428423239494
  H   -1.38464173729792      1.67015331256529     -0.44897711078259
  N   -1.55545316331823     -0.59671052016115      0.82882114600643
  H   -2.49695564939336     -0.55047838417871      0.48703408542928
  H   -1.37018572889221     -1.02960107927452      1.71226319785071
