12
Coordinates from ORCA-job run
  C   0.85822385552974     -0.26577218202499     -0.43486416257810
  C   -0.43469667031132      0.07457294114060     -0.27057302870418
  H   1.30157378418280     -0.23245458881724     -1.42507235877032
  N   1.62507412270043     -0.75450766099786      0.67029070545893
  H   1.91190081207288     -0.00567966807007      1.28878030358172
  H   2.45055045221196     -1.24249384133383      0.35840551172668
  N   -1.16360092871893      0.68134388493505     -1.32230106340542
  H   -1.01410139311499      1.67644513246495     -1.39521150980758
  H   -2.14952329944565      0.48036197961082     -1.22294579324245
  N   -1.15910172582574     -0.22447642255386      0.89055458067854
  H   -1.61235260792833      0.57223436357606      1.31408376697433
  H   -0.61394640135283     -0.75957393792962      1.55085304808784
