12
Coordinates from ORCA-job run
  C   0.90246677943984     -0.25456202431093     -0.46017291236429
  C   -0.40431518561343      0.02488402823737     -0.28018465516122
  H   1.26265381636683     -0.37242501305744     -1.47678813951814
  N   1.89615504611471     -0.28803422183748      0.54792362289904
  H   2.37967029464430     -1.17431325382484      0.59661041292682
  H   1.53124390308971     -0.04779512028172      1.45812118289073
  N   -1.08687819620065     -0.01727312503148      0.96175299783540
  H   -0.57054944169938     -0.49951516643122      1.68330920478671
  H   -1.38974600461780      0.89190177711923      1.28849898698487
  N   -1.21647692897128      0.33089608500088     -1.40039917614672
  H   -1.11870419251561      1.28384495941167     -1.71734354042529
  H   -2.18451989003722      0.12339107500596     -1.19932798470792
