16

C	-0.54425	-0.020713	-1.407747
C	0.0	0.0	0.0
Cl	0.346309	-1.204813	-2.421459
H	1.094479	0.0	0.0
C	-1.966507	-0.353845	-1.475776
N	-3.090816	-0.696541	-1.433235
N	-0.35766	1.340086	-2.094953
O	0.611232	1.995369	-1.748027
O	-1.169253	1.621196	-2.973224
C	-0.346098	-1.280372	0.76532
H	-1.418019	-1.408162	0.934332
H	0.050205	-2.141339	0.223895
H	0.173729	-1.235404	1.724289
C	-0.512886	1.163079	0.698418
N	-0.922883	2.081658	1.309559
H	2.552354	0.0	0.0
