16

C	-0.540574	-0.025658	-1.40968
C	0.0	0.0	0.0
Cl	0.355858	-1.217523	-2.417572
H	1.094549	0.0	0.0
C	-1.961133	-0.357561	-1.482349
N	-3.088371	-0.694005	-1.438136
N	-0.345641	1.332309	-2.1009
O	0.60027	2.007282	-1.726022
O	-1.122609	1.587451	-3.01544
C	-0.34012	-1.283457	0.762142
H	0.177726	-1.239068	1.723037
H	0.061686	-2.141599	0.219509
H	-1.411823	-1.418152	0.928179
C	-0.519751	1.157234	0.700342
N	-0.929475	2.070941	1.318315
H	2.550879	0.0	0.0
