16

C	-0.404045	0.102409	-1.454431
C	0.0	0.0	0.0
Cl	-0.062324	1.709853	-2.113183
H	1.09726	0.0	0.0
C	0.278147	-0.901614	-2.274148
N	0.764038	-1.736013	-2.944219
N	-1.923228	-0.159555	-1.576462
O	-2.673339	0.748998	-1.250142
O	-2.257669	-1.302749	-1.878663
C	-0.37463	-1.344597	0.620078
H	0.10416	-1.395902	1.600932
H	0.036168	-2.155963	0.013697
H	-1.453319	-1.486933	0.735997
C	-0.493537	1.113675	0.78169
N	-0.817249	2.011011	1.471497
H	2.53697	0.0	0.0
