16

C	-0.556811	-0.021896	-1.407659
C	0.0	0.0	0.0
Cl	0.308654	-1.227575	-2.418574
H	1.094498	0.0	0.0
C	-1.983525	-0.335633	-1.456103
N	-3.115725	-0.655505	-1.411544
N	-0.349676	1.335528	-2.097332
O	-1.223748	1.69711	-2.882164
O	0.692775	1.915927	-1.842709
C	-0.350127	-1.26852	0.777805
H	-1.424708	-1.399196	0.934929
H	0.057113	-2.136448	0.253189
H	0.156474	-1.212041	1.744108
C	-0.490768	1.181883	0.683371
N	-0.866384	2.131719	1.269613
H	2.553397	0.0	0.0
