16

C	-0.401075	-0.016867	-1.459329
C	0.0	0.0	0.0
Cl	0.162763	1.438617	-2.29194
H	1.096417	0.0	0.0
C	0.121297	-1.194957	-2.152237
N	0.515064	-2.142865	-2.724427
N	-1.940582	-0.087125	-1.565272
O	-2.568973	0.962226	-1.58773
O	-2.415071	-1.221283	-1.508613
C	-0.369856	-1.268865	0.762631
H	-1.44552	-1.411157	0.884555
H	0.056306	-2.135981	0.25386
H	0.103168	-1.204085	1.745676
C	-0.50075	1.186806	0.660382
N	-0.89489	2.11968	1.260173
H	2.529585	0.0	0.0
