16

C	-0.515524	-0.016044	-1.419909
C	0.0	0.0	0.0
Cl	0.333291	-1.264243	-2.391191
H	1.094532	0.0	0.0
C	-1.951922	-0.267422	-1.519588
N	-3.103128	-0.510922	-1.511231
N	-0.239535	1.321473	-2.131103
O	0.640996	2.025263	-1.661572
O	-0.895702	1.531417	-3.147438
C	-0.362753	-1.280834	0.755662
H	0.083786	-2.137745	0.248592
H	0.093302	-1.21767	1.746084
H	-1.441085	-1.42907	0.861959
C	-0.528442	1.159984	0.692429
N	-0.97087	2.085121	1.270513
H	2.568218	0.0	0.0
