14

C	-0.412336	-0.046079	-1.470632
C	0.0	0.0	0.0
Br	-2.361061	-0.4143	-1.61637
H	1.095921	0.0	0.0
H	-0.318923	-0.933484	0.473013
C	-0.187246	1.238083	-2.127626
N	0.004335	2.269543	-2.656194
C	0.357752	-1.153244	-2.176191
H	0.101035	-1.188244	-3.235116
H	0.112858	-2.110132	-1.712185
H	1.425643	-0.963584	-2.045004
C	-0.552172	1.128816	0.728965
N	-1.010937	2.031483	1.321797
Br	3.467162	0.0	0.0
