14

C	-0.564933	-0.010963	-1.428301
C	0.0	0.0	0.0
Br	0.14605	1.524606	-2.423824
H	1.092677	0.0	0.0
H	-0.316902	-0.927914	0.492358
C	-0.127388	-1.225337	-2.115838
N	0.12061	-2.235617	-2.663755
C	-2.090556	0.062674	-1.46261
H	-2.452588	0.028386	-2.490957
H	-2.50386	-0.786442	-0.909488
H	-2.424827	0.990162	-0.995865
C	-0.522061	1.127603	0.762486
N	-0.986755	2.015948	1.373863
Br	3.455595	0.0	0.0
