14

C	-0.56531	-0.006509	-1.427553
C	0.0	0.0	0.0
Br	0.145174	1.532896	-2.420349
H	1.092701	0.0	0.0
H	-0.31821	-0.928198	0.49018
C	-0.113128	-1.217577	-2.111282
N	0.181236	-2.232091	-2.625456
C	-2.090415	0.070194	-1.459245
H	-2.421474	0.997386	-0.989736
H	-2.455948	0.039716	-2.486465
H	-2.504913	-0.778412	-0.906347
C	-0.514202	1.130489	0.76523
N	-0.968411	2.019399	1.383842
Br	3.462788	0.0	0.0
