14

C	-0.413342	-0.060797	-1.472179
C	0.0	0.0	0.0
Br	-2.352271	-0.480929	-1.606828
H	1.095824	0.0	0.0
H	-0.313656	-0.930494	0.483041
C	-0.240738	1.229033	-2.135438
N	-0.100011	2.266075	-2.670489
C	0.383695	-1.14821	-2.182875
H	0.11691	-1.199705	-3.23946
H	1.448151	-0.91841	-2.063935
H	0.180394	-2.112712	-1.712938
C	-0.558818	1.131057	0.723743
N	-1.027717	2.032389	1.312478
Br	3.463313	0.0	0.0
