14

C	-0.389607	-0.054695	-1.48203
C	0.0	0.0	0.0
Br	-2.359295	-0.222581	-1.682438
H	1.095886	0.0	0.0
H	-0.362207	0.916164	0.47151
C	-0.045034	1.214499	-2.120479
N	0.205531	2.239496	-2.638296
C	0.292141	-1.222819	-2.181075
H	-0.038672	-2.160939	-1.731413
H	1.371398	-1.114015	-2.028969
H	0.057413	-1.23044	-3.246303
C	-0.483681	-1.162718	0.731919
N	-0.875139	-2.10092	1.319705
Br	3.446196	0.0	0.0
