14

C	-0.116142	-0.071089	-1.5178
C	0.0	0.0	0.0
Cl	-0.28916	1.646109	-2.232753
H	1.094364	0.0	0.0
H	-0.329814	-0.957451	0.408045
N	0.971085	-0.785467	-1.984748
H	1.071511	-0.772097	-2.988131
H	1.827648	-0.54361	-1.429075
N	-1.411363	-0.720133	-2.026063
O	-1.410155	-1.120176	-3.186142
O	-2.353464	-0.798884	-1.244069
C	-0.656216	1.093027	0.674025
N	-1.15991	1.979269	1.257428
F	2.639999	0.0	0.0
