14

C	-0.167415	0.213917	-1.514362
C	0.0	0.0	0.0
Cl	-1.629946	1.159774	-1.927807
H	1.093135	0.0	0.0
H	-0.311393	0.918658	0.504012
N	0.992079	0.813936	-2.093032
H	0.892252	1.819283	-2.066111
H	1.803427	0.542398	-1.492662
N	-0.318731	-1.18808	-2.150995
O	0.732298	-1.809827	-2.23285
O	-1.430705	-1.604533	-2.455509
C	-0.670082	-1.141297	0.574874
N	-1.212558	-2.062383	1.064207
F	2.611753	0.0	0.0
