14

C	-0.096906	0.009411	-1.533333
C	0.0	0.0	0.0
Cl	0.047212	1.712049	-2.076487
H	1.093248	0.0	0.0
H	-0.465308	0.86245	0.472479
N	0.920032	-0.759551	-2.155673
H	1.766008	-0.580312	-1.580855
H	0.670647	-1.739459	-2.08267
N	-1.48229	-0.471695	-1.982109
O	-2.441429	0.222646	-1.667649
O	-1.545583	-1.561479	-2.545047
C	-0.492326	-1.249383	0.543192
N	-0.865856	-2.275237	0.980583
F	2.59629	0.0	0.0
