16

C	0.0	0.0	0.0
C	-0.500178	-0.168877	-1.44261
F	1.378061	0.0	0.0
H	-1.588135	-0.323171	-1.366121
N	-0.490568	1.219634	0.545173
H	-1.51403	1.184467	0.455355
H	-0.278291	1.248026	1.536941
C	-0.342766	-1.212271	0.803843
N	-0.547357	-2.168748	1.454668
C	0.114713	-1.355342	-2.0373
N	0.622051	-2.280262	-2.554483
C	-0.206515	1.070551	-2.2924
H	-0.767426	1.919416	-1.9052
H	-0.510172	0.885415	-3.324943
H	0.85938	1.307329	-2.270674
Br	-3.666607	0.0	0.0
