16

C	0.0	0.0	0.0
C	-0.498754	-0.145007	-1.444782
F	1.377915	0.0	0.0
H	-1.587607	-0.288609	-1.370422
N	-0.489249	1.209555	0.56765
H	-1.513343	1.179907	0.484931
H	-0.267945	1.222861	1.558222
C	-0.341252	-1.226906	0.784031
N	-0.538791	-2.191547	1.425059
C	0.101905	-1.330886	-2.054363
N	0.59951	-2.251601	-2.587695
C	-0.186033	1.100566	-2.277689
H	-0.504874	0.940796	-3.309927
H	-0.721053	1.956025	-1.869894
H	0.884939	1.311941	-2.264845
Br	-3.666452	0.0	0.0
