16

C	0.0	0.0	0.0
C	-0.501147	-0.15778	-1.443715
F	1.378033	0.0	0.0
H	-1.589076	-0.311035	-1.369239
N	-0.486929	1.216012	0.556841
H	-0.268151	1.237768	1.547638
H	-1.510763	1.18507	0.473326
C	-0.34403	-1.218384	0.79468
N	-0.557787	-2.176347	1.441102
C	0.113287	-1.339381	-2.04722
N	0.620798	-2.261205	-2.56939
C	-0.204069	1.087157	-2.283517
H	-0.752626	1.938401	-1.883381
H	-0.516889	0.916246	-3.315935
H	0.864343	1.313739	-2.268559
Br	-3.667595	0.0	0.0
