16

C	0.0	0.0	0.0
C	-0.218829	-0.179268	-1.534558
F	1.409606	0.0	0.0
H	0.513216	0.52402	-1.935429
N	-0.497729	1.174592	0.515835
H	-0.694084	1.281079	1.486583
H	-0.486252	2.003653	-0.042835
C	-0.394739	-1.164342	0.811993
N	-0.533796	-2.136216	1.452845
C	-1.483826	0.19822	-2.157542
N	-2.216397	0.474443	-3.036562
C	0.196234	-1.583762	-1.989566
H	0.234044	-1.610162	-3.081129
H	-0.518832	-2.321907	-1.64387
H	1.190265	-1.814129	-1.599864
Br	-3.801307	0.0	0.0
