16

C	0.0	0.0	0.0
C	-0.503197	-0.157927	-1.441551
F	1.377815	0.0	0.0
H	-1.586831	-0.333704	-1.360764
N	-0.492328	1.212102	0.561622
H	-0.273756	1.227585	1.552006
H	-1.516126	1.178165	0.476653
C	-0.337754	-1.22066	0.792809
N	-0.53249	-2.183517	1.436802
C	0.131013	-1.324537	-2.054382
N	0.657425	-2.227853	-2.590043
C	-0.240515	1.097546	-2.276442
H	-0.538941	0.917493	-3.311441
H	0.818659	1.362542	-2.251025
H	-0.823561	1.92725	-1.879899
Br	-3.667524	0.0	0.0
