16

C	0.0	0.0	0.0
C	-0.198371	0.083532	-1.553338
F	1.387255	0.0	0.0
H	0.572771	-0.625104	-1.894217
H	-0.373446	-0.929647	0.414412
C	-0.48657	1.125953	0.795058
N	-0.652236	2.004651	1.561575
C	0.237649	1.47198	-2.030411
H	-0.465519	2.231668	-1.677177
H	0.250452	1.503816	-3.125302
H	1.239006	1.727109	-1.676009
C	-1.483227	-0.312915	-2.258885
H	-2.263805	0.413329	-2.072109
H	-1.247173	-0.387875	-3.329854
H	-1.873668	-1.263866	-1.900349
F	-2.38824	0.0	0.0
