12
Coordinates from ORCA-job run
  C   -0.30887755468476      0.37097369271489      0.43579315409513
  C   0.88180012987907     -0.59908397680526      0.47405098745684
  Br  -0.63312990374158      0.97476932681602      2.27260931068993
  H   1.76599528465282     -0.09471576628665      0.86979766692184
  H   0.61541538565836     -1.42476884801088      1.13810048389169
  C   0.03296384785870      1.57038934251861     -0.34664891006615
  N   0.26052914145830      2.51276096973665     -1.01281684816727
  N   -1.48361402152735     -0.32653844710332     -0.01853088383345
  H   -2.28853005476648      0.28958104758719     -0.01650413706208
  H   -1.33764051142102     -0.66532945765686     -0.96565407632811
  C   1.15577179313818     -1.11005906226632     -0.86829774569447
  N   1.33831646349577     -1.49597882124406     -1.96189900190390
