12
Coordinates from ORCA-job run
  C   -0.24465856541507      0.47167546583408      0.12900336053436
  C   0.97698584460938     -0.29731048302328     -0.39997596361889
  Br  0.16851019557081      0.97889225991450      2.04693102061181
  H   0.83426038860203     -0.44388590632042     -1.47524139941905
  H   1.88484740922906      0.28633072781103     -0.23883821274986
  C   -0.36145973796761      1.74346007083377     -0.58415740611255
  N   -0.44358384198996      2.74876851154227     -1.18668102357007
  N   -1.42285105650863     -0.28802412785951     -0.02790880035499
  H   -2.25175992909900      0.22027364917237      0.25232470968765
  H   -1.37284192573710     -1.16886097568052      0.47136714812262
  C   1.09222202767870     -1.59876624280500      0.25041202743353
  N   1.14132919102740     -2.65255294941929      0.76476453943543
