12
Coordinates from ORCA-job run
  C   -0.25059723056171      0.52263456664513      0.25154147946512
  C   0.93834616669332     -0.26152394529854     -0.35969709079796
  Br  0.20942076317776      0.92703378915270      2.12061707145468
  H   0.75389785359648     -0.37240301209560     -1.43436188599824
  H   1.87201437810356      0.29117729916183     -0.23021011675419
  C   -0.36407951940400      1.79410070972900     -0.46765545449805
  N   -0.42981875524358      2.78098355219740     -1.10206166864999
  N   -1.52245490032739     -0.14161816620349      0.24265762199276
  H   -1.46550788908889     -1.03953040032188      0.71023450954753
  H   -1.86185748179342     -0.26187277911044     -0.70526010477248
  C   1.04289965766287     -1.58547411327083      0.24385462373124
  N   1.07573695718499     -2.65350750058529      0.72934101527957
