12
Coordinates from ORCA-job run
  C   -0.34718190982718      0.36959526469077      0.30035141574829
  C   0.72405618352356     -0.71948580313521      0.45472358029678
  Br  -0.97553809283116      0.75133303059479      2.19815132927083
  H   1.49687359675490     -0.37967510658956      1.14692091322501
  H   0.25865825912517     -1.60814354116174      0.89174670945582
  C   0.23628102518868      1.62642558912850     -0.16625652811516
  N   0.71014235101335      2.62922240771451     -0.55463388169558
  N   -1.37045775373526     -0.04710720780433     -0.56994054153808
  H   -1.81636191363368     -0.90181302057835     -0.26101426278421
  H   -2.06299948806176      0.66961412145614     -0.74325996830073
  C   1.32305610340991     -1.05595854394644     -0.83625042047776
  N   1.82347163907347     -1.33400719036910     -1.86053834508521
