12
Coordinates from ORCA-job run
  C   -0.33240731329055      0.34929840160411      0.43994538271152
  C   0.87892983010780     -0.59483575349566      0.47855225624060
  Br  -0.72770898579359      0.87105807183360      2.28868725415643
  H   1.73849816813316     -0.08637268781646      0.92052479667414
  H   0.61227999581924     -1.45110133821986      1.10255512130408
  C   0.00827688048220      1.58681405649984     -0.28145051955464
  N   0.25353461907467      2.55020360040224     -0.91002624505924
  N   -1.47537860563831     -0.35432091999938     -0.07927572253454
  H   -1.28917814251304     -0.66024799939506     -1.03034282288844
  H   -2.29299974680454      0.24462032984092     -0.08586853234788
  C   1.20547686496129     -1.04953340113306     -0.87235222310617
  N   1.42167643546168     -1.40558236012123     -1.96994874559586
