12
Coordinates from ORCA-job run
  C   -0.35591625087732      0.31502811615254      0.16333292782823
  C   0.50000459181258     -0.91920197782559     -0.15446247105469
  Br  0.02958176572386      0.83237562292806      2.07380174659759
  H   0.27884293679168     -1.20690111840762     -1.18692583761627
  H   0.19057889575312     -1.73669418841628      0.50355631876485
  C   0.05214269010933      1.46100932584599     -0.64836136482311
  N   0.36137262605306      2.36972949494209     -1.32601566923837
  N   -1.71943104863928      0.01212757438096     -0.08097376145002
  H   -2.31588456974386      0.82044255212875      0.04663738439319
  H   -2.04122587850700     -0.73853014895758      0.51892451261457
  C   1.93183966122132     -0.68862741491280     -0.00294652191045
  N   3.08909458030250     -0.52075783785852      0.09343273589448
