12
Coordinates from ORCA-job run
  C   -0.35879296484558      0.36120858388846      0.29801646426357
  C   0.71456318572033     -0.72479708919694      0.46042005746925
  Br  -1.04773647669368      0.69542309851216      2.18353870738793
  H   1.46371665442104     -0.39605601529547      1.18322121214892
  H   0.24199113281488     -1.62586886001103      0.86299093710350
  C   0.23116066477909      1.63141320783186     -0.12196356536281
  N   0.71243009302613      2.64467234145862     -0.47217051881505
  N   -1.35200095961976     -0.04149412984631     -0.61283966529955
  H   -1.80153681114099     -0.90566722705334     -0.33749864854913
  H   -2.04358710900122      0.67481411525143     -0.79138540083895
  C   1.35376478082640     -1.02922600711903     -0.81906919703986
  N   1.88502780971338     -1.28242201842040     -1.83426038246781
