12
Coordinates from ORCA-job run
  C   -0.33004283244461      0.40532963922624      0.28283038206344
  C   0.44660265779910     -0.87691298705395     -0.09296907004457
  Br  0.23077138860472      0.92987133550926      2.09120733603587
  H   0.09649318466955     -1.20000007119399     -1.07984338646330
  H   0.19053317633469     -1.65589620347350      0.63116854132777
  C   0.02773767467863      1.48626317749752     -0.63849830587032
  N   0.30053431134230      2.31448476321041     -1.42629405777584
  N   -1.76047339426953      0.25489046641690      0.29154843445973
  H   -2.04093804100278     -0.51025436742933      0.89351090975979
  H   -2.11475481099091      0.10989221780588     -0.64732233697241
  C   1.89464582507533     -0.69924737888067     -0.13108994749829
  N   3.05889086020352     -0.55842059163476     -0.17424849902188
