12
Coordinates from ORCA-job run
  C   -0.29476049454566      0.33875806877968      0.47290470002397
  C   0.83144937918922     -0.70435058005148      0.41300083040823
  Br  -0.62014790537056      0.74245751831859      2.36405631543958
  H   1.73599110336442     -0.30865347442596      0.87978813675854
  H   0.49873626634828     -1.58351701344387      0.96976217512807
  C   0.13907736917327      1.59673122218260     -0.15679544076733
  N   0.45268208668807      2.58350573422567     -0.71510096880989
  N   -1.50085873084310     -0.22255403489288     -0.07753999383257
  H   -1.35513193617536     -0.45957325442597     -1.05515004439229
  H   -2.26494760848481      0.44081423850894     -0.01606777130001
  C   1.10292280464955     -1.07154022441905     -0.97588468278662
  N   1.27398766600668     -1.35207820035627     -2.10297325586969
