12
Coordinates from ORCA-job run
  C   -0.30201987342516      0.48078620648178      0.41080351278485
  C   0.79892909811160     -0.60710330539607      0.44297626140767
  Br  -0.53823316942107      1.06362859832897      2.27701247663946
  H   1.73568189680465     -0.19726542370302      0.82923370274360
  H   0.47664826786040     -1.40803579911221      1.11456183912022
  C   0.17449867206597      1.63097325168175     -0.36161258339273
  N   0.58415881761154      2.52095806176118     -1.01025860291068
  N   -1.57911630508684      0.07054297411852     -0.09621346082681
  H   -1.53163849256220     -0.10647556028502     -1.09392564495061
  H   -1.91602325512265     -0.75327676976917      0.38788772049055
  C   0.99471258836074     -1.14278974001582     -0.90275902878286
  N   1.10240175480303     -1.55194249409089     -1.99770619232266
