12
Coordinates from ORCA-job run
  C   -0.29552099743770      0.35523360488157      0.46106214628550
  C   0.82035923783434     -0.70060958409739      0.43961228469463
  Br  -0.63323936113493      0.81389823451247      2.33724974725138
  H   0.47464595191958     -1.56019447473593      1.01883487784674
  H   1.72574173087992     -0.30081399803594      0.90146291745926
  C   0.15848214352457      1.59040483523984     -0.19868067989122
  N   0.49161382839636      2.55671303355161     -0.78091193415997
  N   -1.50251923862254     -0.20835335983656     -0.08458883392276
  H   -2.26003235049498      0.46415188267417     -0.04799655804859
  H   -1.35100833329485     -0.47353951188468     -1.05401574938942
  C   1.09727009211741     -1.11069783654483     -0.93636373462170
  N   1.27320729631282     -1.42519282572433     -2.05366448350384
