12
Coordinates from ORCA-job run
  C   -0.27826000897700      0.36339789513178      0.46492022224366
  C   0.88218782097161     -0.64175744520426      0.40964954091614
  Br  -0.49993061265399      0.90127162393680      2.33741139954099
  H   0.61885200231292     -1.48741957680326      1.04941744080962
  H   1.79754911285551     -0.18105788298533      0.78736988142650
  C   0.06537558501598      1.58270067844318     -0.28494829726134
  N   0.30255090170844      2.53317929679390     -0.93627570183309
  N   -1.49340322447272     -0.28021864278222      0.03869998636976
  H   -2.27718843259749      0.35989809141786      0.09706354932011
  H   -1.39910621912721     -0.58939809067552     -0.92483778610795
  C   1.08265121477745     -1.10295323264277     -0.96338180266200
  N   1.19872186018651     -1.45864271463015     -2.07608843276240
