12
Coordinates from ORCA-job run
  C   -0.31930331330385      0.47657356050151      0.40219500696504
  C   0.74751180041634     -0.64237009133264      0.48205918083080
  Br  -0.68390175740575      1.00705473392833      2.26343226964468
  H   1.66373741170974     -0.26988278670564      0.94728566109123
  H   0.35597981262432     -1.45195585133123      1.10473375564149
  C   0.24420545732429      1.63706680466242     -0.29219660261652
  N   0.72408464019350      2.53622954714005     -0.87700517118630
  N   -1.56362278058175      0.11885001860237     -0.21444844003010
  H   -1.44341899834785     -0.02725422071838     -1.21102410238525
  H   -1.95744842980128     -0.71074989740592      0.21349071096104
  C   1.02748944863108     -1.14668686763091     -0.86090795398286
  N   1.20468670854121     -1.52887494970995     -1.95661431493326
