12
Coordinates from ORCA-job run
  C   -0.31257594614864      0.28555200755835      0.31441448034843
  C   0.50896529339486     -0.93998585332382     -0.10700022355312
  Br  0.21081331794348      0.81646938386158      2.12211671695461
  H   0.30410371815583     -1.73559921898341      0.61296897661729
  H   0.15376906451563     -1.27002462734690     -1.09030320985141
  C   -0.02813544591739      1.42715572222841     -0.56915080713905
  N   0.12666962931998      2.31616711680517     -1.32378760146118
  N   -1.70487373733307     -0.10060451941610      0.35289274482886
  H   -2.27164986363082      0.65786519298187      0.71576154397081
  H   -2.02289519355105     -0.31164735455629     -0.58885212762804
  C   1.94124597607456     -0.67412632690420     -0.18376708490856
  N   3.09456318717663     -0.47022152290467     -0.25529340817864
