12
Coordinates from ORCA-job run
  C   -0.33553066907892      0.29088028644797      0.28446790246487
  C   0.54351647176712     -0.92479404134300     -0.03769704326764
  Br  0.09122726051838      0.93199329066231      2.08181040864349
  H   0.32879297726899     -1.69161162644551      0.71022593552103
  H   0.24681448646107     -1.31284519284611     -1.01922416192795
  C   -0.05098630616035      1.39489683188858     -0.64553903399790
  N   0.10870960593988      2.24729187307283     -1.44028838234808
  N   -1.71447087775315     -0.14177195684434      0.28567804406155
  H   -2.32173760616811      0.61380424777133      0.58302758835119
  H   -1.98429432408001     -0.41433266173777     -0.65512805888967
  C   1.96904035318825     -0.61564711298016     -0.05986551715668
  N   3.11791862809685     -0.37886393764613     -0.08546768145420
