12
Coordinates from ORCA-job run
  C   -0.31655025565664      0.49540398028661      0.38138789536430
  C   0.78882151834500     -0.58336314046325      0.48750047126204
  Br  -0.60405621157975      1.15498405555617      2.21411095629985
  H   0.45351179487544     -1.35734028893050      1.18378346919616
  H   1.71299441096382     -0.15145247094761      0.87991513962197
  C   0.17503842210030      1.61482857991069     -0.42597096747112
  N   0.60406331487817      2.48079316577344     -1.09489290733175
  N   -1.57845795178596      0.05610473859002     -0.14003158870407
  H   -1.92469703337154     -0.74567245551301      0.37366612296953
  H   -1.50220023671440     -0.16931202527909     -1.12628071518364
  C   1.02387284674731     -1.17280001957613     -0.82903029384766
  N   1.16865938119825     -1.62117411940733     -1.90415758217561
