12
Coordinates from ORCA-job run
  C   -0.19865385267964      0.50638523825420      0.04306287235757
  C   0.89343837702553     -0.45951364723793     -0.44431874624204
  Br  0.51799357973690      1.40444332179318      1.71297033249850
  H   1.84207821236791      0.06967942453070     -0.54774830479609
  H   0.58728377829670     -0.83640503914503     -1.42532656253266
  C   -0.36096390114280      1.58725431032217     -0.92901658385584
  N   -0.49039589781988      2.43456433112746     -1.73281088741749
  N   -1.42170659161141     -0.17117770991688      0.22988098072201
  H   -2.17495841952357      0.45334557760584      0.48858975812233
  H   -1.34009813537147     -0.91573180517093      0.91333318955964
  C   1.03904268877263     -1.58263216065209      0.47633911175892
  N   1.10694016194909     -2.49121184151071      1.21604483982515
