12
Coordinates from ORCA-job run
  C   -0.20638088009314      0.57385933297905      0.16498299033639
  C   0.89266662474425     -0.37663172630773     -0.37457873406188
  Br  0.43044552649516      1.29725149265035      1.87945964691546
  H   1.85510991870831      0.13794832935960     -0.42772431177646
  H   0.61048217669055     -0.67813860066637     -1.38975421720678
  C   -0.33184516026987      1.69108794916521     -0.77468588162770
  N   -0.41531820805786      2.54248613628190     -1.58017212797408
  N   -1.49952883778734     -0.00826310257776      0.38323278479011
  H   -1.43845007374057     -0.80293842330310      1.00994517829995
  H   -1.92484133300617     -0.28624037363336     -0.49425558044121
  C   0.99691764666975     -1.56627401238217      0.46311869105914
  N   1.03074259964692     -2.52414700156561      1.14043156168707
