12
Coordinates from ORCA-job run
  C   -0.33377859087443      0.27312157559537      0.30334423321499
  C   0.52117521354119     -0.93337867596936     -0.10636100873476
  Br  0.07068728579271      0.74466461853743      2.15736456762481
  H   0.27638933543790     -1.75433113433514      0.57146661969400
  H   0.23133082260863     -1.23085756517245     -1.12098819141027
  C   -0.00204779581212      1.44533720595420     -0.52172187046422
  N   0.19391875672922      2.35921148936076     -1.23597791807873
  N   -1.72309247658239     -0.12083267496227      0.24046495735055
  H   -1.98036548904868     -0.29886612202660     -0.72633324090179
  H   -2.31656832747727      0.62128032861121      0.59426283345473
  C   1.95361869642019     -0.65847716247472     -0.08283538330646
  N   3.10773256926505     -0.44687188311844     -0.07368559844283
