12
Coordinates from ORCA-job run
  C   -0.36101976560416      0.32114281741805      0.13921855261244
  C   0.51278681487572     -0.92172697126288     -0.08144297095530
  Br  0.03410314515832      1.00371098303835      1.99686188333764
  H   0.22617886237116     -1.68394795802548      0.64931250441028
  H   0.28493179352558     -1.30197505488293     -1.08211160613714
  C   0.02291878299962      1.40182421857525     -0.76777236562188
  N   0.31802718921738      2.25631402985688     -1.51861071031053
  N   -1.72096894041867     -0.02145578473087     -0.06409001747269
  H   -2.02559176974226     -0.72612403770932      0.59724879987276
  H   -2.32989464616502      0.78488009853453      0.00163503552771
  C   1.94190504413279     -0.65429854923046      0.03075242430532
  N   3.09662348964953     -0.45834379158113      0.09999847043139
