12
Coordinates from ORCA-job run
  C   -0.32721758536933      0.28287663747092      0.29969926567138
  C   0.52308380539964     -0.93430593182727     -0.08731258095028
  Br  0.12305633083701      0.82556323030084      2.12327811072692
  H   0.29864365417606     -1.73088501431859      0.62579273948031
  H   0.21006869763441     -1.27003247543346     -1.08292011370254
  C   -0.02376212068411      1.42452399091127     -0.57748767781241
  N   0.15223046110554      2.31221073093601     -1.32901583858099
  N   -1.71574179499502     -0.11924801895674      0.28877460823482
  H   -2.00005339249209     -0.32732232901023     -0.66422481942441
  H   -2.30274547545964      0.63013360105763      0.63764178251061
  C   1.95464359472461     -0.65381620013175     -0.10699832748793
  N   3.10779382512292     -0.43869822099861     -0.12922714866550
