12
Coordinates from ORCA-job run
  C   -0.34543776580724      0.40429434748869      0.26545410727264
  C   0.45767798342302     -0.87388096472662     -0.06614929704021
  Br  0.13878557367909      0.95123728563995      2.08976880986251
  H   0.14811888161092     -1.21180174187588     -1.06159465265864
  H   0.18254860483191     -1.64741180166220      0.65679484521965
  C   0.03956089420614      1.48013527494230     -0.65082798107418
  N   0.34133448014302      2.30370111245970     -1.43295651716861
  N   -1.77345183219534      0.24030812280509      0.21907123601449
  H   -2.08976213773629      0.08700045194544     -0.73196808628592
  H   -2.07089636314656     -0.52320542054159      0.81491791287373
  C   1.90402650100423     -0.68112038867729     -0.05194468181024
  N   3.06749517998710     -0.52725627779758     -0.05056569520520
