14
Coordinates from ORCA-job run
  C   -0.73159711596827      0.63544982466952      0.06729153061718
  C   0.75217013458359      0.61810176027426     -0.26967307570710
  Cl  -1.50771491340965      1.99161879490174     -0.82900322659881
  H   1.16681034987225      1.60588400881001     -0.04891139765694
  H   -0.86473160371685      0.88174314266346      1.12424086085639
  H   0.86329432653341      0.46486867748226     -1.34820520457810
  C   -1.45990797234066     -0.65279437269334     -0.26445905106506
  H   -1.32817366531136     -0.90272490987766     -1.31988049116274
  H   -1.07527061652933     -1.47554698837129      0.34255561259585
  H   -2.52813917607385     -0.55549993930844     -0.06607541211885
  C   1.52337053069660     -0.44952676883082      0.50307817103416
  H   1.23902750371667     -1.45918312181883      0.20184019879288
  H   1.35582640484915     -0.35653597570579      1.57990490439762
  H   2.59603581309831     -0.34485413219509      0.32629658059352
