15

C	-0.499365	-0.092329	-1.447355
C	0.0	0.0	0.0
Br	-0.278676	1.625242	-2.36833
H	1.095115	0.0	0.0
H	-1.578353	-0.271856	-1.448249
C	0.253689	-1.172544	-2.198658
H	1.323239	-0.951916	-2.182514
H	0.086717	-2.124237	-1.69005
H	-0.095065	-1.246163	-3.231337
N	-0.400347	-1.238596	0.687481
H	0.368096	-1.526209	1.281424
H	-1.214073	-1.082993	1.269293
C	-0.508497	1.183006	0.702749
N	-0.986253	2.05593	1.328496
Br	3.495518	0.0	0.0
