15

C	-0.513715	0.022503	-1.444179
C	0.0	0.0	0.0
Br	0.092304	-1.601767	-2.365931
H	1.100639	0.0	0.0
H	-0.001942	0.831316	-1.96945
C	-2.0225	0.12838	-1.564186
H	-2.495622	-0.689307	-1.020798
H	-2.356161	1.075347	-1.129804
H	-2.331828	0.096162	-2.61043
N	-0.560269	-1.139136	0.748276
H	-0.088601	-1.963626	0.386683
H	-0.241085	-1.046428	1.708078
C	-0.446161	1.243947	0.639248
N	-0.816996	2.238946	1.141452
Br	3.513131	0.0	0.0
