15

C	-0.29261	0.004973	-1.501407
C	0.0	0.0	0.0
Br	-2.233589	-0.159785	-1.855673
H	1.098822	0.0	0.0
H	0.131143	-0.914645	-1.911039
C	0.270775	1.222143	-2.202843
H	0.138313	1.149143	-3.283782
H	-0.213103	2.134319	-1.849086
H	1.339607	1.270202	-1.969603
N	-0.430666	-1.171109	0.74435
H	-1.320591	-1.506315	0.395535
H	0.27142	-1.892192	0.636177
C	-0.504391	1.223669	0.631461
N	-0.907451	2.212933	1.119593
Br	3.457931	0.0	0.0
