12
Coordinates from ORCA-job run
  C   0.63415926625997      0.42968368119517      0.41313063936891
  C   -0.19150715980620      0.40111579688793     -0.65802627110650
  H   1.28847353205026      1.28637082732623      0.52842507118535
  C   0.68371925310304     -0.69001385295367      1.40901855755106
  H   1.46759287738375     -0.52549248621088      2.14782900100520
  H   0.88286857154705     -1.64927810703436      0.91879971604336
  H   -0.26191269701335     -0.79231812069567      1.95568659541325
  N   -1.02670755429027     -0.67069226114111     -0.99134621198019
  H   -1.82753341074869     -0.40783790177621     -1.54570084775569
  H   -1.29456321006544     -1.23285183343798     -0.19684582084371
  C   -0.17398387250275      1.48272493680099     -1.60253624308411
  N   -0.18260559591737      2.36658932103956     -2.37843418579693
