12
Coordinates from ORCA-job run
  C   0.71507765903827      0.39406043762686      0.30243751602749
  C   -0.23293762274929      0.37086636612488     -0.66232718768417
  H   1.45077017131334      1.18980638722052      0.27337919336350
  C   0.78565064498111     -0.65316369322983      1.37320008747686
  H   -0.09382382894752     -0.62628842073850      2.02835657971562
  H   0.84047050419230     -1.65862795971564      0.94178154801513
  H   1.66309362477318     -0.51326156628363      2.00382114347673
  N   -1.19347636146736     -0.63545283132290     -0.81110534932541
  H   -2.02840396207576     -0.33584606480027     -1.29155241157667
  H   -1.41277113649938     -1.11158492668753      0.05153363633469
  C   -0.23486249675040      1.37782988383098     -1.68623593120030
  N   -0.25978719580849      2.20266238797508     -2.52428882462347
