12
Coordinates from ORCA-job run
  C   0.76857693553635      0.29823404385968      0.22262395625845
  C   -0.29015773678552      0.40068507060214     -0.61276983014313
  H   1.62974146109103      0.92519523854782      0.02336293930930
  C   0.80197534610770     -0.63696602671133      1.39570605207724
  H   -0.19443574536495     -0.77892177561252      1.82350743780373
  H   1.19367865377718     -1.62042668298535      1.11410571210086
  H   1.45203382157989     -0.23603125151222      2.17392293613019
  N   -1.49021029141483     -0.30678669918440     -0.48357571988635
  H   -1.38994735731476     -1.22871523095123     -0.09106725181302
  H   -2.04265404807229     -0.31944279561078     -1.32691155515548
  C   -0.24289253092352      1.36205537518275     -1.67979575406866
  N   -0.19670850821628      2.14012073437546     -2.56010892261313
