12
Coordinates from ORCA-job run
  C   0.68544735649293      0.39698589297532      0.36366656343536
  C   -0.24287672056271      0.43299752739513     -0.61931065714376
  H   1.43940825350929      1.17580826176263      0.38199444158355
  C   0.67716460855748     -0.66092660037756      1.42581160909499
  H   0.90041435713055     -1.65545967988017      1.01951624443260
  H   -0.29999003723944     -0.72276666648207      1.91724578491201
  H   1.42072935868506     -0.45186806577262      2.19432300054200
  N   -1.32335493398368     -0.45021039642992     -0.72522164843741
  H   -1.14669552239500     -1.35020928061989     -0.30306639540228
  H   -1.67965131773111     -0.54696526917348     -1.66399632951039
  C   -0.21930532009757      1.49147495604466     -1.58943133570838
  N   -0.21029008236580      2.34113932055798     -2.40253127779830
