12
Coordinates from ORCA-job run
  C   -0.00994435855557      0.51588980211972      0.70217274842627
  C   -0.25395316656171      0.41895570231413     -0.62466107992750
  H   -0.24544018275985      1.45140943462332      1.19689906860751
  C   0.59470956580649     -0.61163798403994      1.48346658869073
  H   1.52469256388695     -0.96117126515838      1.02175618940044
  H   0.82756427055254     -0.30313745207843      2.50221108318022
  H   -0.07936171175533     -1.47479051836198      1.55110774903738
  N   0.07376576596611     -0.68876259043083     -1.41469509047626
  H   -0.49056265220100     -0.77721562101302     -2.24614240378982
  H   0.10481473968880     -1.55445117713642     -0.89603119749847
  C   -0.79472428832075      1.54179343340093     -1.33804145912628
  N   -1.25056054574668      2.44411823576090     -1.93904219652422
