12
Coordinates from ORCA-job run
  C   0.44582366896711     -0.55221206222212      0.30131593158429
  C   -0.28279715731823      0.00399652186459     -0.69188619970994
  H   0.86782607533229     -1.53956211915537      0.11461989456671
  C   0.75044951837607      0.08970787221150      1.61810074468612
  H   0.26364570822432      1.06132516012531      1.71765175532448
  H   1.82800531817694      0.23828551125555      1.73856231934633
  H   0.41873909851880     -0.54335699774629      2.44607895658258
  N   -0.45434746149606     -0.52942700734984     -1.97912178052124
  H   -0.19788958280382     -1.50551685439602     -2.03073059174636
  H   -1.38072553551541     -0.37891917003067     -2.35270984723915
  C   -0.87445760278694      1.30321399612525     -0.51254703683180
  N   -1.38427204767506      2.35346514931813     -0.36933414604202
