12
Coordinates from ORCA-job run
  C   0.49368706819625     -0.50422521178536      0.30885605999561
  C   -0.38587103568572     -0.09742938705676     -0.63355488477926
  H   0.99545372705012     -1.45706273348021      0.14108563952368
  C   0.80843214266433      0.22642864822784      1.57610032401108
  H   1.88089629803286      0.42762385414712      1.65261598418994
  H   0.52967008539288     -0.37034810783206      2.45001646306182
  H   0.27955036585297      1.17905350307205      1.63659591358792
  N   -0.79053805570148     -0.84279754016780     -1.75195446421602
  H   -0.92473686790799     -0.28021942553453     -2.58006443852977
  H   -0.17695538113292     -1.62313080546262     -1.93982394427130
  C   -1.07947488206500      1.15399627228922     -0.48028741520673
  N   -1.63211346469631      2.18711093358314     -0.37758523736698
