12
Coordinates from ORCA-job run
  C   0.74134862453200      0.36840910089730      0.27431514849137
  C   -0.24140781770731      0.37524663174000     -0.65488123396039
  H   1.56744865858961      1.05880718078107      0.14546257682433
  C   0.70458286478871     -0.54408476571422      1.46241875071575
  H   -0.24611403723120     -0.45613816357667      1.99890147555115
  H   1.50576311048167     -0.31411666702437      2.16395260867886
  H   0.81638674402275     -1.59676762343874      1.17379969935005
  N   -1.40626101467207     -0.39804097006825     -0.58533639960691
  H   -1.28585956679043     -1.25748750174773     -0.06975308865361
  H   -1.83722180361387     -0.56276975379206     -1.48243527395548
  C   -0.17839823814849      1.29436749712113     -1.75631628310350
  N   -0.14126752425138      2.03157503482254     -2.67212798033163
