12
Coordinates from ORCA-job run
  C   0.46126847840542      0.52978526681896      0.51354407185567
  C   -0.25518661023091      0.41343562578336     -0.62776987299984
  H   0.93054385908753      1.48407316877915      0.72444679858854
  C   0.59501629364899     -0.60138235797459      1.48857509155933
  H   -0.38618752822091     -0.97917227205690      1.79613060875171
  H   1.15124680611615     -1.44485757424098      1.06110812624962
  H   1.12663415711753     -0.28555637750995      2.38587938706066
  N   -0.98928574326865     -0.71917328741104     -0.99580511228396
  H   -1.13159903167127     -0.80841294407763     -1.99049050888377
  H   -0.63585491110383     -1.57523488353778     -0.59415015271579
  C   -0.38143094143290      1.53956210746482     -1.50998310334571
  N   -0.48316482844713      2.44693352796260     -2.25148533383647
