12
Coordinates from ORCA-job run
  C   0.20311743510429     -0.58070707008866      0.46340635270521
  C   -0.33106032877799     -0.06827835114038     -0.66760548392372
  H   0.14705681044203     -1.66127014824386      0.59394235001655
  C   0.89469560918226      0.20696028017953      1.53127690833029
  H   1.94202344088213     -0.09678365673491      1.62314271380122
  H   0.42424783415702      0.03901978346898      2.50449574033709
  H   0.87176085184043      1.27807373368520      1.32385866858353
  N   -0.85349372144248     -0.81151637168810     -1.73745843230147
  H   -1.02687256386376     -1.77589002151091     -1.49136051830216
  H   -1.67263200415672     -0.39132812321258     -2.15303177995081
  C   -0.29793204191522      1.35134473754192     -0.90148070175547
  N   -0.29991132145198      2.51237520774378     -1.08918581754028
