12
Coordinates from ORCA-job run
  C   0.59112972118628     -0.44087329226816      0.22245980168731
  C   -0.33635785843481     -0.02401042175225     -0.66806867373944
  H   1.22418085357677     -1.27725902731125     -0.07385055608800
  C   0.84551571968958      0.17383114696816      1.56292369548446
  H   0.14394595036023      0.98122613270923      1.77811377853274
  H   1.85928227591556      0.58243915468876      1.61831935916256
  H   0.75704066026526     -0.57441790683242      2.35603024936997
  N   -0.48560239892312     -0.50051765259260     -1.97963801007212
  H   0.00456904551170     -1.37009693186908     -2.13471813958208
  H   -1.44980965545266     -0.57074048746492     -2.27220860550496
  C   -1.20970029436859      1.07148053134005     -0.33919682265778
  N   -1.94519401932621      1.94893875438448     -0.07016607659267
