12
Coordinates from ORCA-job run
  C   0.41534251016119     -0.56721582545532      0.31486575063119
  C   -0.27343953285060      0.00661628668369     -0.69682393910459
  H   0.79046489796328     -1.57726851121414      0.15052484904581
  C   0.73315464027054      0.08031580230477      1.62598879871941
  H   0.36346556702125     -0.52616891322528      2.45784760308075
  H   0.28798441529071      1.07344389087147      1.70597997332170
  H   1.81443124291304      0.18394349840383      1.75870619143525
  N   -0.45471175586180     -0.53895146504051     -1.97743137145164
  H   -0.23808272239204     -1.52516175594576     -2.01183225820408
  H   -1.37027951534997     -0.35625924686932     -2.36300438765904
  C   -0.80460026589607      1.33538462450963     -0.54503351809420
  N   -1.26572948126954      2.41032161497695     -0.42178769172055
