12
Coordinates from ORCA-job run
  C   0.38082025907441     -0.57793242652034      0.33876088976216
  C   -0.39764572594249     -0.04906593196486     -0.63146032305788
  H   0.56970093056865     -1.65041674674914      0.29483451322145
  C   1.03246323576756      0.19089174376036      1.44480023298909
  H   0.75937341040230      1.24719380005226      1.41942193748080
  H   2.12256588241713      0.12290895407578      1.37837074541926
  H   0.74400143774124     -0.21147668727857      2.42017652741716
  N   -0.89448954740153     -0.73855488449161     -1.74832188681402
  H   -1.82783879149815     -0.45565213141615     -2.01105689494091
  H   -0.83576642507428     -1.74154114712042     -1.64270786825797
  C   -0.69243411700611      1.35928829395371     -0.63271947529595
  N   -0.96075054904873      2.50435716369897     -0.62909839792319
