12
Coordinates from ORCA-job run
  C   0.31100909375362      0.54661224298785      0.60118927521123
  C   -0.22619776255313      0.42148736611023     -0.63396333388603
  H   0.51146438083541      1.54634957547477      0.96950864853354
  C   0.65639745675705     -0.64485028358126      1.44341357986956
  H   1.15854952813115     -0.34401353904140      2.36258126432937
  H   1.32210544530544     -1.33075719952447      0.90827786757300
  H   -0.23625183112822     -1.21332404608294      1.73226285747574
  N   -0.45912503007180     -0.79649512813283     -1.28195688789829
  H   -0.59716664161861     -1.56892944255937     -0.64686213459502
  H   -1.18722487279600     -0.75568384792380     -1.97906043653304
  C   -0.50358168402781      1.59465721449537     -1.41434605262471
  N   -0.74997808258709      2.54494708777784     -2.06204464745534
