12
Coordinates from ORCA-job run
  C   -0.01828361925034      0.27171452418160      0.82695790102261
  C   -0.56412542777794      0.38411574166514     -0.40562780050880
  H   -0.46064597905763      0.84564258228334      1.63341028475161
  C   1.17949261400249     -0.59084947129692      1.09069542510253
  H   1.52127312386186     -0.48473467270308      2.11992792466525
  H   0.96103975457834     -1.65346346608770      0.92814510457668
  H   2.01347787974817     -0.32390637024009      0.43245941883022
  N   -0.05551527182879     -0.22042813986736     -1.56030464237850
  H   -0.74549663399915     -0.37125529325155     -2.28059126678381
  H   0.47509159067102     -1.05885382444229     -1.37432509937805
  C   -1.68888842318788      1.25283327731422     -0.61271911597339
  N   -2.61841960776016      1.94918511244468     -0.79802813392636
