12
Coordinates from ORCA-job run
  C   0.43923069558331     -0.55197623610938      0.30972949702306
  C   -0.27266829048580      0.00268049044948     -0.69647936201114
  H   0.86141473251638     -1.54111090069584      0.13289696937255
  C   0.72460798780089      0.09294672765770      1.62931381634198
  H   0.38110800616220     -0.53862267799683      2.45361944021690
  H   0.23539249754351      1.06423667845669      1.71989294796846
  H   1.80009188238665      0.24269410518338      1.76540186745714
  N   -0.42419956328500     -0.53344153072821     -1.98468739312491
  H   -1.34506353501677     -0.38702941411628     -2.37301704579032
  H   -0.16120842029483     -1.50771318589321     -2.03233271587923
  C   -0.86447265313045      1.30360045336648     -0.52912435905380
  N   -1.37423333978009      2.35473549042602     -0.39321366252067
