12
Coordinates from ORCA-job run
  C   0.67920432078803      0.40950235424096      0.36022929030829
  C   -0.19249121384403      0.37292318775165     -0.67355582202026
  H   1.39393058181891      1.22376026190429      0.39552930165180
  C   0.69790616643377     -0.64892923724243      1.42200454805860
  H   1.52754571824176     -0.49842143976229      2.11226010576604
  H   -0.22355354931334     -0.64751516823566      2.01719680574962
  H   0.80329449609663     -1.64775205374496      0.98484989023788
  N   -1.11072520556925     -0.65786653925630     -0.90342215422181
  H   -1.38932458936682     -1.14079227960806     -0.06201586397036
  H   -1.91062789321002     -0.37794512858995     -1.45057165264618
  C   -0.14448218272530      1.39042837046199     -1.68574796785170
  N   -0.12867664935035      2.22260767208074     -2.51675648106192
