12
Coordinates from ORCA-job run
  C   0.15559284145537      0.59120416927454      0.61989898194344
  C   -0.24252727961438      0.37753749432898     -0.65512244454539
  H   0.14108011646054      1.60856935093685      0.99407011516448
  C   0.63463130617038     -0.52373445942668      1.50053775440242
  H   -0.16520490350931     -1.24065964187915      1.72368429511431
  H   1.00085197484261     -0.14268219421926      2.45352136619370
  H   1.45034665795366     -1.08091759384010      1.02719510684279
  N   -0.19716220971909     -0.85978678596514     -1.30655475482587
  H   -0.85585606314366     -0.94662059124813     -2.06566970395060
  H   -0.25152356133626     -1.64702934732606     -0.67701604411842
  C   -0.65746401728171      1.48531493261113     -1.46939080575703
  N   -1.01376486227814      2.37880466675301     -2.14615386646383
