12
Coordinates from ORCA-job run
  C   0.44962885532475     -0.53132712494749      0.33116749404676
  C   -0.37185379077778     -0.08205473743132     -0.64370365811853
  H   0.89290680369545     -1.51719113232388      0.19189786523333
  C   0.77195354320660      0.19633420459672      1.59836173799882
  H   0.42660861213395     -0.36673067310604      2.47103910965286
  H   0.30563850317369      1.18251184630740      1.62844440291854
  H   1.85252668640604      0.32729710390699      1.70661087932262
  N   -0.78848905241842     -0.81482724585890     -1.76603851029156
  H   -0.85922391154377     -0.25609515040124     -2.60443323946440
  H   -0.22261369552693     -1.63659980497365     -1.92441456844909
  C   -0.98665150302152      1.21391148629555     -0.52917627253724
  N   -1.47243105065206      2.28277122793587     -0.45975524031212
