12
Coordinates from ORCA-job run
  C   0.58022692881853      0.50306161802005      0.41056676977805
  C   -0.22327255047479      0.36463340616792     -0.66887637603734
  H   1.22073411875257      1.37629378498343      0.45942546322667
  C   0.58436602635563     -0.49248251236484      1.53159486187912
  H   1.21527899833338     -0.15630205443796      2.35402492002890
  H   -0.42511581592692     -0.64846267408826      1.92741328566053
  H   0.96416671195866     -1.46983667133401      1.20902603244987
  N   -1.16339400585896     -0.65798853762588     -0.83546163458000
  H   -0.93239633852389     -1.50206965421183     -0.33249493417629
  H   -1.39198662763005     -0.85113021641224     -1.79881146739190
  C   -0.21554118963477      1.36570363753544     -1.69846495558371
  N   -0.21206625616938      2.16857987376817     -2.55794196525390
