12
Coordinates from ORCA-job run
  C   0.76602228714951      0.17632749090122      0.16273707527885
  C   -0.22659761903071      0.38452923495769     -0.73077499156721
  H   1.65940572124067      0.78894777233083      0.06111381264739
  C   0.66236706797913     -0.66118882560194      1.39771817603163
  H   1.45371967698611     -1.41309632921123      1.44095856061876
  H   -0.29843468404279     -1.16994391652275      1.48305867435201
  H   0.78449330205247     -0.01867218496340      2.27441767741612
  N   -1.46473734823839     -0.31928717370736     -0.82339770372158
  H   -2.18837391772883      0.10603369777673     -0.25387110953692
  H   -1.35087447434945     -1.28328993076691     -0.54003010064789
  C   -0.00292482893756      1.32877139056514     -1.79661391832414
  N   0.20693481691984      2.08086877424198     -2.67631615254701
