12
Coordinates from ORCA-job run
  C   0.37515282847978     -0.61588125333484      0.39835646348125
  C   -0.34087128031873     -0.10473947158168     -0.62099751219291
  H   0.69273653543801     -1.64990113667288      0.27747104303889
  C   0.77099782672401      0.11457456837623      1.63963923317244
  H   0.42420289959491     -0.42519738013076      2.52541935192846
  H   1.86066739826371      0.18567677430723      1.71466322559560
  H   0.36085227192827      1.12543479704740      1.66728059363182
  N   -0.60876223602502     -0.87061843073031     -1.79577380752419
  H   0.10213298198850     -0.71784228611654     -2.50048044985440
  H   -1.50663473094307     -0.62498047650417     -2.19258653733310
  C   -0.84356529321745      1.24556846486309     -0.56120134409971
  N   -1.28490920191291      2.33690583047724     -0.55079025984417
