12
Coordinates from ORCA-job run
  C   0.25263662983703      0.46988013271842      0.69091991669796
  C   -0.54282146463301      0.41526417830596     -0.40215553454619
  H   0.24549302044860      1.38060139508033      1.27920889099488
  C   1.10342477604564     -0.69112271495330      1.11054388954702
  H   0.49970465281974     -1.59640653374284      1.23719651476727
  H   1.88074174270366     -0.92013230635529      0.37109672478808
  H   1.60604235277026     -0.49079889267186      2.05586354912344
  N   -0.70516795559722     -0.71651512337245     -1.20923065599912
  H   0.09845459263146     -1.32711922464394     -1.20849843331328
  H   -1.01171280123587     -0.50864956133150     -2.14775727040436
  C   -1.37315392274500      1.53696348963558     -0.74007353540959
  N   -2.05364162304528      2.44903516133089     -1.03811405624608
