12
Coordinates from ORCA-job run
  C   0.06695730636010      0.44863863386146      0.74317488628506
  C   -0.40135638803989      0.43949214805238     -0.52591986015604
  H   -0.07263223865838      1.34864159456639      1.33125426519203
  C   0.73662514007851     -0.74687005894624      1.35183469254490
  H   0.10425036403609     -1.63796785260495      1.27338816813394
  H   1.68885994089822     -0.97738417967283      0.85839542944282
  H   0.95089814569021     -0.58239672969257      2.40747404924869
  N   -0.37439273143753     -0.67180001404520     -1.37557526865984
  H   -0.38982791943750     -0.43811229722755     -2.35682699984931
  H   0.36744271040941     -1.32209309531528     -1.16128395155228
  C   -1.06979822815637      1.59786532645860     -1.04900116749403
  N   -1.60702610174286      2.54298652456578     -1.49791424313595
