12
Coordinates from ORCA-job run
  C   0.54408416930906     -0.47210579275868      0.27464934415119
  C   -0.38459893626407     -0.09935510085759     -0.63403530743909
  H   1.13335616556298     -1.36042647785081      0.04780971110161
  C   0.80659295788694      0.21423268812210      1.57823763627693
  H   0.59910410113090     -0.45362771978795      2.42004569612122
  H   1.85591453453021      0.51345039124020      1.65546231061502
  H   0.19050992023118      1.10714891467819      1.69710800479508
  N   -0.73306223762494     -0.81491358590239     -1.79023522587428
  H   -0.05066096558085     -1.52052559756293     -2.02933765570985
  H   -0.93192348384344     -0.22078759944890     -2.58241299718516
  C   -1.19142848957235      1.06932387150845     -0.40254474696400
  N   -1.83788773576563      2.03758600862031     -0.23574676988866
