12
Coordinates from ORCA-job run
  C   0.43881722801664     -0.54330827051190      0.32595563871428
  C   -0.28354900964342     -0.02379786599456     -0.69167904847599
  H   0.84756818178645     -1.54377918737837      0.18473215033959
  C   0.75110663819741      0.15296983466465      1.61306642928379
  H   1.83009849898081      0.29485561846403      1.72833363727566
  H   0.41136492790921     -0.43949518865947      2.46752703342941
  H   0.27500720828092      1.13334709893734      1.66898280281495
  N   -0.46196904807006     -0.61221338041345     -1.95336624371594
  H   -1.38733160087803     -0.47072095466876     -2.33270748038933
  H   -0.21105168056743     -1.59071913176515     -1.96394337953215
  C   -0.85812658868670      1.29016959504184     -0.57143212480589
  N   -1.35293475532581      2.35269183228380     -0.47446941493838
