14
Coordinates from ORCA-job run
  C   -0.97561825680136      0.10972696413147     -0.26301039217283
  C   0.53772073085952     -0.16982669613199     -0.34430627267017
  F   -1.35328692667884      0.85682947805948     -1.36893745499228
  H   0.67069786713898     -0.82349151020531     -1.21971741083124
  C   -1.28387847399770      0.87507893517154      0.95500552935176
  N   -1.52315161897990      1.47242532999449      1.93682141846100
  C   -1.72469179338318     -1.15491898323186     -0.27445935341967
  N   -2.32260900481083     -2.16345772794669     -0.33373349925674
  N   0.89217720900774     -0.90894115782304      0.83581708233974
  H   1.11075936304610     -0.27088453868335      1.59220105382551
  H   1.66813051587695     -1.53555568252871      0.68056709578422
  N   1.20252241356255      1.11643540354888     -0.43635736520521
  H   2.20364409283687      0.97540909232759     -0.50010348421160
  H   0.89958388232309      1.62217109331749     -1.26078694700249
