14
Coordinates from ORCA-job run
  C   -0.97436832308220      0.11135049962546     -0.26824029422050
  C   0.53874561323700     -0.17117171720391     -0.34007308235654
  F   -1.34398255395854      0.85862732416515     -1.37659535449837
  H   0.67563176984518     -0.82778362392541     -1.21264712432020
  C   -1.28848115556442      0.87735111492301      0.94779914132041
  N   -1.52940604645341      1.47583231516644      1.92854737760823
  C   -1.72553153548155     -1.15205799778418     -0.28435767647495
  N   -2.32357215767729     -2.16006697393239     -0.35064786640055
  N   0.88479545021584     -0.90827184888710      0.84406552437238
  H   1.66240117319842     -1.53452946710581      0.69451033378231
  H   1.09954504895429     -0.26828936124713      1.60001551894593
  N   1.20708560961189      1.11341959392825     -0.43191694488475
  H   2.20806444757758      0.96911302388134     -0.49228476752449
  H   0.90907265957722      1.61747711839629     -1.25917478534892
