14
Coordinates from ORCA-job run
  C   -1.01734181626875      0.08461223993662     -0.29655241413142
  C   0.51808122652762     -0.07573338529545     -0.42687552229156
  F   -1.51395116651192      0.60590856525923     -1.46742032582982
  H   0.66561565142141     -0.58528594583439     -1.39048652222093
  C   -1.32847737984034      0.99500413927298      0.81519076400311
  N   -1.54710309881127      1.74366825718607      1.69247033373146
  C   -1.64616029819879     -1.22836396024519     -0.06918862987533
  N   -2.08977525144597     -2.30552217423430      0.07968756126347
  N   0.97589902181933     -0.80960718589654      0.74136247397290
  H   0.72380477170944     -1.79087301985103      0.69956606770427
  H   1.98385446053108     -0.74473179184199      0.80535527914711
  N   1.08587712075743      1.23825591319525     -0.52472704089081
  H   1.24349986957523      1.63050842605444      0.39627009640694
  H   1.94517688873549      1.24115992229430     -1.05465212098940
