14
Coordinates from ORCA-job run
  C   -0.94607751655197      0.02600557003189     -0.13762628013498
  C   0.53134984781150     -0.02766168972488      0.28726275098161
  F   -0.97171046240915      0.11391624292957     -1.52628550291682
  H   0.54688547217626     -0.09702164702613      1.37947493579879
  C   -1.62009575962870      1.20792931752076      0.41962469549982
  N   -2.18676011016622      2.12433255789768      0.88548380785495
  C   -1.66366130652896     -1.19130690599785      0.26848329922473
  N   -2.26306433834168     -2.13850929738790      0.61713566105494
  N   1.11733573235869      1.24493317091539     -0.08509271514879
  H   2.03498815912898      1.34971467122740      0.32784639096317
  H   1.20650339069990      1.31342879365398     -1.09188004220888
  N   1.07158608729799     -1.26361166572890     -0.24353420424610
  H   1.98386979008561     -1.45330532408782      0.15027424705143
  H   1.15985101406775     -1.20884379422318     -1.25116704377388
