16

C	0.0	0.0	0.0
C	-0.422283	-0.14815	-1.451872
Br	2.093299	0.0	0.0
H	0.006568	0.67561	-2.036276
H	-1.514856	-0.047159	-1.420067
C	-0.40619	1.32801	0.595109
H	-0.056343	1.413802	1.627033
H	-1.501834	1.35261	0.575891
H	0.009741	2.156995	0.019809
N	-0.461418	-1.072986	0.722428
H	-0.362616	-1.957818	0.24887
H	-0.295809	-1.071001	1.713359
N	-0.084772	-1.47945	-1.951983
H	-0.739103	-1.742175	-2.677278
H	0.850589	-1.476631	-2.337584
Cl	-3.979026	0.0	0.0
