16

C	0.0	0.0	0.0
C	-0.435466	-0.132073	-1.449663
Br	2.06521	0.0	0.0
H	-0.156865	-1.137584	-1.804489
H	-1.529988	-0.082399	-1.393695
C	-0.435321	1.306434	0.619435
H	-0.061208	2.140916	0.029973
H	-0.068829	1.390163	1.646166
H	-1.531133	1.297741	0.61563
N	-0.466742	-1.090297	0.728714
H	-0.340529	-1.020071	1.725953
H	-0.194703	-1.991864	0.368609
N	0.068819	0.950545	-2.283405
H	1.018144	0.749652	-2.57116
H	-0.509641	1.02787	-3.109393
Cl	-4.011759	0.0	0.0
