16

C	0.0	0.0	0.0
C	-0.296153	-0.044206	-1.525101
Br	1.984325	0.0	0.0
H	0.271055	-0.889349	-1.924093
H	0.136288	0.865191	-1.956858
C	-0.474379	1.28521	0.657732
H	-0.091431	2.169417	0.141599
H	-1.569755	1.28403	0.629306
H	-0.155349	1.324912	1.703101
N	-0.495161	-1.200859	0.62402
H	-1.50665	-1.193805	0.474747
H	-0.357408	-1.137564	1.62783
N	-1.662031	-0.175133	-1.965771
H	-2.293348	0.489429	-1.533328
H	-2.043747	-1.076462	-1.712696
Cl	-4.155798	0.0	0.0
