16

C	0.0	0.0	0.0
C	-0.282617	-0.058208	-1.53216
Br	1.968054	0.0	0.0
H	0.224776	0.794351	-1.997613
H	0.216317	-0.959989	-1.908601
C	-0.504348	1.281241	0.632646
H	-0.115187	2.153432	0.103897
H	-1.598164	1.279502	0.582387
H	-0.199292	1.329027	1.679469
N	-0.497186	-1.120529	0.747772
H	-1.498278	-0.979848	0.884689
H	-0.367683	-1.976638	0.218386
N	-1.655317	-0.07765	-1.972814
H	-2.162337	0.740909	-1.659649
H	-2.172534	-0.840248	-1.553426
Cl	-4.152759	0.0	0.0
