16

C	0.0	0.0	0.0
C	-0.431689	0.155906	-1.457078
Br	1.991417	0.0	0.0
H	-0.123507	-0.755679	-1.996767
H	-1.526305	0.16558	-1.409318
C	-0.44246	1.174478	0.847976
H	-0.103508	1.032657	1.875216
H	-0.048019	2.104317	0.442521
H	-1.535928	1.201764	0.82457
N	-0.467543	-1.224556	0.589138
H	-0.355335	-1.979713	-0.080441
H	-1.473449	-1.095445	0.72719
N	0.036306	1.393409	-2.072766
H	0.980457	1.268732	-2.414333
H	-0.55941	1.615763	-2.860269
Cl	-3.772224	0.0	0.0
