16

C	0.0	0.0	0.0
C	-0.328405	-0.292775	-1.479941
Br	2.042502	0.0	0.0
H	0.20582	0.435999	-2.096717
H	0.104055	-1.274473	-1.715005
C	-0.497383	1.344852	0.474443
H	-0.141178	2.141884	-0.180505
H	-0.152253	1.553798	1.490327
H	-1.591932	1.311096	0.468025
N	-0.49719	-1.028065	0.813541
H	-0.460472	-0.833493	1.802531
H	-0.122993	-1.9394	0.594748
N	-1.726354	-0.289311	-1.829707
H	-2.115985	0.643526	-1.815489
H	-2.291268	-0.793181	-1.152746
Cl	-4.457002	0.0	0.0
