17

C	-0.52832	-0.02212	-1.430363
C	0.0	0.0	0.0
F	-0.068088	-1.108814	-2.11175
H	1.094102	0.0	0.0
C	-2.001597	-0.036557	-1.460988
N	-3.170512	-0.145062	-1.413469
N	-0.059285	1.211748	-2.197158
O	1.077565	1.155823	-2.641134
O	-0.851094	2.146081	-2.284105
C	-0.449973	-1.25555	0.736035
H	-1.535736	-1.269924	0.885243
H	0.043575	-1.270836	1.709652
H	-0.152896	-2.156839	0.197174
N	-0.452415	1.243233	0.60833
H	0.331108	1.694347	1.060363
H	-1.18063	1.081288	1.28973
Br	3.507871	0.0	0.0
