17

C	-0.433084	0.002096	-1.480015
C	0.0	0.0	0.0
F	-0.077244	-1.148337	-2.104157
H	1.097373	0.0	0.0
C	-1.886969	0.191938	-1.622477
N	-3.055904	0.300577	-1.676811
N	0.236551	1.147526	-2.241015
O	-0.186438	2.268744	-1.970405
O	1.122941	0.859564	-3.023572
C	-0.505809	-1.275246	0.658037
H	-1.600358	-1.287815	0.720165
H	-0.101587	-1.294732	1.669965
H	-0.164244	-2.164011	0.127539
N	-0.442569	1.157312	0.746795
H	-1.429204	1.347723	0.610916
H	0.09131	1.973656	0.485189
Br	3.508373	0.0	0.0
