17

C	-0.40077	-0.012368	-1.46679
C	0.0	0.0	0.0
F	0.185973	1.027168	-2.113138
H	1.102828	0.0	0.0
C	-0.092058	-1.265209	-2.165999
N	0.136655	-2.266288	-2.735526
N	-1.91583	0.206084	-1.595181
O	-2.301505	1.300579	-1.969014
O	-2.612517	-0.751159	-1.274025
C	-0.485574	-1.201891	0.78822
H	-0.006712	-1.171608	1.770877
H	-0.187335	-2.138396	0.313837
H	-1.569728	-1.188441	0.913957
N	-0.544569	1.241649	0.562218
H	0.028327	2.008609	0.222067
H	-0.38819	1.205202	1.563216
Br	3.514576	0.0	0.0
