17

C	-0.496123	0.03249	-1.446152
C	0.0	0.0	0.0
F	-1.868011	0.141453	-1.46844
H	1.093835	0.0	0.0
C	0.051284	1.151521	-2.219987
N	0.435921	2.086519	-2.817848
N	-0.161016	-1.261041	-2.180138
O	0.957131	-1.324306	-2.670581
O	-1.019677	-2.133625	-2.170541
C	-0.506067	-1.235559	0.729217
H	-0.179085	-1.143797	1.76485
H	-1.597152	-1.30657	0.704268
H	-0.080434	-2.151397	0.315986
N	-0.41378	1.218434	0.684061
H	0.248415	1.960478	0.49239
H	-1.342582	1.511387	0.410201
Br	3.498953	0.0	0.0
