17

C	-0.390221	-0.002784	-1.469954
C	0.0	0.0	0.0
F	0.193626	1.046309	-2.103946
H	1.102883	0.0	0.0
C	-0.068044	-1.247432	-2.177328
N	0.17027	-2.242009	-2.755095
N	-1.905492	0.203564	-1.611997
O	-2.596158	-0.762539	-1.305
O	-2.297644	1.296938	-1.983231
C	-0.488609	-1.207999	0.775912
H	-1.573873	-1.199512	0.891746
H	-0.182099	-2.139441	0.297093
H	-0.018919	-1.183317	1.763066
N	-0.549961	1.235321	0.569942
H	-0.391406	1.193386	1.570747
H	0.018642	2.006845	0.234109
Br	3.510301	0.0	0.0
