17

C	-0.541156	0.040974	-1.421153
C	0.0	0.0	0.0
F	-1.904129	0.169485	-1.398215
H	1.093505	0.0	0.0
C	0.00661	1.12259	-2.243041
N	0.364524	1.991319	-2.946359
N	-0.244243	-1.273439	-2.140518
O	-1.167422	-2.073833	-2.241577
O	0.915439	-1.423371	-2.499948
C	-0.481213	-1.245236	0.737889
H	-0.058449	-2.158011	0.312273
H	-1.572589	-1.323429	0.732437
H	-0.131734	-1.177192	1.769877
N	-0.418371	1.266105	0.591996
H	-1.295783	1.166549	1.087828
H	0.29936	1.578342	1.234432
Br	3.52204	0.0	0.0
