17

C	-0.359478	-0.009284	-1.497078
C	0.0	0.0	0.0
F	0.062103	1.138501	-2.087394
H	1.097447	0.0	0.0
C	0.150824	-1.164575	-2.239269
N	0.544624	-2.089876	-2.846089
N	-1.882978	-0.028669	-1.638178
O	-2.44788	1.06115	-1.642437
O	-2.427561	-1.1286	-1.640097
C	-0.510776	-1.232338	0.724322
H	-1.600235	-1.225064	0.82752
H	-0.066813	-1.224466	1.719596
H	-0.213347	-2.153714	0.219524
N	-0.417849	1.218286	0.662242
H	-1.371106	1.473149	0.440554
H	0.192031	1.973926	0.38378
Br	3.470398	0.0	0.0
