15

C	0.0	0.0	0.0
C	-0.246508	-0.126751	-1.556404
Br	1.931731	0.0	0.0
H	0.477628	-0.879368	-1.875644
C	-0.530242	1.183002	0.632023
N	-0.628514	2.250039	1.134897
N	-0.372038	-1.244088	0.746867
O	-0.30537	-2.295677	0.109237
O	-0.502709	-1.148615	1.965783
C	0.166605	1.167667	-2.147549
N	0.4032	2.173585	-2.710898
N	-1.529683	-0.571019	-2.084286
H	-2.258465	0.049667	-1.760655
H	-1.463206	-0.532258	-3.100718
H	-1.943737	0.0	0.0
