15

C	0.0	0.0	0.0
C	-0.246105	-0.057831	-1.561133
Br	1.931419	0.0	0.0
H	0.487753	-0.7833	-1.917151
C	-0.548769	1.145688	0.683295
N	-0.630927	2.181313	1.250424
N	-0.374909	-1.282222	0.682562
O	-0.53001	-1.247913	1.902404
O	-0.298909	-2.300201	-0.004003
C	0.138908	1.270624	-2.090116
N	0.342331	2.308424	-2.605006
N	-1.523597	-0.499365	-2.10871
H	-2.258885	0.099521	-1.753823
H	-1.461798	-0.399059	-3.119492
H	-1.94483	0.0	0.0
