15

C	0.0	0.0	0.0
C	-0.242792	0.049229	-1.563179
Br	1.93131	0.0	0.0
H	0.483364	-0.660981	-1.959841
C	-0.507082	1.11036	0.767762
N	-0.619954	2.096353	1.410854
N	-0.38275	-1.315647	0.603316
O	-0.536783	-1.35554	1.823368
O	-0.304412	-2.289756	-0.144238
C	0.162239	1.402962	-2.000766
N	0.382934	2.473604	-2.435047
N	-1.522637	-0.335881	-2.142112
H	-1.439121	-0.208359	-3.14856
H	-2.251217	0.263714	-1.777259
H	-1.917711	0.0	0.0
