14

C	-0.493703	-0.077456	-1.428378
C	0.0	0.0	0.0
Br	0.103586	1.711686	-2.235607
H	1.088315	0.0	0.0
H	-0.397633	0.886371	0.493845
C	0.188701	-1.068713	-2.26326
N	0.655179	-1.834139	-3.022751
N	-1.89601	-0.249278	-1.534734
H	-2.379308	0.461527	-0.999699
H	-2.211674	-0.23283	-2.496522
N	-0.469331	-1.162065	0.763059
O	-0.390342	-2.271977	0.236285
O	-0.865312	-0.967062	1.916618
F	2.502494	0.0	0.0
