14

C	-0.085291	0.236128	-1.509237
C	0.0	0.0	0.0
Br	-0.540034	-1.923792	-2.236703
H	1.08979	0.0	0.0
H	-0.487584	-0.891009	0.369677
C	-1.267171	0.827282	-2.10917
N	-2.194914	1.371268	-2.586745
N	1.096843	0.684391	-1.954821
H	1.944786	0.437926	-1.335399
H	1.197865	0.917575	-2.929773
N	-0.472046	1.166542	0.770547
O	-0.451957	2.276395	0.236935
O	-0.812447	0.953503	1.934636
F	2.660224	0.0	0.0
