14

C	-0.158809	0.138977	-1.513523
C	0.0	0.0	0.0
Br	-0.539598	-1.952163	-2.106942
H	1.088325	0.0	0.0
H	-0.498726	-0.830799	0.483451
C	-1.389886	0.73622	-2.005909
N	-2.350932	1.278157	-2.413697
N	0.986135	0.628387	-2.062599
H	1.822339	0.506771	-1.446733
H	0.928302	1.407781	-2.695062
N	-0.396021	1.251363	0.680173
O	-0.323791	2.312604	0.060247
O	-0.717217	1.164078	1.86566
F	2.602423	0.0	0.0
