18

C	-0.110206	-0.004	-1.525723
C	0.0	0.0	0.0
Cl	-1.853145	-0.044038	-2.12833
H	1.103174	0.0	0.0
N	0.473823	1.225211	-2.01957
H	1.415521	1.246098	-1.610738
H	0.579314	1.156449	-3.027987
N	0.507394	-1.235937	-1.983743
H	1.461083	-1.197204	-1.602386
H	0.580127	-1.207813	-2.995989
N	-0.495855	-1.202166	0.650633
H	0.056633	-1.983997	0.317439
H	-1.444958	-1.367776	0.32387
C	-0.57077	1.234112	0.661275
H	-1.664833	1.238208	0.590287
H	-0.193907	2.146086	0.199979
H	-0.293008	1.216871	1.717278
H	2.916444	0.0	0.0
