18

C	-0.30196	-0.009512	-1.506534
C	0.0	0.0	0.0
Cl	-0.049633	-1.753317	-2.161245
H	1.097289	0.0	0.0
N	-1.704802	0.239631	-1.803238
H	-1.881061	0.042732	-2.783089
H	-1.845217	1.235635	-1.661184
N	0.603547	0.888143	-2.125984
H	1.547661	0.734687	-1.745615
H	0.610986	0.776913	-3.133135
N	-0.528494	-1.11874	0.761098
H	-1.416351	-1.394422	0.355918
H	0.110025	-1.896112	0.646744
C	-0.486093	1.306548	0.615578
H	-0.155606	2.169629	0.033735
H	-0.058369	1.377109	1.617604
H	-1.578262	1.317451	0.711242
H	2.974086	0.0	0.0
