18

C	-0.626735	0.001322	-1.394927
C	0.0	0.0	0.0
Cl	0.057392	1.471088	-2.339841
H	1.09331	0.0	0.0
N	-0.258422	-1.17213	-2.105738
H	-0.173063	-1.899264	-1.403707
H	-0.959131	-1.425192	-2.790708
N	-2.063651	0.1683	-1.302781
H	-2.268487	1.084401	-0.917447
H	-2.451565	0.159848	-2.242315
N	-0.318581	-1.297309	0.617736
H	-1.157747	-1.241364	1.181812
H	0.470906	-1.538743	1.20845
C	-0.436287	1.181055	0.857053
H	0.185818	1.190392	1.757416
H	-1.488363	1.10521	1.166138
H	-0.278919	2.132024	0.342325
H	2.917568	0.0	0.0
