14
Coordinates from ORCA-job run
  C   0.41254179253198      0.37972844526128      0.65516902586196
  C   -0.76649566784320     -0.05637725292193     -0.25705597658093
  Cl  -0.22706572349333      0.97982100470115      2.18166118120230
  H   -1.40693443334337      0.82569794499297     -0.35480346818252
  C   1.33508252280774     -0.72023115779734      0.87873878800117
  N   2.04040039391647     -1.64675483097858      1.03968587654017
  N   1.13819870062673      1.53759782670303     -0.04791046246600
  O   0.41468944857290      2.46754906454681     -0.37692138302524
  O   2.34083907295019      1.42348138115948     -0.23410306859275
  N   -1.45045008201986     -1.17191685888151      0.35488796098626
  H   -2.40910908686407     -0.94891602643588      0.57523612596363
  H   -1.40837458218931     -2.01261207119062     -0.20179922788177
  C   -0.22461731940148     -0.38037229334928     -1.58194613128478
  N   0.21229496374860     -0.67569517580958     -2.63183924054151
