14
Coordinates from ORCA-job run
  C   0.39946001595655      0.40748332517777      0.64741331204448
  C   -0.80098054066994     -0.04559462496669     -0.21296736986660
  Cl  -0.16131980270904      1.04223392147053      2.19009195654867
  H   -1.48341136350144      0.80689997518102     -0.25160519616647
  C   1.33051479401279     -0.69164896193340      0.85041396303924
  N   2.00600325573297     -1.64260399616181      0.99817424223704
  N   1.10990410063231      1.55396774263016     -0.09210255630282
  O   0.36615439089321      2.42446881488398     -0.52097322045373
  O   2.32827592348276      1.50253128273514     -0.17056602431758
  N   -1.45040800669263     -1.15984178315286      0.43457242620025
  H   -0.97027106981679     -2.03038525696698      0.23944415436438
  H   -2.41031176345649     -1.24154004350598      0.12779525379296
  C   -0.31751896142393     -0.32145432447861     -1.57980965454981
  N   0.05290902755967     -0.60451607091227     -2.65888128657002
