14
Coordinates from ORCA-job run
  C   0.30039235533151      0.51786740791528      0.59656571106320
  C   -0.92935416503897     -0.17705553862724     -0.05912009796381
  Cl  -0.14379674954408      2.09685155346217      1.24600785552828
  H   -1.66167586227270     -0.24188264504644      0.75487813447085
  C   0.82887949084952     -0.33853212701373      1.65072233365636
  N   1.18778201213260     -1.08663488697153      2.48391161281419
  N   1.44740990474233      0.73017933476470     -0.41367081528035
  O   1.21416671371204      0.45077628600238     -1.58283324761326
  O   2.48946367945390      1.15745911016104      0.05553100030127
  N   -0.71061226416679     -1.49999443958448     -0.57244312384280
  H   -0.47253516104853     -2.16046055148010      0.15501642782290
  H   -0.02910411012521     -1.51253552008513     -1.31740898073915
  C   -1.51203007659236      0.69449102262140     -1.08788384392032
  N   -2.00898576743325      1.36947099388167     -1.90927296629736
