14
Coordinates from ORCA-job run
  C   0.33883612859841      0.58507994049434      0.62945570290390
  C   -0.81373852895677     -0.22974924389040     -0.00848830636916
  Cl  -0.22820736333130      2.14285231742540      1.22636922513949
  H   -1.50717106970841     -0.44978455700823      0.81450366323840
  C   0.91538499898344     -0.20276922528088      1.71022692630508
  N   1.27703745319482     -0.85063387903053      2.62191718391126
  N   1.41192131191638      0.81811902754826     -0.44354711451191
  O   1.02762373401280      1.39337507130246     -1.44887871947114
  O   2.53742986663291      0.41326077809952     -0.19527638971505
  N   -0.21691808937739     -1.41579300860112     -0.59559349718132
  H   -0.35184774483622     -2.22791793377489     -0.00963427044565
  H   -0.56857712277835     -1.60471148369194     -1.52335629761855
  C   -1.56710043659140      0.54785845602200     -0.99549479996595
  N   -2.25667313775893      1.07981374038603     -1.78320330621939
