15

C	-0.032625	0.103411	-1.5214
C	0.0	0.0	0.0
Br	-0.551256	2.263363	-1.989893
H	1.100822	0.0	0.0
H	-0.463636	0.853574	0.490075
N	1.131203	-0.277824	-2.042304
H	1.980184	-0.162968	-1.388343
H	1.214202	-0.355065	-3.042244
N	-1.23686	-0.48411	-2.223124
O	-1.06693	-0.948472	-3.349349
O	-2.299515	-0.475241	-1.613686
N	-0.466189	-1.32237	0.398341
H	0.160893	-1.678082	1.107232
H	-1.403542	-1.274376	0.773307
F	2.76248	0.0	0.0
