15

C	-0.619762	-0.042534	-1.391565
C	0.0	0.0	0.0
Br	0.211199	-1.464031	-2.42913
H	1.095136	0.0	0.0
H	-0.398542	0.90884	0.467887
N	-2.049635	-0.238727	-1.444154
H	-2.197394	-1.0194	-0.806744
H	-2.456944	0.584279	-1.007535
N	-0.347631	1.304056	-2.058576
O	-1.052684	2.22079	-1.626981
O	0.527186	1.429774	-2.899378
N	-0.489708	-1.195883	0.724385
H	0.319881	-1.804077	0.804034
H	-0.726157	-0.92352	1.670587
F	2.645577	0.0	0.0
