15

C	-0.085491	0.046734	-1.514482
C	0.0	0.0	0.0
Br	-1.900493	0.518231	-2.196537
H	1.103516	0.0	0.0
H	-0.479373	-0.882976	0.42482
N	0.877175	0.921153	-2.091713
H	1.754899	0.667623	-1.591761
H	0.626172	1.840595	-1.737725
N	0.15833	-1.375101	-2.04184
O	1.016774	-1.538082	-2.898484
O	-0.526142	-2.267841	-1.545603
N	-0.411147	1.286475	0.54874
H	-1.352398	1.247228	0.915926
H	0.226564	1.524239	1.296176
F	2.676115	0.0	0.0
