15

C	-0.597416	-0.009112	-1.39168
C	0.0	0.0	0.0
Br	-0.049572	-1.551281	-2.42547
H	1.089995	0.0	0.0
H	-0.347237	0.944661	0.453658
N	-2.021979	0.039764	-1.388458
H	-2.300345	0.897315	-0.926097
H	-2.381853	0.050409	-2.335742
N	-0.009988	1.255335	-2.097722
O	-0.65827	2.287811	-1.889251
O	1.030379	1.194227	-2.726582
N	-0.414961	-1.187511	0.736699
H	0.396884	-1.491059	1.258621
H	-1.17107	-0.99709	1.377847
F	2.637791	0.0	0.0
