15

C	-0.581622	0.050123	-1.399125
C	0.0	0.0	0.0
Br	-0.137788	-1.512089	-2.450319
H	1.094875	0.0	0.0
H	-0.337138	0.935355	0.478674
N	-2.001655	0.199763	-1.406965
H	-2.355045	0.248337	-2.355933
H	-2.220527	1.066981	-0.930291
N	0.089463	1.2877	-2.075914
O	1.011847	1.168617	-2.864681
O	-0.391195	2.362129	-1.697511
N	-0.442815	-1.200842	0.695037
H	0.347254	-1.523637	1.239158
H	-1.223638	-1.021665	1.310933
F	2.642134	0.0	0.0
