14
Coordinates from ORCA-job run
  C   -0.49655048741955      0.20299062812616     -0.14427389424552
  C   0.85685489741332     -0.49525182010570     -0.00356809930547
  Cl  -1.07142291401285     -0.02084085086197     -1.84017146673963
  H   1.16291017821152     -0.38624506125639      1.04194023272146
  H   0.68554126670102     -1.56500282952909     -0.19512134989432
  C   -0.34963888822744      1.63897680743225      0.09451570329521
  N   -0.27016483538810      2.78017773192905      0.35968330606351
  C   -1.53780598399271     -0.38985860172651      0.79565786179054
  H   -1.64616943811991     -1.45770704918295      0.59714781313448
  H   -2.50411219220764      0.09401370433649      0.65250246579721
  H   -1.22098254339442     -0.24544222268785      1.83168618198393
  N   1.85671360284399      0.13066020138868     -0.84575835382245
  H   2.78656680930447     -0.11792793016150     -0.53724159658782
  H   1.75026052828829     -0.16854270770067     -1.80599880419111
