14

C	0.0	0.0	0.0
C	-0.162604	-0.167133	-1.55169
F	1.377844	0.0	0.0
H	0.526225	0.569355	-1.966645
H	-0.418931	-0.828056	0.571367
C	-0.517065	1.29129	0.44347
N	-0.89883	2.341511	0.802591
N	-1.369645	-0.15888	-2.275696
H	-2.167677	-0.429572	-1.704122
H	-1.548875	0.777006	-2.606833
N	0.542264	-1.492736	-1.837118
O	0.212877	-2.463818	-1.15993
O	1.353725	-1.508472	-2.756307
Br	-3.674197	0.0	0.0
