14

C	0.0	0.0	0.0
C	-0.495945	0.253496	-1.429049
F	1.380118	0.0	0.0
H	-1.547688	0.544886	-1.367021
H	-0.377054	-0.970394	0.327376
C	-0.439778	1.046892	0.944802
N	-0.646928	1.916558	1.706402
N	-0.336934	-0.849166	-2.322806
H	0.536212	-1.334818	-2.165378
H	-1.12157	-1.474814	-2.192472
N	0.279226	1.438765	-1.954107
O	1.281741	1.218671	-2.627864
O	-0.139263	2.551539	-1.635251
Br	-3.4957	0.0	0.0
