14

C	0.0	0.0	0.0
C	-0.509145	0.087701	-1.425674
F	1.382861	0.0	0.0
H	-1.599009	0.220073	-1.357759
H	-0.364206	-0.948212	0.396569
C	-0.39761	1.08821	0.907406
N	-0.543696	1.926429	1.714718
N	-0.158455	-1.091201	-2.134678
H	0.826106	-1.087698	-2.365629
H	-0.691434	-1.158174	-2.989163
N	0.05111	1.356896	-2.074333
O	0.700023	1.232439	-3.113269
O	-0.207484	2.424378	-1.529484
Br	-3.558483	0.0	0.0
