13

C	0.0	0.0	0.0
C	-0.281454	0.013217	-1.518225
F	1.406894	0.0	0.0
H	0.025426	-0.916612	-1.982209
H	-0.217371	0.926521	0.485696
H	-1.374951	0.123484	-1.73043
N	-0.333393	-1.214833	0.74669
H	-0.016613	-2.043928	0.297459
H	-0.201402	-1.113957	1.729688
N	0.297584	1.164342	-2.145875
O	0.001283	2.26678	-1.669612
O	0.798857	1.020429	-3.279448
Br	-2.376147	0.0	0.0
