13

C	0.0	0.0	0.0
C	-0.363792	0.046934	-1.480168
F	1.484838	0.0	0.0
H	-0.04907	0.984153	-1.932824
H	-0.316455	0.937005	0.457241
H	-1.442874	-0.10659	-1.5648
N	-0.454747	-1.08186	0.778251
H	-0.421678	-1.93355	0.231334
H	-1.43394	-0.897997	0.99637
N	0.337363	-1.021451	-2.233878
O	1.133099	-0.688042	-3.109755
O	0.081795	-2.189439	-1.933008
Br	-3.641311	0.0	0.0
