13

C	0.0	0.0	0.0
C	-0.415894	-0.020918	-1.473242
F	1.405276	0.0	0.0
H	-0.121702	0.897319	-1.978543
H	-0.341103	0.950659	0.414872
H	-1.496623	-0.181328	-1.520331
N	-0.461363	-1.051129	0.836037
H	-0.367851	-1.931109	0.344174
H	-1.458378	-0.893102	0.980854
N	0.272278	-1.116064	-2.200222
O	1.03188	-0.815307	-3.121468
O	0.048912	-2.272314	-1.834528
Br	-3.675375	0.0	0.0
