13

C	0.0	0.0	0.0
C	-0.473556	-0.177951	-1.424767
F	1.381848	0.0	0.0
H	-0.170156	-1.150307	-1.805631
H	-0.296015	0.988956	0.363218
H	-1.560146	-0.046655	-1.460537
N	-0.483252	-1.102015	0.777559
H	-1.498153	-1.117846	0.651351
H	-0.325592	-0.893122	1.757022
N	0.145283	0.841693	-2.309546
O	0.092851	2.016258	-1.950255
O	0.655641	0.453402	-3.360942
Br	-3.716969	0.0	0.0
