15

C	-0.173468	0.069249	-1.516381
C	0.0	0.0	0.0
Br	-2.006981	0.547208	-2.067519
H	1.09685	0.0	0.0
N	0.7746	0.983502	-1.992039
H	1.667575	0.785951	-1.502121
H	0.842433	0.980418	-3.000779
N	0.073541	-1.340059	-2.144173
O	0.622852	-2.181655	-1.439318
O	-0.165227	-1.453318	-3.344169
C	-0.627041	-1.121098	0.66797
N	-1.162043	-2.00683	1.226358
C	-0.420021	1.251572	0.610817
N	-0.740294	2.24219	1.156457
F	2.511584	0.0	0.0
