15

C	-0.525164	-0.054326	-1.455407
C	0.0	0.0	0.0
Br	0.437781	-1.444859	-2.399672
H	1.092968	0.0	0.0
N	-1.92603	-0.264258	-1.668546
H	-2.442879	0.468006	-1.193201
H	-2.174258	-1.164789	-1.275144
N	-0.177862	1.306641	-2.078711
O	0.971355	1.508412	-2.4366
O	-1.103799	2.117657	-2.104406
C	-0.451605	-1.19949	0.683886
N	-0.820158	-2.188933	1.203207
C	-0.519635	1.173244	0.679881
N	-0.931588	2.138104	1.214103
F	2.42635	0.0	0.0
