15

C	-0.083412	0.034643	-1.527214
C	0.0	0.0	0.0
Br	-1.903209	0.339945	-2.233407
H	1.09582	0.0	0.0
N	0.814945	1.013377	-1.963295
H	0.941032	0.967699	-2.965802
H	1.697961	0.846746	-1.442508
N	0.288304	-1.366005	-2.12094
O	0.566661	-1.362355	-3.316079
O	0.303304	-2.343061	-1.384729
C	-0.656612	-1.080086	0.707117
N	-1.238013	-1.844702	1.38567
C	-0.43921	1.278252	0.537163
N	-0.798152	2.273973	1.047906
F	2.517131	0.0	0.0
