15

C	-0.470175	-0.015781	-1.444759
C	0.0	0.0	0.0
Cl	-0.177976	1.580943	-2.151163
H	1.096164	0.0	0.0
C	0.236487	-1.014753	-2.235362
N	0.863336	-1.795134	-2.850984
N	-1.989191	-0.264244	-1.619766
O	-2.340159	-0.691059	-2.711072
O	-2.700896	0.049918	-0.676931
N	-0.402748	-1.287018	0.675454
O	-0.177569	-1.35279	1.873771
O	-0.793074	-2.199497	-0.05508
C	-0.475891	1.124854	0.778418
N	-0.810321	2.031192	1.447911
F	2.461143	0.0	0.0
