15

C	-0.515173	0.031139	-1.429948
C	0.0	0.0	0.0
Cl	-2.283971	-0.125944	-1.531431
H	1.095138	0.0	0.0
C	-0.119377	1.288303	-2.05823
N	0.145695	2.298498	-2.597922
N	0.147489	-1.086559	-2.311742
O	1.34365	-0.92199	-2.472372
O	-0.560808	-1.96111	-2.771938
N	-0.387227	-1.248375	0.687368
O	-0.310153	-2.280223	0.021959
O	-0.678126	-1.189448	1.879547
C	-0.487498	1.154594	0.720091
N	-0.858696	2.127971	1.266028
F	2.397606	0.0	0.0
