15

C	-0.470842	-0.019954	-1.454971
C	0.0	0.0	0.0
Cl	-2.203334	-0.235815	-1.620071
H	1.096479	0.0	0.0
C	-0.074577	1.230019	-2.094421
N	0.26637	2.232776	-2.604284
N	0.257902	-1.145612	-2.289016
O	1.470239	-1.170159	-2.133539
O	-0.414581	-1.802142	-3.067521
N	-0.428544	-1.275267	0.689384
O	-0.370036	-2.29024	-0.000948
O	-0.567563	-1.219597	1.904655
C	-0.530761	1.145653	0.70727
N	-0.919008	2.139304	1.205631
F	2.475744	0.0	0.0
