15

C	-0.460057	-0.014033	-1.449691
C	0.0	0.0	0.0
Cl	-0.01831	1.532825	-2.185287
H	1.095201	0.0	0.0
C	0.179755	-1.099071	-2.181527
N	0.752633	-1.951294	-2.752955
N	-1.990431	-0.13972	-1.638696
O	-2.666688	0.5218	-0.867567
O	-2.378766	-0.871637	-2.536145
N	-0.435312	-1.268826	0.692774
O	0.086341	-1.483378	1.776032
O	-1.060648	-2.103919	-0.006435
C	-0.465152	1.123805	0.788251
N	-0.807365	2.054392	1.420055
F	2.463521	0.0	0.0
