12
Coordinates from ORCA-job run
  C   -0.62331116356288     -0.38325172453870      0.17161274085331
  C   0.58212502936307      0.27628130655185     -0.45389907397089
  F   -0.37343021762459     -0.43474333041737      1.57076685144215
  H   0.43445036501964      0.28628565049528     -1.53557688077794
  H   -0.69884502586480     -1.42438381079160     -0.14560702935862
  H   0.61162666355684      1.32278863035597     -0.10689540375800
  N   -1.82046590614344      0.30696587307455     -0.12871889079542
  H   -2.62188940970246     -0.15637892895061      0.27728637908577
  H   -1.78340980657765      1.25819827931292      0.21411143781383
  N   1.77596483942112     -0.49636874681672     -0.13679218102549
  H   1.93211314605492     -0.46405050731597      0.86223049286328
  H   2.58407148606023     -0.09134269095959     -0.59051844237198
