12
Coordinates from ORCA-job run
  C   -0.72662026827197     -0.43104060454492     -0.17758206289406
  C   0.77469584607786     -0.46780584692829      0.03906024137251
  F   -1.21921752027546     -1.65093481649211      0.34701038463223
  H   0.93796359994940     -0.75317985388571      1.08387543543814
  H   -0.98594127739103     -0.46521368780483     -1.24014608143618
  H   1.16888437336745     -1.28420225008476     -0.58072408894615
  N   -1.32446653593172      0.70539791032607      0.40434323577352
  H   -2.33310467529364      0.65633301092433      0.36545321145672
  H   -1.01500490765555      0.84933323391224      1.35570577285921
  N   1.38313165290630      0.83713286775735     -0.20294723169633
  H   0.96616305360958      1.27392719302417     -1.01484180658353
  H   2.37351665890878      0.73025284379647     -0.37920700997606
