12
Coordinates from ORCA-job run
  C   -0.78256539840931     -0.50265517668618     -0.16950509640536
  C   0.73250255065024     -0.46990852159064     -0.07860949414474
  F   -1.17296954783436     -1.83260736140043     -0.00694101874610
  H   1.14086023900815     -1.16027162274483     -0.82688508519695
  H   -1.12518277390946     -0.23883716099693     -1.18145416226904
  H   0.98431242525164     -0.85669039910641      0.91148276842391
  N   -1.34113231919066      0.29206258935455      0.86962470335598
  H   -0.74866848596840      1.10184522764192      1.00598065196794
  H   -2.28347636541005      0.58731443043772      0.65723624896351
  N   1.21273007553275      0.90764228095477     -0.18403788530939
  H   1.22109168594998      1.20034963336945     -1.15359128212169
  H   2.16249791432949      0.97375608076701      0.15669965148194
