12
Coordinates from ORCA-job run
  C   -0.68643364725760     -0.53197518033790     -0.01773324062418
  C   0.79996323925436     -0.38623879031847      0.21789938396519
  F   -1.17783228179206     -1.45246482765554      0.93126299040922
  H   0.94071650491139      0.03921097778092      1.22592400333017
  H   -0.87430112867631     -0.96607169009472     -1.00109134040535
  H   1.24301409627473     -1.38443842287960      0.21977010455351
  N   -1.33643653187353      0.72705064315485      0.07419186942698
  H   -2.31267009158499      0.65891582737404     -0.18036626688026
  H   -1.27025525173511      1.08382528603635      1.02010615465487
  N   1.36997582508443      0.39347537572439     -0.87161278688975
  H   0.93840089138273      1.30863969146242     -0.87906724544462
  H   2.36585837601196      0.51007110975327     -0.73928362609578
