12
Coordinates from ORCA-job run
  C   -0.64982411630548     -0.52899380655131      0.28225781456634
  C   0.70097604014276     -0.50567153284542     -0.40285060927096
  F   -0.50668651778127     -0.82856731933310      1.62218786532625
  H   0.50614751204120     -0.35443361976287     -1.47984459630051
  H   -1.26582720670827     -1.33663373518164     -0.14006475167440
  H   1.15053048146524     -1.49688466996806     -0.29318755468140
  N   -1.26641089505379      0.77904734850809      0.21665598656307
  H   -2.10398847509073      0.78012624945938      0.78611376940585
  H   -1.53569516414397      0.98180251568813     -0.73874876424357
  N   1.56173471967124      0.49176931580258      0.21157034779959
  H   2.37090164638904      0.66302954034944     -0.36986757336343
  H   1.03914197537401      1.35340971383477      0.30477806587317
