12
Coordinates from ORCA-job run
  C   -0.61718994975537     -0.28324787800583      0.51659897607796
  C   0.52735261456394      0.31356117115876     -0.28940171902594
  F   -0.52906576383041      0.22749713521171      1.80250855557393
  H   0.35272036787543      0.07169210833124     -1.34889034081652
  H   -0.50561509908280     -1.36941830349967      0.60010885397403
  H   0.44549039113895      1.40047260151685     -0.18373130211239
  N   -1.91868702618407      0.00631592182655     -0.00368707781098
  H   -1.95499920815974      0.90701587959437     -0.46147845214399
  H   -2.25094120575364     -0.71061925711634     -0.62989902530389
  N   1.82550535396356     -0.11220783832038      0.21759512357030
  H   2.08361835538373     -1.00465251595993     -0.18286825904187
  H   2.54181116984041      0.55359097526265     -0.03685533294065
