18

C	-0.60033	0.022464	-1.420735
C	0.0	0.0	0.0
Br	0.559599	-1.051319	-2.585566
H	1.095503	0.0	0.0
C	-2.008922	-0.55462	-1.528905
H	-2.033626	-1.609402	-1.253515
H	-2.678543	0.009217	-0.875838
H	-2.34526	-0.460369	-2.563222
N	-0.482745	1.402104	-1.877849
H	-0.28859	1.42527	-2.867787
H	-1.346287	1.893603	-1.683277
N	-0.436158	-1.201653	0.787869
O	-0.21465	-2.288804	0.267085
O	-0.955597	-1.02755	1.887377
N	-0.475442	1.182639	0.788136
O	0.313632	1.669765	1.583504
O	-1.63808	1.558976	0.615722
Cl	3.226066	0.0	0.0
