18

C	-0.376336	-0.046152	-1.491272
C	0.0	0.0	0.0
Br	-2.297223	0.323456	-1.78684
H	1.116872	0.0	0.0
C	0.427123	0.967667	-2.289613
H	0.150943	1.986224	-2.034016
H	0.235514	0.778114	-3.346608
H	1.488769	0.823629	-2.064213
N	-0.097154	-1.360157	-2.027668
H	0.900789	-1.534101	-1.922944
H	-0.612518	-2.077273	-1.530647
N	-0.462401	-1.220501	0.730286
O	-1.664556	-1.481672	0.695627
O	0.396644	-1.891641	1.293629
N	-0.460459	1.178375	0.786803
O	-0.366237	2.273155	0.243606
O	-0.840105	0.981337	1.938058
Cl	3.216275	0.0	0.0
