18

C	-0.464792	0.021792	-1.460123
C	0.0	0.0	0.0
Br	-2.386669	0.721689	-1.596091
H	1.091272	0.0	0.0
C	0.387129	0.965091	-2.290743
H	0.225197	1.994418	-1.990979
H	0.116276	0.856378	-3.344366
H	1.436193	0.704492	-2.132572
N	-0.35897	-1.297106	-1.960522
H	-1.045088	-1.919339	-1.558246
H	-0.421344	-1.311025	-2.9687
N	-0.456221	-1.227325	0.723033
O	0.363263	-1.784518	1.443702
O	-1.628026	-1.580599	0.56451
N	-0.430927	1.167788	0.823459
O	-0.24591	2.271014	0.328083
O	-0.875665	0.945668	1.946209
Cl	3.24316	0.0	0.0
