18

C	-0.484834	-0.035119	-1.45159
C	0.0	0.0	0.0
Br	0.066664	1.779869	-2.218756
H	1.116397	0.0	0.0
C	0.326141	-1.033868	-2.261029
H	0.097013	-0.908561	-3.321978
H	0.062573	-2.045523	-1.950232
H	1.392025	-0.872656	-2.094941
N	-1.870595	-0.278696	-1.550191
H	-2.40287	0.426534	-1.057698
H	-2.160865	-0.331487	-2.517683
N	-0.484781	-1.239874	0.700203
O	0.111406	-2.275915	0.432893
O	-1.453494	-1.139417	1.450912
N	-0.521152	1.131442	0.825348
O	0.111118	1.370687	1.84804
O	-1.54746	1.709137	0.466946
Cl	3.215922	0.0	0.0
