16

C	-0.013586	0.003948	0.013783
C	-0.553325	0.170261	-1.405805
F	1.342648	-0.177966	0.003803
H	-1.648387	0.22707	-1.318163
N	-0.167496	1.355178	0.771691
O	0.435047	1.427927	1.83969
O	-0.929286	2.207463	0.324583
N	-0.647236	-1.033935	0.682158
H	-1.667913	-1.004768	0.539174
H	-0.403985	-1.047473	1.664204
C	-0.21578	-1.04787	-2.147379
N	0.073629	-1.96481	-2.82054
N	0.07102	1.320044	-2.071034
H	-0.536785	2.117915	-1.942238
H	0.149509	1.13348	-3.061808
Cl	-3.700385	-0.473663	-0.050838
