14

C	0.0	0.0	0.0
C	-0.270566	0.039663	-1.564285
Cl	1.828213	0.0	0.0
H	0.512713	-0.565391	-2.032466
H	-0.303088	-0.989596	0.343341
N	-0.617213	0.975933	0.809515
H	-0.47401	1.894725	0.403583
H	-1.634139	0.724731	0.710328
C	-0.033667	1.423812	-2.018527
N	0.12912	2.535589	-2.362271
N	-1.551529	-0.419561	-2.060069
H	-2.278656	-0.162821	-1.34305
H	-1.519099	-1.433846	-2.053415
F	-2.977156	0.0	0.0
