14

C	0.0	0.0	0.0
C	-0.418961	-0.074058	-1.515002
Cl	1.787782	0.0	0.0
H	0.477098	-0.366535	-2.071609
H	-0.258753	-0.978504	0.423445
N	-0.580557	1.113113	0.669969
H	-1.603149	0.923408	0.512862
H	-0.403464	1.017935	1.665865
C	-0.749187	1.268081	-2.022222
N	-0.988545	2.297995	-2.530656
N	-1.475054	-1.007751	-1.866468
H	-1.132048	-1.934421	-1.630937
H	-2.253389	-0.763922	-1.209354
F	-2.890833	0.0	0.0
