14

C	0.0	0.0	0.0
C	-0.699649	-0.005507	-1.340859
Cl	1.818552	0.0	0.0
H	-1.779645	-0.240663	-0.927666
H	-0.291407	-0.902099	0.535418
N	-0.44111	1.157962	0.717819
H	0.165775	1.939996	0.526018
H	-0.513873	0.982612	1.705931
C	-0.188176	-0.993326	-2.262817
N	0.185619	-1.805646	-3.027039
N	-0.721871	1.358079	-1.909054
H	-0.892916	1.289411	-2.906657
H	-1.562798	1.752753	-1.490494
F	-2.91244	0.0	0.0
