14

C	0.0	0.0	0.0
C	-0.448935	-0.302014	-1.456304
Cl	1.821974	0.0	0.0
H	0.43943	-0.550435	-2.04338
H	-0.241804	-0.902705	0.567568
N	-0.552608	1.211033	0.50316
H	-0.356046	1.257586	1.498211
H	-1.577849	1.00887	0.393406
C	-1.015716	0.899623	-2.113187
N	-1.427362	1.77246	-2.782947
N	-1.334739	-1.459533	-1.460717
H	-2.157436	-1.112426	-0.918975
H	-1.623153	-1.62952	-2.419208
F	-2.845425	0.0	0.0
