14

C	0.0	0.0	0.0
C	-0.287577	0.041021	-1.560666
Cl	1.83001	0.0	0.0
H	0.519579	-0.514547	-2.047774
H	-0.296771	-0.991518	0.34523
N	-0.613621	0.971472	0.818362
H	-0.475178	1.890538	0.41117
H	-1.629693	0.721003	0.724199
C	-0.127703	1.440115	-1.998495
N	0.006218	2.562481	-2.316107
N	-1.54825	-0.481009	-2.044646
H	-1.477534	-1.492446	-2.010321
H	-2.283701	-0.224239	-1.335597
F	-2.978497	0.0	0.0
