14

C	0.0	0.0	0.0
C	-0.458153	0.147284	-1.479969
Cl	1.788999	0.0	0.0
H	0.427609	0.089785	-2.119137
H	-0.259648	-1.027139	0.271617
N	-0.558928	1.009137	0.840391
H	-1.582647	0.843343	0.679081
H	-0.358331	0.761944	1.80452
C	-1.028214	1.489894	-1.744
N	-1.440771	2.522554	-2.123432
N	-1.343313	-0.957129	-1.827645
H	-1.635727	-0.832052	-2.791789
H	-2.164663	-0.788033	-1.204333
F	-2.855869	0.0	0.0
