14

C	0.0	0.0	0.0
C	-0.328385	-0.108018	-1.554133
Cl	1.795911	0.0	0.0
H	0.520402	-0.610714	-2.026692
H	-0.304624	-0.955211	0.431219
N	-0.608639	1.038857	0.744677
H	-0.460552	1.922601	0.267723
H	-1.626085	0.789771	0.663223
C	-0.344097	1.253133	-2.114775
N	-0.358902	2.344921	-2.545538
N	-1.535099	-0.809416	-1.944425
H	-2.282311	-0.49983	-1.267943
H	-1.366017	-1.79331	-1.761548
F	-2.957489	0.0	0.0
