17

C	-0.566292	-0.012759	-1.427216
C	0.0	0.0	0.0
Cl	0.124291	1.368316	-2.307637
H	1.095227	0.0	0.0
N	-0.121216	-1.270248	-2.166523
O	0.571785	-2.076272	-1.556174
O	-0.531863	-1.393687	-3.318727
C	-2.076523	0.042739	-1.481982
H	-2.399355	0.907589	-0.905149
H	-2.409206	0.123086	-2.51542
H	-2.492831	-0.865286	-1.037107
C	-0.525651	-1.137384	0.749812
N	-0.997916	-2.001861	1.388374
N	-0.466438	1.249333	0.652375
H	0.281177	1.922919	0.517134
H	-0.50727	1.080455	1.651414
Cl	3.28402	0.0	0.0
