17

C	-0.393394	0.006441	-1.477698
C	0.0	0.0	0.0
Cl	-0.158366	-1.605856	-2.192501
H	1.095672	0.0	0.0
N	-1.886956	0.3001	-1.620555
O	-2.273636	0.737191	-2.6992
O	-2.60883	0.055742	-0.656879
C	0.404898	1.035318	-2.239818
H	1.463293	0.81957	-2.077504
H	0.159191	1.001103	-3.299568
H	0.178145	2.021412	-1.835512
C	-0.476275	-1.171862	0.741036
N	-0.840337	-2.067524	1.408718
N	-0.400949	1.271847	0.595221
H	0.333568	1.572874	1.223694
H	-1.267567	1.175163	1.106227
Cl	3.279492	0.0	0.0
