17

C	-0.305401	0.020619	-1.510036
C	0.0	0.0	0.0
Cl	0.229332	-1.509093	-2.23525
H	1.096303	0.0	0.0
N	-1.803083	0.136088	-1.807101
O	-2.572009	0.237469	-0.851579
O	-2.1384	0.169439	-2.986303
C	0.390881	1.179398	-2.190354
H	0.254339	1.11923	-3.26973
H	1.452564	1.125222	-1.934296
H	-0.024713	2.123374	-1.828063
C	-0.528853	-1.203034	0.647125
N	-0.969328	-2.150964	1.18234
N	-0.385425	1.184428	0.74272
H	0.312475	1.906637	0.630726
H	-1.314341	1.508112	0.51471
Cl	3.285608	0.0	0.0
