17

C	-0.450161	-0.048865	-1.463067
C	0.0	0.0	0.0
Cl	-2.207605	-0.322656	-1.562753
H	1.086476	0.0	0.0
N	-0.148586	1.305825	-2.103406
O	0.827571	1.897801	-1.664803
O	-0.834977	1.650538	-3.059785
C	0.316038	-1.0842	-2.257227
H	0.100227	-2.078994	-1.864596
H	1.384737	-0.880816	-2.136923
H	0.025168	-1.04178	-3.308204
C	-0.397468	-1.252517	0.654636
N	-0.739931	-2.224579	1.21898
N	-0.518266	1.176494	0.681797
H	0.24859	1.61882	1.171145
H	-1.242706	0.932193	1.343021
Cl	3.297346	0.0	0.0
