14

C	0.0	0.0	0.0
C	-0.521576	0.05927	-1.422019
F	1.376335	0.0	0.0
H	-1.611103	0.241135	-1.386613
H	-0.366681	0.897072	0.503257
C	-0.433342	-1.193575	0.740931
N	-0.569464	-2.1405	1.42193
N	-0.279039	-1.164079	-2.231276
O	0.506067	-2.005732	-1.80187
O	-0.896399	-1.216499	-3.290336
N	0.168661	1.203684	-2.103794
O	0.888354	0.974744	-3.06935
O	-0.050106	2.301735	-1.603291
Br	-3.438381	0.0	0.0
