13
Coordinates from ORCA-job run
  C   -0.33600490429799      0.20973636058341     -0.23403843409853
  C   0.65767955673766     -0.92024775013980     -0.02763035600521
  F   -0.86480413047231      0.14878233413952     -1.49246528062868
  H   0.93195618381715     -0.98605693068949      1.02937183780276
  H   0.16973514859700     -1.85789025425384     -0.29431604350880
  N   -1.59063285853242     -0.09154062486449      0.65430918129227
  O   -1.88990742945070     -1.26789000981546      0.82879341311522
  O   -2.20836125617676      0.88555780675315      1.06287381870240
  N   0.19617696638285      1.47452847640363     -0.01231638764997
  H   -0.51796697083419      2.19060629093522     -0.00558928447523
  H   0.77204289077345      1.52906769784053      0.81477623639545
  C   1.85290938229596     -0.72373671531668     -0.84197500655688
  N   2.82717742116031     -0.58891668157569     -1.48079369438481
