13
Coordinates from ORCA-job run
  C   -0.41966504803355      0.32459692682932     -0.19486440259058
  C   0.56010739897788     -0.61329898483422     -0.87362806322280
  F   -1.39478229113929      0.63006552002807     -1.14306139348106
  H   0.99781578262564     -0.07380268865373     -1.71914787731624
  H   0.01139420283356     -1.46747267655188     -1.27022704249827
  N   -1.21712507879388     -0.39969228895079      0.88955459585824
  O   -1.83958652832967      0.32136696937273      1.66029105083926
  O   -1.22253851743906     -1.62477837292313      0.86544514564122
  N   0.17920853128148      1.42977442599930      0.39842891047999
  H   -0.49249449831238      2.01423941874422      0.87787030360100
  H   0.74759004193807      1.95888749095950     -0.24714127610275
  C   1.61398775236691     -1.06607717510164      0.02718854597401
  N   2.47708825202429     -1.43480856491776      0.73029150281797
