13
Coordinates from ORCA-job run
  C   -0.46992744961617      0.33670531482674     -0.28526611539949
  C   0.52384614023680     -0.59842394130763     -0.95066866787617
  F   -1.51283077142170      0.55044303734846     -1.14403430486157
  H   0.88893663529995     -0.09392877857194     -1.84812518473678
  H   0.00875204064935     -1.51419478792926     -1.23879279742568
  N   -1.17003289297542     -0.41953035502637      0.89029525335279
  O   -1.57135305472535      0.27871675784806      1.81497266200682
  O   -1.31506219687093     -1.63101061689206      0.77336423622837
  N   0.07980092947670      1.55619535127735      0.10187368329445
  H   -0.57302565988500      2.09142018763785      0.66049628681645
  H   0.95373550669461      1.44619004259801      0.59861591136173
  C   1.63485040332228     -0.90255094219933     -0.05627771912132
  N   2.52231036981487     -1.10003126960988      0.68554675636040
