13
Coordinates from ORCA-job run
  C   -0.36903479407880      0.17761857126698     -0.07702718807667
  C   0.63720845613347     -0.95891681461034     -0.14197220530060
  F   -0.99350430160625      0.27226858591414     -1.31357416266660
  H   1.00301271267219     -1.17908396189705      0.86170719263832
  H   0.14460325804627     -1.84959935180441     -0.53284928788389
  N   -1.51585812247855     -0.18852405219616      0.86444005927034
  O   -1.57761089000162     -1.34135688198653      1.27686914041933
  O   -2.30895892795827      0.71556373984875      1.09730233954993
  N   0.17144793922947      1.37529154533212      0.38918500811413
  H   -0.53473677066560      2.09824188262724      0.44364447832249
  H   0.95919715083683      1.67776411531519     -0.16907792358984
  C   1.74809258680671     -0.57383756903051     -1.00786849989506
  N   2.63514170306415     -0.22442980877942     -1.69177895090188
