13
Coordinates from ORCA-job run
  C   -0.38817174214179      0.16139820035269     -0.18839337095963
  C   0.72934914319026     -0.86098934801676     -0.07588609262033
  F   -1.10515257471828     -0.04711973942642     -1.33238795748093
  H   1.17731482850454     -0.81422500868987      0.92126167287930
  H   0.29640056130595     -1.85496813514669     -0.18988903178288
  N   -1.44728335865607     -0.16920544827377      0.91764547672204
  O   -1.60632273236093     -1.34885641018375      1.21222825117860
  O   -2.07413551095823      0.78441873234856      1.36629021832932
  N   0.04965642085672      1.48008728106336     -0.14576328710319
  H   0.74203572798630      1.64990789824306      0.56873516558348
  H   -0.71936091242805      2.13229650193748     -0.06719791304048
  C   1.75244503175481     -0.63584872872288     -1.09228064012817
  N   2.59322511766475     -0.47689579548501     -1.89436249157713
