13
Coordinates from ORCA-job run
  C   -0.30068008853973      0.31254678903920     -0.32879084004832
  C   1.10991354060297     -0.25212747676313     -0.27450991206610
  F   -0.91344310007290     -0.04956527157802     -1.47403353847283
  H   1.66135127282362      0.18792624788169     -1.10842030246892
  H   1.58690761843701      0.04724243820691      0.66062422505224
  N   -1.10578037745805     -0.35388748529024      0.81838793623244
  O   -0.66654367311852     -0.09807644048586      1.93756267358629
  O   -2.08496725019543     -1.03009778119972      0.54489982965013
  N   -0.30664944663343      1.71923381854370     -0.22324865022070
  H   -1.23849246523048      2.08441828408763     -0.38207785803209
  H   0.03217978316291      2.01834888065111      0.68171970394491
  C   1.11281248027743     -1.70803651255748     -0.38315528380593
  N   1.11539170594460     -2.87792549053578     -0.46795798335112
