13
Coordinates from ORCA-job run
  C   -0.32465836547557      0.21210106229012     -0.26042861724747
  C   0.67332407969860     -0.90284581806548      0.01978301484245
  F   -0.74079153099724      0.16567725293310     -1.54239042596068
  H   0.95140939452446     -0.88659376053328      1.07579014501334
  H   0.18968921285326     -1.86192540009722     -0.18720541986037
  N   -1.57419925757469     -0.12557101381295      0.60422159410941
  O   -2.62412562279733     -0.41027206553112      0.04803764845432
  O   -1.37022080850694     -0.06139130328719      1.81457360676033
  N   0.18334209386283      1.49157477474801      0.01785131161335
  H   -0.46148828796868      2.21653099456396     -0.27120941067355
  H   0.42442598831131      1.59646570353629      0.99370067536954
  C   1.85717443729716     -0.76097435994962     -0.82100748672623
  N   2.81511866677283     -0.67377606679460     -1.49171663569445
