13
Coordinates from ORCA-job run
  C   -0.36208922176798      0.18832718281722     -0.08425603286070
  C   0.61628931255529     -0.97263546311370     -0.14349088853682
  F   -0.94701036462244      0.32346478662861     -1.33637951576591
  H   0.11355390848527     -1.84204085359360     -0.56798782341250
  H   0.94633216920280     -1.22282184591163      0.86556717112670
  N   -1.54512668059342     -0.16570117110042      0.81583834187709
  O   -2.32152184397911      0.75400009672079      1.04332641488024
  O   -1.64801847563251     -1.32408561479375      1.20375166069334
  N   0.19497629082907      1.36185871721236      0.42191301609911
  H   -0.49429191514793      2.10111272185678      0.47378102172143
  H   1.00536972535013      1.65586278185733     -0.10760752057118
  C   1.76245226628463     -0.59854538683813     -0.96737019802254
  N   2.67908482903622     -0.25879595174186     -1.61608564722827
