13
Coordinates from ORCA-job run
  C   -0.34204022231234      0.25427269544245     -0.14532617616077
  C   1.08158389997780     -0.24196387843235     -0.31564896587002
  F   -1.12393766521350     -0.27665343314978     -1.15285851915317
  H   1.50808324165452      0.27199575361507     -1.18279423112057
  H   1.66384326791659      0.02888912275994      0.56505504363529
  N   -0.96703304951729     -0.28690987661004      1.13884388268987
  O   -0.27389691232707     -0.98117107627452      1.87253698404880
  O   -2.13243634574281      0.04407163092156      1.32191170391595
  N   -0.41050640831945      1.64989263680168     -0.04511417825782
  H   -1.36737201454318      1.94905689476081      0.10142236145330
  H   -0.02093970397333      2.10246187178361     -0.86108326440495
  C   1.15165360777631     -1.68205201939925     -0.54491196926995
  N   1.23299830462376     -2.83289032221920     -0.75403267150594
