13
Coordinates from ORCA-job run
  C   -0.41845615281000      0.32704691828429     -0.19429650933411
  C   0.58580659613495     -0.58032924581716     -0.87856963952933
  F   -1.37326669640639      0.65433828264819     -1.15605881540129
  H   1.03662411508676     -0.01138752651308     -1.69751119373842
  H   0.05454514088045     -1.42711967819642     -1.31297563850185
  N   -1.23580391630533     -0.43841805393270      0.84631541129416
  O   -1.88218675323900      0.25224816949977      1.62509927566852
  O   -1.23078655164062     -1.66212065017423      0.78210062472757
  N   0.15546394691563      1.41723335200558      0.44856574325242
  H   -0.53194134367255      1.98203604656943      0.92902052654148
  H   0.73937880836061      1.96950499667546     -0.16264490792534
  C   1.62425756604279     -1.05059993397552      0.03123116756359
  N   2.47636524065271     -1.43243267707362      0.74072395538258
