13
Coordinates from ORCA-job run
  C   -0.44962288087587      0.16012160140389     -0.24008788742928
  C   0.65632382086322     -0.87078120812690      0.02716875345137
  F   -0.88655397240570     -0.01510800099626     -1.50543608549342
  H   0.92420960550104     -0.84376972350734      1.08573688057704
  H   0.28402671181540     -1.87021656972096     -0.21645410715100
  N   -1.59011745842928     -0.19674335109574      0.71426938716178
  O   -1.35758394358840      0.04476028381393      1.89550729815557
  O   -2.59781660744036     -0.69839455062047      0.24403375926337
  N   -0.17388109836564      1.53109433455290     -0.03449247114611
  H   0.55662810601658      1.84896917119078     -0.65917606063828
  H   0.06702515330094      1.71990769131515      0.92873309294296
  C   1.82162215809108     -0.55629160265237     -0.79122514456230
  N   2.74474040551698     -0.25454807555663     -1.44957741513170
