13
Coordinates from ORCA-job run
  C   -0.35910177239903      0.31355520633456     -0.26135398825384
  C   1.04194682479875     -0.23480004694592     -0.47993789818274
  F   -1.17089366366470     -0.03927780018653     -1.27882516234991
  H   1.42319242371159      0.22350063181775     -1.39536044792113
  H   1.68291910789454      0.05678346472094      0.35417051832284
  N   -0.93118729188266     -0.37888952472461      1.00374557397241
  O   -1.94155980750244     -1.05760978659883      0.90632063355869
  O   -0.29098932426928     -0.13914083822406      2.02534868685866
  N   -0.35864917084105      1.71851423144150     -0.13391517751526
  H   0.14003442992810      2.00917048451425      0.69682163898397
  H   -1.30725780993074      2.07412220471945     -0.11123534023770
  C   1.03751298171619     -1.68879118980505     -0.61152105154429
  N   1.03503307244075     -2.85713703706345     -0.71525798569171
