13
Coordinates from ORCA-job run
  C   -0.47624113800322      0.32634020506560     -0.28739082023238
  C   0.55046683841284     -0.57395326277452     -0.95064535987243
  F   -1.51690232349952      0.51717319442650     -1.15428724810965
  H   0.06392607435813     -1.50055956181113     -1.25361463130095
  H   0.91141527115665     -0.05057936274993     -1.83892636988189
  N   -1.16564008150438     -0.46011806237278      0.87494092875699
  O   -1.27368539842390     -1.67440298057927      0.74683282059250
  O   -1.59815568278430      0.21851880833176      1.80025611777546
  N   0.03401297625357      1.55771183943847      0.11526675907777
  H   -0.63841408554471      2.06877769115181      0.67319969867558
  H   0.90733454609623      1.46915482020494      0.61729113259746
  C   1.65901714722325     -0.85761349295997     -0.04645328369449
  N   2.54186585625939     -1.04044983537149      0.70453025561602
