13
Coordinates from ORCA-job run
  C   -0.31653496749158      0.26959756575955     -0.17345640966060
  C   1.11842966314832     -0.22347717873043     -0.16531042670701
  F   -0.93047531877507     -0.16164916087134     -1.33339560582232
  H   1.55751453946265     -0.03351384679531      0.81389620199153
  H   1.67080674768032      0.35797299102592     -0.90999059401369
  N   -1.13018251925884     -0.37722826675370      0.94545688439922
  O   -2.31181027426110     -0.05436279817943      0.97418876175824
  O   -0.55487789097385     -1.13779550951876      1.71452928971706
  N   -0.40531296004372      1.65168928100539      0.03909554725684
  H   0.10342808600017      2.17038628324450     -0.66431016785932
  H   -1.37475009969846      1.94576313344059      0.06135107266024
  C   1.22810333332751     -1.63911573936307     -0.50435339504553
  N   1.34466166088364     -2.76826675426390     -0.79770115867465
