13
Coordinates from ORCA-job run
  C   -0.33336143521079      0.22221177798010     -0.24213039747315
  C   0.72592357784842     -0.85758154674295     -0.07250107096529
  F   -0.72696100931398      0.30305323653542     -1.52947713511530
  H   0.98173724459908     -0.95580221526273      0.98461564988827
  H   0.30615544528668     -1.81024698005252     -0.40840247573709
  N   -1.57308037746347     -0.28867009053226      0.54938776266548
  O   -1.39271624627314     -0.35511554623324      1.76330967962241
  O   -2.59413509286842     -0.56922445906042     -0.06018238744727
  N   0.09117188007924      1.48744604162774      0.19535504740628
  H   -0.59539645226302      2.20101422926387     -0.01588626917738
  H   0.31430094892009      1.48853753853330      1.18112381705750
  C   1.91550351365306     -0.54550582942969     -0.85758330956795
  N   2.87985800300622     -0.32211615662659     -1.48662891115654
