13
Coordinates from ORCA-job run
  C   -0.29459037748902      0.32010676590055     -0.32757530294557
  C   1.10956387390151     -0.26009846033488     -0.26761636069517
  F   -0.90027732799157     -0.02085824699996     -1.48303737199140
  H   1.58146092333799      0.02284973514854      0.67515398946408
  H   1.67317372060786      0.18372422889742     -1.09134920006500
  N   -1.11707972255389     -0.35292599591626      0.80321122104904
  O   -0.68527938134786     -0.11713524518662      1.92963374603245
  O   -2.10048273115196     -1.01528503569752      0.51161604644778
  N   -0.28686148039043      1.72514015059717     -0.20388139343422
  H   -1.21348947850212      2.10258638089734     -0.36440885398063
  H   0.04951549150403      2.00971733006991      0.70662271972399
  C   1.09753561392363     -1.71455608299108     -0.39411747670895
  N   1.08781087615183     -2.88326552438461     -0.49325176289641
