13
Coordinates from ORCA-job run
  C   -0.28403117288426      0.34189201163420     -0.07650695073438
  C   1.01524672056727     -0.37192208370918     -0.39898547866277
  F   -1.14519676921912      0.20635354538401     -1.14826154784831
  H   1.63632027623042     -0.40891356075074      0.49603731347043
  H   1.53664723836344      0.22095301414874     -1.15704252667997
  N   -1.01530642913487     -0.33395869082394      1.08104484553584
  O   -2.09480144211696      0.16867388781062      1.37005634556757
  O   -0.47891206782707     -1.29185096859622      1.62483820803085
  N   -0.07691816408551      1.66826609890436      0.32487274544225
  H   0.40053243606946      2.20324196756599     -0.38836621927176
  H   -0.95805090005731      2.10760240927504      0.56395575013397
  C   0.80332765651505     -1.71773290100910     -0.92395922139804
  N   0.66114261757946     -2.79360472983379     -1.36768326358568
