13
Coordinates from ORCA-job run
  C   -0.36200565434152      0.20096914116257     -0.05046529749768
  C   0.62990494016291     -0.91318006923794     -0.33971498913676
  F   -0.91783770240616      0.60724727191192     -1.25673037866769
  H   0.14783227134528     -1.66820694391956     -0.96134693274529
  H   0.93484813215066     -1.38096300052025      0.59722388498547
  N   -1.56247477332729     -0.35064762506480      0.71693986624945
  O   -2.35367822083450      0.49148553202866      1.12371128606190
  O   -1.66315686323643     -1.56689519126478      0.83372362746485
  N   0.16951618284320      1.23600650776237      0.71712567467912
  H   0.98835693131299      1.64573303668719      0.28647569478660
  H   -0.52982802224127      1.94014534358821      0.91554384272030
  C   1.79397196886389     -0.36026978607722     -1.02615750205954
  N   2.72455080970824      0.11857578294364     -1.55632877684073
