13
Coordinates from ORCA-job run
  C   -0.52917776186298      0.33612389944847     -0.31151666864184
  C   0.54969501275847     -0.60112595289221     -0.85809953176882
  F   -1.45684619767364      0.44839527447216     -1.30891382328237
  H   0.08618252696599     -1.54542341485370     -1.15356608745122
  H   0.96231710112949     -0.13556638824329     -1.75860398750183
  N   -1.24396472433137     -0.41085450596200      0.83045093129959
  O   -0.96299210600523     -0.09292405194952      1.98179701753066
  O   -2.00275111298420     -1.30312416865931      0.48156799314716
  N   -0.12469642229276      1.58915218769837      0.15938092436998
  H   0.73015919340016      1.91902004523530     -0.26313726571803
  H   -0.07146553600974      1.61655516506969      1.16768345550695
  C   1.60895754402130     -0.82653341795981      0.11870312097013
  N   2.45558248288451     -0.99569467140417      0.91325392153965
