13
Coordinates from ORCA-job run
  C   -0.30002110072427      0.32250443005345     -0.09193537530806
  C   1.00685417291419     -0.37662675583095     -0.41695993525707
  F   -1.21233236755371      0.05128478660448     -1.09342261166149
  H   1.46692013476697      0.15791981728160     -1.25382840976561
  H   1.67366902882731     -0.30858446376999      0.44243010082165
  N   -0.94060055061225     -0.25834304509290      1.16679947593270
  O   -2.02250615834500      0.23300418440864      1.46584989921812
  O   -0.33786099707095     -1.13700004492783      1.77135532277424
  N   -0.12354747627661      1.68849602345147      0.16422869603423
  H   -1.00638220436163      2.12043155615894      0.41061156270127
  H   0.29285402960916      2.16498992673163     -0.62452764171891
  C   0.81684394283784     -1.77171450211689     -0.80245908096416
  N   0.68810954598895     -2.88736191295166     -1.13914200280692
