13
Coordinates from ORCA-job run
  C   -0.33053075411566      0.30690156021376     -0.30172922656089
  C   1.05615987957751     -0.30960841758388     -0.39575240822068
  F   -1.09773539388037     -0.08973856534133     -1.33712997240656
  H   1.65653893867972      0.00901547834049      0.45841604010928
  H   1.51358401244791      0.07274993308445     -1.31107771141770
  N   -1.00137822681633     -0.26719710918646      0.97451907691171
  O   -0.41123558564668      0.02527216910934      2.01239970515366
  O   -2.02975332491752     -0.91665276676015      0.86626907093632
  N   -0.27742103171229      1.71622265031864     -0.27611195877341
  H   0.18932546266211      2.04881879010485      0.55732926088227
  H   -1.20974755008599      2.10944301347114     -0.33133501594341
  C   0.99501923668383     -1.76785475831302     -0.43932679812251
  N   0.94617433712376     -2.93937197745783     -0.47747006254807
