13
Coordinates from ORCA-job run
  C   -0.40707688218405      0.35519814000235     -0.35176753656064
  C   0.63555540186896     -0.62293449561452     -0.86191978666476
  F   -1.29924967036672      0.60684924062726     -1.35802045986924
  H   1.15155862317509     -0.13815652640923     -1.69380493157210
  H   0.13140534848365     -1.51788095103735     -1.22517021622182
  N   -1.30811991997527     -0.36660723653961      0.70327764250614
  O   -1.80703284383366      0.34923440483633      1.56470812679753
  O   -1.49352623916958     -1.56904810631939      0.55521076226811
  N   0.12737168774058      1.55234810659882      0.11638243353615
  H   0.91660299812684      1.40974479725609      0.73221722932494
  H   -0.57729990512398      2.11443869349313      0.57696203921670
  C   1.58718049962534     -0.96954383961632      0.18745220679182
  N   2.34363090163280     -1.20364222727757      1.05347249044716
