13
Coordinates from ORCA-job run
  C   1.01394152745073     -0.63678037138090     -0.09591908741218
  C   -0.42013029654380     -0.16909207797589     -0.40077785750737
  Cl  1.98928214912971     -0.70862577219492     -1.58356541525396
  H   -0.75814427486752     -0.74361043269829     -1.27418783450411
  H   0.99281661270343     -1.65129570395622      0.30986349390483
  C   1.63886772284532      0.24852027080527      0.88132412818963
  N   2.12406637075071      0.97822619407770      1.66238628985965
  N   -0.40252847449213      1.21731972636727     -0.77454376425103
  H   -1.23389674113466      1.47640431827584     -1.28687551787457
  H   -0.31963148353847      1.79985093712395      0.05101577683838
  N   -1.19308410007539     -0.41333756285705      0.81468321546777
  H   -2.10950483646107      0.00774974359205      0.71992079408870
  H   -1.32305417576687     -1.40632926917880      0.97667577845427
