13
Coordinates from ORCA-job run
  C   0.95557553433203     -0.61643786232310      0.19428699233064
  C   -0.33238224548477      0.01560700852729     -0.36732579583678
  Cl  1.61480696654513     -1.82360846959125     -0.93468793822459
  H   -0.11991430720545      0.32389336192372     -1.40072137027876
  H   0.70187522681357     -1.13446863671436      1.12168939266589
  C   1.96900034694755      0.39805419363633      0.46775466064538
  N   2.74765432784524      1.25377565960271      0.66953666791759
  N   -0.69992029324900      1.10611218314780      0.53072859826906
  H   -0.03256035236618      1.86898207875182      0.48718624996421
  H   -1.60314819808425      1.47035587434953      0.25114432760929
  N   -1.35196826729546     -1.00135108940419     -0.40779757564447
  H   -1.80156975048734     -1.05941064762896      0.49877894653273
  H   -2.04844898831107     -0.80150365427735     -1.11157315595019
