13
Coordinates from ORCA-job run
  C   0.91521093884949     -0.50608418936426      0.40355497121410
  C   -0.32126171253319      0.04477668678034     -0.32135244061763
  Cl  1.30394487334162     -2.17132129728287     -0.13385283164815
  H   -0.07559577402458      0.09302916006706     -1.39234422336182
  H   0.68881256850267     -0.56470486907415      1.47096561173710
  C   2.07211325685944      0.35359421681484      0.18153536378859
  N   3.01742567975734      1.02138580002385     -0.01329355080839
  N   -0.51539998840611      1.39229874271009      0.16000835904180
  H   -1.10607847690104      1.36966353070916      0.98277986995964
  H   -0.93860407929652      1.98613437104264     -0.53929732353460
  N   -1.46080989848695     -0.80322592595182     -0.00205993739154
  H   -1.30238027347901     -1.75784928544379     -0.30296447854361
  H   -2.27637711418324     -0.45669694103110     -0.49367938983490
