13
Coordinates from ORCA-job run
  C   1.02527275071450     -0.57045098647887     -0.21404471668960
  C   -0.45954875069168     -0.21067169156451     -0.34301418874623
  Cl  1.92522517457459     -0.17382852957227     -1.71042960616928
  H   -0.84277922164388     -0.79971122421348     -1.18982933976573
  H   1.09624934346959     -1.64971559371151     -0.07806167237127
  C   1.62958489435259      0.09915688497558      0.93325093777327
  N   2.09836540001716      0.60857656862332      1.88132970006268
  N   -0.59541924963005      1.22731969819092     -0.50038112307824
  H   -1.57513618123284      1.46547131912236     -0.59774409479879
  H   -0.11087958561487      1.55353602755310     -1.32871505251084
  N   -1.10492292598834     -0.69670447374198      0.85571157933877
  H   -2.09296978712638     -0.84608338283132      0.70023632673929
  H   -0.99404186120041     -0.00689461635134      1.59169125021597
