13
Coordinates from ORCA-job run
  C   0.93091078170751     -0.40028528004621      0.63097265624258
  C   -0.51574035432046      0.00788930008188      0.32778421787600
  Cl  1.06338319663188     -2.16013441793199      0.93287106520374
  H   -1.10419049428133     -0.27352626101037      1.21399658138016
  H   1.23413153751904      0.10301885190666      1.54911541287936
  C   1.82420682345813     -0.00356696351252     -0.45285898773746
  N   2.53987268995002      0.35597575843641     -1.31096714474954
  N   -0.94660901518063     -0.62636043190951     -0.90623558985611
  H   -0.91189572594658     -1.63658250200178     -0.83236618612121
  H   -1.90304857038727     -0.36039914474695     -1.10705369238205
  N   -0.52348457025702      1.45047670882584      0.23717537466032
  H   -0.24190854254833      1.72307914190968     -0.69878629757192
  H   -1.44762775634498      1.82041523999885      0.41635259017614
