13
Coordinates from ORCA-job run
  C   0.90483857951949     -0.57317261409261      0.18398487785162
  C   -0.40834726258537     -0.02847880182216     -0.42614929626497
  Cl  1.50938609250691     -1.99891527048141     -0.69716580488857
  H   -0.23305641834744      0.09805408447409     -1.49875671760879
  H   0.71545944325219     -0.89210796714478      1.21448668701249
  C   1.93302394292989      0.46380520939635      0.19532280197801
  N   2.72656086246790      1.32949194156514      0.18815301731850
  N   -0.79255555981943      1.26834836535491      0.10812186060158
  H   -0.12505795977909      1.99173096297698     -0.13312347593900
  H   -0.88190141230992      1.23776647047806      1.11791825068011
  N   -1.42538181662907     -1.03690895305559     -0.25288211168276
  H   -1.65896529970751     -1.12853999083365      0.73061312153757
  H   -2.26400319149854     -0.73107343681530     -0.73152321059579
