13
Coordinates from ORCA-job run
  C   0.97591734395648     -0.60413896071400      0.15145753110058
  C   -0.44516787807232     -0.02529726020646      0.22825874831136
  Cl  1.38874524839924     -1.15160297047736     -1.49473638971143
  H   -0.60861890843893      0.17161293879603      1.30071544130530
  H   1.00722232563455     -1.48624645531772      0.79281996798127
  C   1.95916880961062      0.37217912569476      0.61139827208866
  N   2.73076275523403      1.15659924195186      1.02199664074334
  N   -1.37949585585878     -1.05694323020812     -0.15120539542307
  H   -2.31004363240900     -0.82567418795843      0.17217454959346
  H   -1.39918587783863     -1.12585910940509     -1.16265496009973
  N   -0.53820996827748      1.15916799265714     -0.60941461694391
  H   0.09738070180030      1.88667532556885     -0.29895558502841
  H   -1.47947506374008      1.52952754961855     -0.56185420391741
