13
Coordinates from ORCA-job run
  C   0.94720472176230     -0.43518746930844      0.58043003778733
  C   -0.50066732529546      0.01310760921676      0.34988074021265
  Cl  1.04882342374627     -2.20410613416533      0.84005379382826
  H   -1.05632930521831     -0.27611079921903      1.25454551754525
  H   1.30229690653514      0.04062380398438      1.49467180846553
  C   1.80330511931588     -0.03728778864210     -0.53260344801420
  N   2.49148184009845      0.32090441172935     -1.41350811008547
  N   -0.99977807262869     -0.58199342662467     -0.87812909039874
  H   -1.95833265028374     -0.29174205611337     -1.02878867594745
  H   -0.98380770092394     -1.59423315362094     -0.82894514964529
  N   -0.47875780178526      1.45719596618134      0.29254423943902
  H   -1.38632880250590      1.84280995496300      0.51822992337350
  H   -0.23011035281674      1.74501908161904     -0.64838158656041
