13
Coordinates from ORCA-job run
  C   0.88157210117591     -0.31512505159147      0.61736032697504
  C   -0.59708139730452     -0.01875138561669      0.29301869916669
  Cl  1.11282625120845     -2.03066086045916      1.08136787798940
  H   -1.16328242861681     -0.27069242521748      1.20388083302949
  H   1.17761172821793      0.27264584144289      1.48966210174589
  C   1.74576681019143      0.03103095288135     -0.50601866573963
  N   2.43566335125819      0.36644922522467     -1.39471681248450
  N   -0.97439317552256     -0.76569650616190     -0.88406284394635
  H   -1.92046747763316     -0.50731605445516     -1.13539537678474
  H   -0.94053632428526     -1.76256854413902     -0.71435136139133
  N   -0.83729201813786      1.37250363031143     -0.00467663809892
  H   -0.61548333748633      1.97628676967902      0.77602796533380
  H   -0.30490408306542      1.65189440810153     -0.82109610579484
