13
Coordinates from ORCA-job run
  C   0.89399195484522     -0.61137826522861      0.10238606532170
  C   -0.49439336184598      0.07132116306426      0.23319073852338
  Cl  1.22410708109182     -1.15270570214686     -1.56238840866317
  H   -0.61570186061370      0.23547245558799      1.31803721921152
  H   0.89922811650305     -1.50657414525728      0.72940993843450
  C   1.94845435440272      0.28915613894271      0.55687723859254
  N   2.74067207776160      1.06056428204497      0.95324899374038
  N   -1.60665193218396     -0.73330415656836     -0.20075930821211
  H   -1.48660541066942     -0.98153454942120     -1.17580728286818
  H   -1.69944313141329     -1.57558141112974      0.35228248049962
  N   -0.50681262295422      1.27494260963642     -0.56320247435137
  H   -1.44134648289330      1.66198055257778     -0.53410327388621
  H   0.14450121796945      1.96464102789791     -0.20917192634260
