13
Coordinates from ORCA-job run
  C   0.91134689342958     -0.50449010651489      0.41391680675861
  C   -0.32039366832791      0.04144715847187     -0.32249992659382
  Cl  1.29032206977102     -2.18122061766370     -0.09409216343160
  H   -0.07169823893507      0.07152139340312     -1.39344347673174
  H   0.68373692394544     -0.54327903247561      1.48207735723188
  C   2.07408120500074      0.34386804370165      0.17848429098722
  N   3.02485257327928      1.00082659293970     -0.02664747683415
  N   -0.50779989789348      1.39752571529877      0.13670811470968
  H   -1.09661241093402      1.39085940697172      0.96118750765978
  H   -0.93081804453301      1.98094399016913     -0.57119622765611
  N   -1.46554274464881     -0.79502017227184      0.00689330020483
  H   -2.27833870293323     -0.44946373052822     -0.49000466775424
  H   -1.31313595722053     -1.75451864150171     -0.28138343855034
