13
Coordinates from ORCA-job run
  C   0.90627414687165     -0.56934729379520      0.18804650299921
  C   -0.39910140648341     -0.02085823771359     -0.43505714695800
  Cl  1.54315018344415     -1.96580745500384     -0.71694802234682
  H   -0.20266262928707      0.13632853706526     -1.49992113678968
  H   0.69881896259811     -0.91690288739583      1.20567661421205
  C   1.92377433179252      0.47642890123038      0.24753500325055
  N   2.70875115521199      1.34924842942663      0.27775184914286
  N   -0.80724437532207      1.25747565240387      0.12561796457112
  H   -0.14298503312233      1.99364245931908     -0.08420193793329
  H   -0.91459395959455      1.19928641327459      1.13255199509960
  N   -1.40970516209432     -1.04298342624566     -0.31063090877860
  H   -2.24196528135145     -0.72991757225006     -0.79561511173856
  H   -1.66051093266321     -1.16559352031562      0.66519433526956
