13
Coordinates from ORCA-job run
  C   0.88617924083442     -0.51582615564588      0.23780682506862
  C   -0.35232827648750      0.17352705325452     -0.38113896437290
  Cl  1.27989936768259     -2.02843067912447     -0.63188366431090
  H   -0.07581657032823      0.47172189421428     -1.39695760270460
  H   0.65903637478606     -0.80478644817347      1.26916615305106
  C   2.04987983444756      0.36282805323331      0.22894719184665
  N   2.99854571282150      1.05416047161913      0.20487409246048
  N   -0.56291870218951      1.37101584903252      0.40103702337890
  H   -1.27562179680397      1.93283740284298     -0.04921273178833
  H   -0.91341837905463      1.12727979055684      1.32179376656403
  N   -1.53302644865069     -0.66079569878783     -0.48415488664123
  H   -1.39148683926543     -1.42212654171068     -1.13686246925087
  H   -1.77092351779218     -1.06040499131125      0.41758526669909
