13
Coordinates from ORCA-job run
  C   0.88884650929204     -0.58169560703317      0.11689146094395
  C   -0.45897337904247      0.15147554957948      0.29474804092306
  Cl  1.17573323474731     -0.98730600365558     -1.60700056926414
  H   -0.53593083951646      0.34676469995742      1.37109107736994
  H   0.84711415780892     -1.53863949259912      0.64176670159386
  C   2.00452708484454      0.19990399810726      0.63620807245739
  N   2.88725812725186      0.81985118921374      1.09974000678167
  N   -1.62177395891807     -0.63648608749500     -0.07374671286224
  H   -1.73496935922890     -1.44103714294199      0.53255073034215
  H   -1.54284348439305     -0.96357527266563     -1.02990501567150
  N   -0.38106465944950      1.42244368625180     -0.37920102914811
  H   -1.24766372023193      1.92257934805625     -0.22376737155928
  H   -0.28125971316431      1.28472113522453     -1.37837539190676
