13
Coordinates from ORCA-job run
  C   0.93680347032550     -0.48052524981737      0.56170693774446
  C   -0.50385686831870     -0.00226041371798      0.34544127094375
  Cl  1.01618360272597     -2.26292376079063      0.71552243693869
  H   -1.07165593817542     -0.33711486415296      1.22656767072706
  H   1.28827009336800     -0.06484684355396      1.50617233190311
  C   1.80760618756669     -0.02592349120622     -0.51739495093689
  N   2.50918852262242      0.37850288696149     -1.36716793202401
  N   -0.99784442831637     -0.51757488382813     -0.91988289650327
  H   -1.95119544604844     -0.20660005284667     -1.06233618930440
  H   -0.99453931473221     -1.53103987353700     -0.93078660233129
  N   -0.46420939541572      1.44260024578417      0.37347156022731
  H   -1.36860061787489      1.82540137551157      0.61562895170921
  H   -0.20514986772682      1.78230492519368     -0.54694258909372
