13
Coordinates from ORCA-job run
  C   0.83046083201054     -0.53907603063407      0.11008385772737
  C   -0.49313298939945      0.11404268492701     -0.39684325012566
  Cl  1.25343997470970     -1.99354058918318     -0.84466207817450
  H   -0.33177907714829      0.36467998567783     -1.45042459311254
  H   0.68315131531908     -0.87296874952070      1.14153849235420
  C   1.93225723380064      0.41456472444958      0.05653266051578
  N   2.77283855173188      1.23288045842312     -0.00542930763139
  N   -0.77816956579043      1.33417838859134      0.32120112972444
  H   -0.75561869041459      1.19307240358245      1.32468567438156
  H   -0.12256049550072      2.06655965477285      0.08438887667337
  N   -1.63422904349809     -0.76566467543361     -0.30788807648344
  H   -1.93375563026870     -0.86907371216629      0.65413145019530
  H   -1.42390241555154     -1.67965454348634     -0.68731483604446
