13
Coordinates from ORCA-job run
  C   0.97399311858031     -0.60338913076769     -0.23532967175380
  C   -0.51905306850857     -0.23320152088253     -0.40522723408113
  Cl  1.90340212476000     -0.18487963823325     -1.70176997424178
  H   -0.86203004898649     -0.78523336971377     -1.28579595730838
  H   1.05582823189818     -1.68170806257441     -0.09575778350244
  C   1.52680892120499      0.08959351561075      0.92263157343344
  N   1.88301015863162      0.68151963245359      1.87270334166326
  N   -0.79646491789308      1.16815281774984     -0.63668806046315
  H   -0.43187080543969      1.73714009879660      0.12037047094249
  H   -0.38456036685187      1.48895551925982     -1.50478075559757
  N   -1.19468108190302     -0.77290607314987      0.75558855700652
  H   -0.96169930106595     -0.22566439160264      1.57883600921270
  H   -2.19368296442642     -0.67937939694644      0.61321948468983
