13
Coordinates from ORCA-job run
  C   0.90484177502216     -0.57142196180624      0.19022981452194
  C   -0.41000298387181     -0.03465969493921     -0.42341091107641
  Cl  1.50069817708589     -2.01577668601682     -0.66607479208590
  H   -0.23875692326880      0.07422814151055     -1.49859477559494
  H   0.72036013429732     -0.86948074899181      1.22782107020651
  C   1.93529012203398      0.46342287404525      0.17562402136844
  N   2.73086300992804      1.32686219255593      0.14697091214396
  N   -0.79003084029397      1.27126269074069      0.09131005844812
  H   -0.12121574289187      1.98931282505904     -0.16153989406798
  H   -0.87879560674515      1.25610819371477      1.10142784395745
  N   -1.42813070787611     -1.03820137129178     -0.22992320470704
  H   -1.65818906554735     -1.11368081694764      0.75572447836835
  H   -2.26793134787215     -0.73897563763257     -0.71056462148218
