13
Coordinates from ORCA-job run
  C   0.87640273282979     -0.55619116640698      0.42334411192006
  C   -0.28726108536216      0.08834729787326     -0.34368814755840
  Cl  1.34285188539171     -2.13121367123512     -0.29409896103958
  H   0.06515967909546      0.28210118493240     -1.36739227799768
  H   0.54157798729434     -0.76169674601760      1.44292019077557
  C   2.03705465276671      0.32641951345053      0.44205181157862
  N   2.98823607328468      1.01405294775363      0.44029122396793
  N   -0.54922668269970      1.35745463948606      0.29281735547016
  H   -1.21892570473859      1.22333301015239      1.04099550720022
  H   -0.90714856994293      2.04092556026356     -0.35912401979099
  N   -1.44119434926167     -0.79606900247286     -0.26169718462100
  H   -2.20721948568984     -0.38484743859406     -0.78238865090893
  H   -1.23930713296782     -1.69961612918523     -0.67403095899597
