13
Coordinates from ORCA-job run
  C   1.01617434687266     -0.61372962463693     -0.12018377542576
  C   -0.45343825832592     -0.23354209444296     -0.33589010372645
  Cl  1.97404491266183     -0.39198578493379     -1.61664152032132
  H   -0.82559135330103     -0.89609209705785     -1.13180087103339
  H   1.05358657922307     -1.67498554395308      0.12607556575828
  C   1.60115623773918      0.15444681490158      0.97409495643339
  N   2.05146388004625      0.74749174179201      1.88149558591797
  N   -0.54471700590173      1.18394555322893     -0.64173287488292
  H   -0.02971505499182      1.41180347683478     -1.48444148807218
  H   -1.51446792164074      1.43536349265753     -0.79112081069412
  N   -1.14929649401048     -0.57970168882965      0.88298651673909
  H   -1.04213326082673      0.17810202657103      1.54927388332165
  H   -2.13606660754453     -0.71911627213160      0.70988493598576
