13
Coordinates from ORCA-job run
  C   0.84244369623547     -0.58545199100677      0.10053940339401
  C   -0.55404120335744      0.07917041799085      0.33273462582147
  Cl  1.06898835130561     -1.00613337670365     -1.62257751308138
  H   -0.58760186670727      0.27925207626230      1.41118593010348
  H   0.90911305518944     -1.52379592453600      0.65790860590672
  C   1.90475950294450      0.31107382210021      0.53818201905978
  N   2.70048931651935      1.08350990593141      0.92557351644425
  N   -1.65453248263316     -0.79523677462955     -0.00576257119840
  H   -1.46064580946777     -1.75756884416374      0.24283758976427
  H   -1.84442043370180     -0.75053046275189     -0.99845788693944
  N   -0.71627199885770      1.33472040692679     -0.35280108903554
  H   -0.17984740695799      2.06770230098285      0.09083681020738
  H   -0.42743272051124      1.26328844359718     -1.32119944044660
