13
Coordinates from ORCA-job run
  C   0.86691237019047     -0.58778542411534      0.19622329798583
  C   -0.39118157293151      0.13068607438083     -0.35036465568788
  Cl  1.34533752350085     -1.92756746902435     -0.88450891804764
  H   -0.15323249370930      0.46419594265927     -1.37142718962374
  H   0.61671032974717     -1.01911265335022      1.16766805725498
  C   1.97928657751580      0.34302190229177      0.34480934170901
  N   2.83015987729670      1.14672718683779      0.44455655231083
  N   -0.69465420457369      1.19109218681547      0.59138661469631
  H   -0.01752651823548      1.94221293547341      0.53308841681574
  H   -1.60645497905416      1.56272634122209      0.35292967371515
  N   -1.56363483155063     -0.70209010634005     -0.42880690475164
  H   -1.77857452639498     -1.07852822141995      0.48779221123765
  H   -1.43414755180125     -1.46357869543072     -1.08134649761460
