13
Coordinates from ORCA-job run
  C   0.86813136865354     -0.63576213504505     -0.31674999993632
  C   -0.54782805854820     -0.02657536787497     -0.37697377672016
  Cl  1.80750245060317     -0.24027246638356     -1.79102002382686
  H   -1.01882249972126     -0.44352363870884     -1.28144585656580
  H   0.78476361621915     -1.72512853436600     -0.29913831875340
  C   1.58046481908861     -0.19211447272162      0.87670316971672
  N   2.12139355704851      0.12742780123127      1.86849349478000
  N   -0.43622254194801      1.41318306666919     -0.35762351165735
  H   -1.36906461236075      1.80466683971653     -0.31934137097924
  H   0.03078185984706      1.75802367231910     -1.18626990207437
  N   -1.36395076361014     -0.39372566207861      0.75482834242733
  H   -1.51134176390083     -1.39260817932096      0.81492647992479
  H   -0.94480743137085     -0.05259092343647      1.61261127366467
