13
Coordinates from ORCA-job run
  C   0.98170706283671     -0.60345583862200      0.15906973202275
  C   -0.43970871260656     -0.02368666844851      0.23540327911012
  Cl  1.37777983712444     -1.19565153088804     -1.47526344546899
  H   -0.59177285397351      0.20111171774507      1.30399139803376
  H   1.02040470581043     -1.46739930697222      0.82404842042989
  C   1.96488694826053      0.39057648562153      0.57940433526171
  N   2.70347681598126      1.22956628891144      0.93991688979749
  N   -1.37589408094745     -1.06612760592531     -0.10772333972420
  H   -1.40710778771805     -1.15948049465234     -1.11689185568706
  H   -2.30323019293039     -0.82917183215450      0.22042178537890
  N   -0.54298212462075      1.13828780054242     -0.63221554336380
  H   0.09602145815180      1.87338502061304     -0.34751330981761
  H   -1.48358107536846      1.51004596422941     -0.58164834597298
