13
Coordinates from ORCA-job run
  C   1.01846461961592     -0.70047082580896     -0.06087728220203
  C   -0.39773372900352     -0.24754778783681     -0.45187671677463
  Cl  2.13374247020620     -0.68810089725032     -1.44541212138500
  H   -0.70145365601062     -0.88057937012284     -1.29047383413482
  H   0.95776943015020     -1.72637765937561      0.30232499598679
  C   1.52208854429931      0.15491482182872      1.01125710724837
  N   1.84257595897663      0.87645261117998      1.88102412715703
  N   -0.35721679014709      1.11811722429908     -0.92780547408388
  H   -1.22618770165285      1.36340025431558     -1.38388679583896
  H   -0.20461487459080      1.76440671692193     -0.16099555642179
  N   -1.25451582736655     -0.58507328223656      0.68053940779586
  H   -2.22778996655046     -0.52166556615922      0.40632140397885
  H   -1.10712847792639      0.07352376024503      1.43886073867421
