13
Coordinates from ORCA-job run
  C   0.95720770572362     -0.66287784936017     -0.11695064533359
  C   -0.50693059475875     -0.25382156069013     -0.40797928956935
  Cl  1.97968221230074     -0.43733935643033     -1.56337626502957
  H   -0.82814450222228     -0.88008232855397     -1.24599633038914
  H   0.98353652616857     -1.72275938067470      0.13791691800185
  C   1.47822873781080      0.12669350198139      0.99318737863398
  N   1.80774784709046      0.80248355412858      1.89574713425418
  N   -0.70792253042863      1.12576322039364     -0.79571357788886
  H   -0.23898719306868      1.33798891340118     -1.66811080757767
  H   -0.35671298945099      1.75541503262895     -0.08168102075458
  N   -1.26583845183935     -0.64293861395562      0.76157969342326
  H   -1.05015209495742     -0.02403082426608      1.53733330192033
  H   -2.25071467236809     -0.52349430860275      0.55504351030915
