13
Coordinates from ORCA-job run
  C   0.83462831626433     -0.63745213239856     -0.28752191419451
  C   -0.62177485352666     -0.08876855028547     -0.42952533955656
  Cl  1.79198528293657     -0.32079546365453     -1.76516352399880
  H   -1.03052138580346     -0.56245636882799     -1.32843128923831
  H   0.81282626163198     -1.72328081696642     -0.16665353582395
  C   1.47371402367696     -0.02869419946360      0.87259075901648
  N   1.90347877029955      0.50644044886556      1.82597794727042
  N   -0.69731601472612      1.33782189607457     -0.60321022439474
  H   -0.30214488921423      1.82304972915529      0.19493354223962
  H   -0.19633824655597      1.62718810763200     -1.43270452782395
  N   -1.43252621515394     -0.47274021747933      0.70378548725510
  H   -1.13899076327712      0.00806928453337      1.54623795685831
  H   -1.39602028655190     -1.47038171718489      0.86968466239089
