13

C	-0.594631	-0.11706	-1.389431
C	0.0	0.0	0.0
F	-0.456558	1.055024	-2.113711
H	1.08975	0.0	0.0
H	-1.66409	-0.339837	-1.311473
H	-0.075403	-0.921166	-1.911627
N	-0.452262	-1.120225	0.767717
H	-1.380221	-0.941187	1.130941
H	0.189886	-1.284857	1.531772
N	-0.489951	1.324016	0.566899
O	-1.616712	1.316822	1.077952
O	0.216643	2.31423	0.439421
Br	3.538304	0.0	0.0
