13

C	-0.533981	-0.018428	-1.416463
C	0.0	0.0	0.0
F	-0.31016	1.189452	-2.055101
H	1.089408	0.0	0.0
H	-0.016804	-0.806624	-1.968711
H	-1.614631	-0.193618	-1.407207
N	-0.43146	-1.137705	0.763108
H	0.315022	-1.814466	0.823808
H	-1.284469	-1.555016	0.418057
N	-0.555273	1.234371	0.661217
O	-1.786174	1.283263	0.732887
O	0.211597	2.090525	1.081437
Br	3.535178	0.0	0.0
