13

C	-0.540777	0.190761	-1.404149
C	0.0	0.0	0.0
F	-0.330933	-0.992248	-2.113158
H	1.089796	0.0	0.0
H	-0.01727	0.992912	-1.918029
H	-1.616792	0.376569	-1.382494
N	-0.579144	-1.183022	0.605995
H	-0.028782	-1.402791	1.428667
H	-0.421365	-1.934715	-0.055737
N	-0.399994	1.18233	0.825818
O	-0.648073	2.23729	0.237391
O	-0.41237	1.038849	2.043412
Br	3.495918	0.0	0.0
