16

C	-0.477163	-0.052231	-1.441487
C	0.0	0.0	0.0
F	0.17983	-0.969173	-2.191456
H	1.089268	0.0	0.0
N	-1.860681	-0.26302	-1.57628
H	-2.145028	-0.099413	-2.535475
H	-2.383348	0.326357	-0.940605
N	-0.050452	1.285063	-2.146904
O	0.701412	2.062418	-1.574991
O	-0.500678	1.41574	-3.284728
N	-0.330462	-1.226504	0.722451
O	-0.099012	-2.290845	0.139869
O	-0.65136	-1.125869	1.916776
C	-0.566754	1.14226	0.679217
N	-1.034065	2.092366	1.194431
H	2.385269	0.0	0.0
