16

C	-0.610134	0.015599	-1.384962
C	0.0	0.0	0.0
F	-1.989689	-0.157972	-1.305817
H	1.092619	0.0	0.0
N	-0.265349	1.176593	-2.099133
H	-0.826755	1.233486	-2.938574
H	-0.366962	2.012245	-1.539151
N	-0.132296	-1.135506	-2.270715
O	0.905093	-1.70527	-1.979018
O	-0.812609	-1.317174	-3.277317
N	-0.398223	-1.151952	0.788829
O	-0.76937	-2.177184	0.199088
O	-0.195684	-1.066458	2.010124
C	-0.377047	1.215055	0.688715
N	-0.627304	2.263123	1.163145
H	2.360615	0.0	0.0
