16

C	-0.497207	-0.055579	-1.434472
C	0.0	0.0	0.0
F	0.162452	-0.962062	-2.197201
H	1.089307	0.0	0.0
N	-1.879455	-0.281645	-1.549912
H	-2.395537	0.300817	-0.904148
H	-2.17926	-0.11176	-2.502977
N	-0.094314	1.288484	-2.14167
O	-0.615783	1.453031	-3.245349
O	0.715886	2.034078	-1.60848
N	-0.321916	-1.219299	0.7359
O	-0.565755	-1.109715	1.94713
O	-0.155429	-2.289809	0.142317
C	-0.553634	1.148254	0.679286
N	-1.00908	2.107297	1.188777
H	2.381044	0.0	0.0
