16

C	-0.334143	0.129995	-1.48815
C	0.0	0.0	0.0
F	-1.630838	0.507381	-1.669875
H	1.093502	0.0	0.0
N	0.523699	1.064473	-2.134028
H	1.475505	0.867258	-1.805103
H	0.269249	1.992702	-1.8124
N	-0.156439	-1.194961	-2.236514
O	1.001178	-1.54505	-2.407049
O	-1.165392	-1.75895	-2.634508
N	-0.458252	-1.175973	0.721035
O	-0.405978	-2.256366	0.122294
O	-0.735603	-1.045701	1.919747
C	-0.415884	1.217022	0.662521
N	-0.697096	2.255888	1.136014
H	2.420044	0.0	0.0
