16

C	-0.463664	-0.042334	-1.447964
C	0.0	0.0	0.0
F	0.327335	-0.925883	-2.153563
H	1.088738	0.0	0.0
N	-1.839884	-0.271693	-1.620052
H	-2.045789	-0.329004	-2.610478
H	-2.061763	-1.14931	-1.164157
N	-0.154072	1.288245	-2.149557
O	0.51236	2.13342	-1.563875
O	-0.571308	1.364788	-3.303927
N	-0.326702	-1.213449	0.716334
O	-0.622736	-2.240338	0.068921
O	-0.09844	-1.200319	1.937507
C	-0.497033	1.13508	0.741613
N	-0.88291	2.060239	1.357516
H	2.350155	0.0	0.0
