16

C	0.0	0.0	0.0
C	-0.391521	0.019542	-1.523833
Cl	1.787535	0.0	0.0
H	-1.44897	0.264582	-1.52807
C	-0.552274	1.231672	0.598753
N	-0.536709	2.294523	1.123548
C	-0.608062	-1.118697	0.730802
N	-0.633109	-2.067161	1.44366
N	-0.345207	-1.349744	-2.122854
O	0.668005	-2.031111	-1.979139
O	-1.332892	-1.689869	-2.776293
C	0.404774	0.971902	-2.39417
H	1.42685	0.633497	-2.558879
H	0.429161	1.953739	-1.915628
H	-0.106084	1.066418	-3.356307
H	-2.188086	0.0	0.0
