16

C	0.0	0.0	0.0
C	-0.326679	0.039409	-1.55366
Cl	1.786115	0.0	0.0
H	-1.412124	0.104244	-1.59377
C	-0.589209	1.218728	0.5774
N	-0.550136	2.311011	1.042518
C	-0.611695	-1.180648	0.625606
N	-0.644235	-2.231347	1.176031
N	-0.007383	-1.280445	-2.197563
O	1.104263	-1.43759	-2.705977
O	-0.902552	-2.126724	-2.199723
C	0.345247	1.166054	-2.3123
H	-0.112736	1.258302	-3.30253
H	1.410193	0.994611	-2.438942
H	0.196465	2.104327	-1.771517
H	-2.15056	0.0	0.0
