16

C	0.0	0.0	0.0
C	-0.202014	-0.009402	-1.573701
Cl	1.790188	0.0	0.0
H	0.302119	-0.914431	-1.901438
C	-0.546194	1.147029	0.711339
N	-0.681857	2.17649	1.275224
C	-0.475685	-1.280345	0.544715
N	-0.718471	-2.273858	1.136572
N	0.574958	1.093823	-2.25093
O	0.453053	2.232644	-1.807541
O	1.189779	0.788557	-3.264351
C	-1.552742	0.085262	-2.251823
H	-2.085558	0.979632	-1.95588
H	-1.365113	0.090041	-3.329489
H	-2.158014	-0.778506	-1.981798
H	-2.033282	0.0	0.0
