16

C	0.0	0.0	0.0
C	-0.263751	0.101214	-1.551467
Cl	1.792548	0.0	0.0
H	0.503325	0.778885	-1.932209
C	-0.450968	1.186953	0.730101
N	-0.516485	2.165546	1.387948
C	-0.658458	-1.181881	0.556295
N	-0.673187	-2.271062	1.035794
N	-1.523888	0.817014	-1.971914
O	-2.360378	0.210258	-2.639767
O	-1.535353	2.030636	-1.764077
C	-0.178545	-1.256511	-2.210673
H	-1.022493	-1.8733	-1.90633
H	0.748471	-1.746345	-1.910496
H	-0.19238	-1.149716	-3.296332
H	-1.988908	0.0	0.0
