16

C	0.0	0.0	0.0
C	-0.397294	-0.012429	-1.508727
Cl	1.787315	0.0	0.0
H	-1.496082	-0.0981	-1.440907
C	-0.549085	1.222981	0.603957
N	-0.571002	2.291786	1.114443
C	-0.520921	-1.153549	0.750236
N	-0.543735	-2.139747	1.402033
N	0.051079	-1.228669	-2.241148
O	-0.226393	-1.252118	-3.444463
O	0.5756	-2.159851	-1.632846
C	-0.00209	1.24119	-2.26144
H	-0.46151	2.101167	-1.774159
H	-0.375275	1.178046	-3.281628
H	1.078493	1.382596	-2.285165
H	-2.286131	0.0	0.0
