15

C	0.0	0.0	0.0
C	-0.472264	0.156473	-1.440352
Br	2.04794	0.0	0.0
H	-1.537427	0.408547	-1.345429
H	0.068753	0.99265	-1.889403
C	-0.293211	1.204672	0.78411
N	-0.464602	2.181616	1.413463
N	-0.519667	-1.119317	0.621059
H	-0.471108	-1.157496	1.624049
H	-0.382592	-1.99807	0.152259
C	-0.321593	-1.113494	-2.265076
H	-0.513256	-0.89477	-3.318205
H	-1.062705	-1.853325	-1.954441
H	0.684639	-1.536718	-2.187595
Br	-3.868329	0.0	0.0
