15

C	0.0	0.0	0.0
C	-0.526453	-0.07912	-1.424881
Br	2.040782	0.0	0.0
H	-0.179236	-1.029539	-1.847545
H	-1.617866	-0.128958	-1.28985
C	-0.277949	1.303306	0.620063
N	-0.45119	2.347492	1.130059
N	-0.511761	-1.025561	0.781582
H	-0.571151	-1.924933	0.332822
H	-0.216238	-1.054977	1.743553
C	-0.147668	1.087661	-2.321626
H	-0.600447	0.948322	-3.306728
H	-0.534039	2.02481	-1.913301
H	0.934213	1.177105	-2.446185
Br	-3.972112	0.0	0.0
