15

C	0.0	0.0	0.0
C	-0.454125	-0.275052	-1.442864
Br	1.976331	0.0	0.0
H	-1.520469	-0.023636	-1.458805
H	0.079431	0.405414	-2.112575
C	-0.339529	1.388107	0.354384
N	-0.545587	2.510233	0.633937
N	-0.497739	-0.873929	1.02093
H	-0.3132	-1.833052	0.746873
H	-1.518938	-0.739159	1.028652
C	-0.270822	-1.723496	-1.873879
H	-0.478623	-1.818544	-2.942614
H	0.747599	-2.080443	-1.697017
H	-0.977894	-2.371752	-1.352427
Br	-3.720162	0.0	0.0
