15

C	0.0	0.0	0.0
C	-0.332164	-0.492705	-1.415276
Br	2.040291	0.0	0.0
H	0.323339	0.028415	-2.116049
H	-0.046594	-1.55089	-1.44131
C	-0.295373	1.427862	0.151961
N	-0.536041	2.571754	0.269807
N	-0.578717	-0.774829	1.020899
H	-1.139729	-1.526547	0.644498
H	-1.134072	-0.236849	1.670515
C	-1.78738	-0.289787	-1.805703
H	-1.949291	-0.702392	-2.805923
H	-2.046633	0.768787	-1.832532
H	-2.511369	-0.742812	-1.131979
Br	-4.781931	0.0	0.0
