15

C	0.0	0.0	0.0
C	-0.461752	-0.380551	-1.409883
Br	1.976077	0.0	0.0
H	-0.035081	-1.367723	-1.625118
H	-1.548626	-0.48471	-1.315008
C	-0.354462	1.392658	0.321723
N	-0.560859	2.521651	0.572707
N	-0.480818	-0.857278	1.048347
H	-1.496386	-0.698906	1.090109
H	-0.34069	-1.819513	0.754638
C	-0.128877	0.615039	-2.512043
H	-0.611974	1.574572	-2.315807
H	0.946758	0.77707	-2.611484
H	-0.50963	0.243737	-3.46763
Br	-3.724146	0.0	0.0
