13
Coordinates from ORCA-job run
  C   0.92637274853120     -0.96979397034807     -0.13218116414405
  C   -0.08535836537858      0.14471541474737     -0.30941645931520
  Cl  2.33776071665596     -0.75350263573758     -1.21491250279814
  H   -0.36681733841825      0.17146850811100     -1.37453186326621
  H   1.30218895975729     -0.96505289863097      0.89121579926268
  H   0.49049737420560     -1.93844103772994     -0.37623913786205
  N   0.50060487715371      1.39602509981553      0.16074180015698
  H   -0.17091906914544      2.14673925422514      0.05018896634153
  H   1.30848375022894      1.63067967031306     -0.40452965599327
  C   -1.32468843643675     -0.16337377776749      0.51992427592827
  H   -1.78830268473938     -1.10318581610010      0.21059602860437
  H   -2.06904148841521      0.62880262102887      0.40193728346694
  H   -1.06078104399909     -0.22208043192682      1.57820662961815
