13
Coordinates from ORCA-job run
  C   1.06224299819719     -0.85692284602446     -0.16659588631451
  C   -0.07094562499882      0.14449993290777     -0.33612853030579
  Cl  0.59931808463602     -2.48721826321290     -0.73274649700412
  H   -0.43403908634792      0.07214065480102     -1.37277037798209
  H   1.34205363454520     -0.92805540671713      0.88428547564751
  H   1.93287468666296     -0.55543660274728     -0.75038863933937
  N   0.49827847063390      1.45371969160488     -0.01244352123558
  H   -0.24432371830893      2.13308846764532      0.10209854506568
  H   1.08783637009541      1.77759300653792     -0.77057399695593
  C   -1.22549663349632     -0.13999737916473      0.60889713109295
  H   -0.88462391771800     -0.04225019836551      1.64295181316075
  H   -2.03861434219542      0.57316455713924      0.44678463759979
  H   -1.62456092170526     -1.14332561440415      0.45862984657073
