13
Coordinates from ORCA-job run
  C   0.97639582959656     -0.97719161964229     -0.32376753350817
  C   -0.06413138381149      0.12223773681978     -0.44523051758586
  Cl  1.68750033245820     -1.05671348220435      1.32024851314189
  H   -0.41402484045372      0.05738950080127     -1.48432500806355
  H   0.53920331371713     -1.95534638800114     -0.52507402090444
  H   1.79742675516243     -0.77879157635354     -1.01081565488999
  N   0.59544903738387      1.41790644541227     -0.30869115225233
  H   -0.07325878046697      2.15924299752436     -0.48128190923064
  H   0.92455623635101      1.52769064786342      0.64430342686071
  C   -1.26219496647455     -0.09273135632047      0.47827944116250
  H   -0.96185937572459     -0.01958396357788      1.52538955218374
  H   -1.72237605056667     -1.07315418596941      0.32171452415986
  H   -2.02168610717121      0.67004524364799      0.28825033892628
