13
Coordinates from ORCA-job run
  C   0.94343080151404     -0.88169052140259     -0.35248750360524
  C   -0.16946190489471      0.16551074687440     -0.40942037607873
  Cl  1.72406709409272     -0.95349819560360      1.25666373109722
  H   -0.54695892194009      0.11655467058131     -1.44000821452473
  H   0.55544663572088     -1.87942158028760     -0.56553196360169
  H   1.73010148605759     -0.64174511326240     -1.06988146539775
  N   0.26264994671026      1.53754952452763     -0.18194180420502
  H   0.64890412569083      1.61909327798580      0.75189181017987
  H   0.99496180963929      1.79240844061678     -0.83497506602812
  C   -1.31851322668713     -0.16145217697780      0.53252278986787
  H   -0.99721546570251     -0.09895968446061      1.57458831420734
  H   -1.70090675105243     -1.17013074323406      0.35729064591285
  H   -2.12550562914874      0.55578135464276      0.38028910217613
