15

C	-0.589062	0.012523	-1.508738
C	0.048305	0.020073	-0.130739
Br	0.041977	-1.53807	-2.579854
H	1.140842	0.002196	-0.156653
H	-0.207028	0.993181	0.314722
N	-2.030512	-0.093413	-1.43319
H	-2.362043	0.56769	-0.738748
H	-2.45723	0.118831	-2.328121
C	-0.164296	1.191208	-2.285323
N	0.075941	2.172507	-2.888108
C	-0.395787	-1.111439	0.781768
H	-0.321563	-2.072956	0.269429
H	0.318051	-1.12484	1.610387
H	-1.417763	-0.99687	1.153847
H	2.754667	-0.235575	0.967929
