15

C	-0.585548	0.05157	-1.515253
C	0.05388	0.024925	-0.138307
Br	0.028356	-1.483833	-2.61819
H	1.146203	0.000159	-0.165587
H	-0.192633	0.990385	0.328156
N	-2.027531	-0.040376	-1.4392
H	-2.453934	0.198702	-2.32748
H	-2.350729	0.605717	-0.726977
C	-0.149496	1.240632	-2.26982
N	0.096559	2.226681	-2.862386
C	-0.397473	-1.120824	0.752369
H	0.315378	-1.150672	1.581521
H	-0.325941	-2.073292	0.222916
H	-1.419822	-1.008132	1.123912
H	2.73951	-0.263396	1.013266
