14
Coordinates from ORCA-job run
  C   -0.57162602036201     -0.59326064306054      0.47845967188992
  C   0.29049372702187      0.37058903182041     -0.40503514605408
  Cl  -0.68518176648244     -0.05218381406841      2.17354024643564
  H   0.17631105827543      0.03426815392994     -1.43800085093811
  C   -0.06737830644949     -1.96380939943328      0.40596502956028
  N   0.32391879288181     -3.06502514474972      0.27634394368837
  C   -1.91802683975283     -0.53963735778053     -0.10199988099809
  N   -2.97153068695778     -0.44747771499706     -0.61495998437754
  N   1.76878685430275      0.16787376268342     -0.11039675210191
  O   2.52270142685969      0.49629480574533     -1.01644900399358
  O   2.08697462638561     -0.25267937707148      0.99827858878956
  N   -0.01598389584992      1.74467725102186     -0.30714757553913
  H   -0.22777203184307      2.05163351120271      0.63136797337326
  H   -0.71168693802965      2.04873693475735     -0.96996625973458
