14
Coordinates from ORCA-job run
  C   -0.52548829951773     -0.58181087273172      0.54888289470636
  C   0.23970847462871      0.36846171210185     -0.39947443807903
  Cl  -0.31148412139733     -0.16718451462117      2.27223132668885
  H   -0.04433075808100      0.08930292687178     -1.42189935067079
  C   -0.12484015988015     -1.96783619479547      0.30376021674235
  N   0.20296518540597     -3.06758342127854      0.05062747173096
  C   -1.95052240014226     -0.43081674834181      0.22513527362895
  N   -3.10001079238560     -0.38715537948618     -0.01757425976858
  N   1.73284103466374      0.09791300630834     -0.36780472558787
  O   2.22152358884322     -0.45728793830391      0.60844137061016
  O   2.33178143497326      0.52687168187303     -1.34783148302391
  N   0.05384837138923      1.74116902952111     -0.06985705872638
  H   0.03114458526540      2.32417780866673     -0.89401960296198
  H   -0.75613614376544      1.91077890421596      0.50938236471089
