14
Coordinates from ORCA-job run
  C   -0.52524883593360     -0.90200175587463      0.06133930544607
  C   0.22007289586775      0.32091404891468     -0.52326178004702
  Cl  -0.27097760346397     -2.34130027337424     -0.96589884753674
  H   0.02615895932981      0.34468595250787     -1.60530759642030
  C   -1.95366781612692     -0.57045915748283      0.01516351757341
  N   -3.08223871551341     -0.25144041739085     -0.06336234382455
  C   -0.13914073737139     -1.16977852344051      1.44702879695140
  N   0.11698349320348     -1.39206431406852      2.57187298826292
  N   1.72128623424202      0.16396833553088     -0.40324579561706
  O   2.35888211307945      1.13969030814082     -0.78575837567690
  O   2.18043365512744     -0.88494172455415      0.02798497735461
  N   -0.13105523306360      1.49381329455126      0.22646217386028
  H   0.53440631263273      2.23152935692173      0.02567760337687
  H   -1.05589472200979      1.81838486961848     -0.02969462370300
