14
Coordinates from ORCA-job run
  C   -0.63960921042152     -0.78822503747045      0.04800183731860
  C   0.37981666124501      0.22889502129671     -0.50371600578822
  Cl  -1.67155383360732     -1.27868912534541     -1.34675995850450
  H   0.99945685762024     -0.28721331014536     -1.25172091524955
  C   -1.49600724306146     -0.19701689554714      1.07423000523495
  N   -2.21593380420993      0.25071182210948      1.88749191812627
  C   0.03393709255093     -1.99305090049378      0.53335904326412
  N   0.57676909147764     -2.98268896566791      0.86030518279650
  N   1.34422855648661      0.63965332537266      0.58762448455882
  O   2.20065877309450      1.44027646540466      0.23052020224087
  O   1.20615157747066      0.16331881977428      1.70884852881915
  N   -0.27368973804362      1.43384470765318     -0.92239091278861
  H   0.42730305186401      2.11634858273257     -1.18663514068308
  H   -0.87152783246575      1.25583549032650     -1.71915826934531
