12
Coordinates from ORCA-job run
  C   0.49406294843895      0.50543724600958     -0.17725018925282
  C   -0.48608078251466     -0.57909979447861      0.20747542925115
  Br  0.46224976776796      0.85004564065731     -2.07139687331731
  H   -0.36373594590426     -1.47798985317843     -0.38915274115920
  H   0.29659226147219      1.44236663608670      0.33662141729693
  H   -0.38962317019449     -0.80747489425428      1.27215889936627
  N   1.88205062686213      0.07744010337790      0.21278138412937
  O   2.15278031813331     -1.11297775451297      0.08676868532632
  O   2.62763886882422      0.96180670359778      0.61824583034359
  N   -1.87910187989650     -0.07633614560741      0.00771993095708
  O   -2.66068369765617     -0.81495900344317     -0.58087682680349
  O   -2.13414931533269      1.02974111574561      0.47690505386210
