12
Coordinates from ORCA-job run
  C   0.60494074405275      0.71015910604414      0.02264377553117
  C   -0.61531964932421      0.15621919532093      0.72050650994091
  Br  0.14731852701663      1.87001819148373     -1.43076417219420
  H   -0.30830122164260     -0.54714318388705      1.49599048006289
  H   1.18754381061529      1.29141034089924      0.73901828535337
  H   -1.21679669549863      0.95645553512526      1.14663859506796
  N   1.54917017373501     -0.41557408334292     -0.39358738245038
  O   1.99061444317724     -0.45279733347593     -1.52621576860499
  O   1.81568380330707     -1.17500704311179      0.53188869113147
  N   -1.50163534481614     -0.60024721392292     -0.21474597965601
  O   -2.70972033908660     -0.49310337423645     -0.03771256660249
  O   -0.94349825153582     -1.30039013689622     -1.05366046757969
