12
Coordinates from ORCA-job run
  C   0.58709566232029      0.74502354908818      0.16534833074388
  C   -0.64726585254834      0.05509632043531      0.71690055033138
  Br  0.24013861389136      2.13795118594797     -1.10802431659381
  H   -0.33409443141191     -0.68371615637562      1.45605951237105
  H   1.14173036714039      1.18504089310610      0.99194389110107
  H   -1.31210784045452      0.79578286999383      1.16031954408638
  N   1.51604560226831     -0.28603441417338     -0.43115486309194
  O   1.16527602253368     -0.82151239607063     -1.47359573329782
  O   2.52970522677847     -0.52189453597754      0.22071759855946
  N   -1.43401538884873     -0.68534340419894     -0.31540353960443
  O   -1.30467444596100     -1.90663564372348     -0.33177182447603
  O   -2.14883353570799     -0.01375826805180     -1.05133915012919
