12
Coordinates from ORCA-job run
  C   0.50873009843742      0.44191299837994     -0.27489491322503
  C   -0.50407334955736     -0.50962790564976      0.31991904740592
  Br  0.46088167401347      0.41651452943217     -2.19964443975602
  H   -0.40000666522734     -0.53147639860445      1.40783043444558
  H   0.35328542041601      1.46724315217812      0.04990303101694
  H   -0.42380026872294     -1.51073048439179     -0.09259761231593
  N   1.88683544470359      0.04540838383671      0.17855499229412
  O   2.10782961531435     -1.15539633946980      0.30358276279211
  O   2.67572952127703      0.96209357915750      0.37734124599914
  N   -1.88042462780385     -0.00090778559569      0.03725489335041
  O   -2.69711207980727     -0.80781325456185     -0.39262462787168
  O   -2.08787478304311      1.18377952528888      0.28637518586444
