12
Coordinates from ORCA-job run
  C   0.58828962388356      0.72298919855377      0.01218188432996
  C   -0.60256220123548      0.13778566463657      0.73592816426514
  Br  0.07123024077075      1.87034919984855     -1.43078940737800
  H   -0.25968207389725     -0.56561129135056      1.49623666491974
  H   1.17126664093232      1.31892900450179      0.71590734448734
  H   -1.21037886784010      0.92140475296453      1.18330873512328
  N   1.55038213342745     -0.37963387070749     -0.42482375420150
  O   1.95549513310989     -0.41621231116509     -1.57109949469602
  O   1.86718754152425     -1.12269742801260      0.49811861306182
  N   -1.49299270859604     -0.62942313994103     -0.18588081917195
  O   -0.93610484495154     -1.34112915685729     -1.01616531625025
  O   -2.70113061712781     -0.51675062247115     -0.01192261448956
