12
Coordinates from ORCA-job run
  C   0.46010075572080      0.78703585741302      0.01998040238938
  C   -0.83148247189698      0.16054347689705     -0.43288893904433
  Br  0.96187038091168      2.18093522482891     -1.21579390384391
  H   -0.73382338310466     -0.31377797837549     -1.40632333615478
  H   0.41366250244675      1.21453263971676      1.01725531167384
  H   -1.63222280719464      0.90091560331617     -0.45981905004478
  N   1.56781717812911     -0.23625177778201      0.05776835699673
  O   2.48091433753393     -0.00758180194572      0.83916231040753
  O   1.46831573675824     -1.19310339753642     -0.70244677533398
  N   -1.26883146357745     -0.90729620768029      0.52527831347380
  O   -2.18833754396804     -1.62071041876163      0.14821893600574
  O   -0.69698322175874     -0.96424122009036      1.61160837347476
