12
Coordinates from ORCA-job run
  C   0.60149037696104      0.67787484830838      0.09771793826460
  C   -0.84790089453544      0.38857570566884     -0.18726481368480
  Br  1.13678531922224      2.26348781858099     -0.86214962600002
  H   -1.02169811932155      0.18192749891091     -1.24045480565313
  H   0.82031199617911      0.82620747931423      1.15108423236992
  H   -1.47898808224770      1.21694304470523      0.13762411513125
  N   1.47494278795593     -0.46733229578479     -0.35066523345946
  O   2.54092483582644     -0.58889489759665      0.23715358547726
  O   1.05451337233176     -1.16230887889711     -1.26914099468009
  N   -1.30745063521262     -0.82107820588161      0.57109387702116
  O   -2.40173056449364     -1.26755941069024      0.25526830905782
  O   -0.57220039266559     -1.24784270663820      1.45873341615550
