12
Coordinates from ORCA-job run
  C   0.52245383866077      0.45598602507261     -0.22343324197546
  C   -0.51981902485099     -0.52482888276868      0.26287128558898
  Br  0.56355551078911      0.55172120203324     -2.14603203153825
  H   -0.42277485382561     -1.49826110763608     -0.20824547164801
  H   0.35683133419053      1.45985157188263      0.15830757078845
  H   -0.46569977694038     -0.61682234958691      1.35079109058315
  N   1.87641129642151      0.02153580819200      0.26733199439841
  O   2.65415265612926      0.91776642475046      0.57422840504758
  O   2.09075964490617     -1.18603031323990      0.31272341071019
  N   -1.88025972328779      0.00809505025033     -0.04939977122252
  O   -2.09538687792876      1.17634120528899      0.26286047319180
  O   -2.67922402426381     -0.76635463423867     -0.56400371392432
