15

C	-0.699009	-0.003137	-1.512904
C	0.098899	-0.050966	-0.224734
F	-2.071388	0.019826	-1.239144
H	1.161033	-0.09131	-0.494049
H	-0.523467	-0.898072	-2.122556
C	-0.386731	1.183488	-2.32731
N	-0.141483	2.078067	-3.045798
C	-0.223766	-1.319055	0.565763
H	0.441176	-1.312448	1.432242
H	-0.057138	-2.23462	-0.016721
H	-1.265549	-1.304826	0.900857
N	-0.07531	1.179876	0.518714
H	-0.919052	1.099243	1.079079
H	0.737895	1.169699	1.182477
H	2.126326	0.537362	1.94898
