15

C	-0.698755	0.014153	-1.508353
C	0.099548	-0.049163	-0.221468
F	-2.071004	0.031446	-1.233625
H	1.161607	-0.085101	-0.491315
H	-0.522379	-0.871728	-2.130859
C	-0.387989	1.21181	-2.307408
N	-0.145024	2.102235	-3.031888
C	-0.222204	-1.325907	0.555142
H	0.443474	-1.329013	1.421075
H	-0.056717	-2.234962	-0.037751
H	-1.263578	-1.31524	0.891677
N	-0.074954	1.173518	0.535634
H	0.738819	1.156418	1.198555
H	-0.918358	1.086443	1.095554
H	2.128851	0.518331	1.955228
