13

C	-0.408517	0.029909	-1.470856
C	0.0	0.0	0.0
Br	-2.346076	0.310663	-1.676716
H	1.096638	0.0	0.0
H	0.06394	0.90644	-1.916636
C	-0.048894	-1.17776	-2.20117
N	0.207744	-2.153978	-2.802545
C	-0.504245	-1.201901	0.673435
N	-0.90383	-2.154739	1.233712
N	-0.38294	1.250914	0.639154
H	0.326682	1.481951	1.323911
H	-1.280394	1.173915	1.099318
Br	3.376421	0.0	0.0
