13

C	-0.347236	0.011882	-1.50248
C	0.0	0.0	0.0
Br	-2.289224	0.217836	-1.775616
H	1.097655	0.0	0.0
H	0.107163	0.902805	-1.944947
C	0.098578	-1.177457	-2.215789
N	0.432616	-2.139536	-2.804351
C	-0.516961	-1.221277	0.624848
N	-0.948865	-2.195314	1.121703
N	-0.421551	1.167163	0.741377
H	-1.38752	1.405262	0.542888
H	0.185162	1.94676	0.512248
Br	3.417636	0.0	0.0
