13

C	-0.314259	0.03157	-1.507362
C	0.0	0.0	0.0
Br	-2.216459	0.417086	-1.869725
H	1.097715	0.0	0.0
H	0.24029	0.864916	-1.944464
C	0.026393	-1.204562	-2.196734
N	0.272366	-2.203812	-2.764885
C	-0.56128	-1.200299	0.620136
N	-1.039696	-2.153606	1.112165
N	-0.382793	1.188791	0.732801
H	-1.271203	1.558934	0.420199
H	0.347291	1.882958	0.633052
Br	3.365776	0.0	0.0
