13

C	-0.491278	0.000346	-1.464842
C	0.0	0.0	0.0
Br	0.147281	-1.547982	-2.462169
H	1.095088	0.0	0.0
H	-1.583393	-0.069894	-1.487391
C	-0.100787	1.228364	-2.147855
N	0.142012	2.240628	-2.692554
C	-0.526515	-1.194876	0.66876
N	-1.005481	-2.126832	1.199482
N	-0.410457	1.192964	0.720803
H	0.272782	1.922189	0.5619
H	-1.332204	1.516954	0.453356
Br	3.409931	0.0	0.0
