13

C	-0.458047	-0.005577	-1.465043
C	0.0	0.0	0.0
Br	0.168092	1.60253	-2.380969
H	1.101096	0.0	0.0
H	0.020645	-0.838005	-1.985053
C	-1.907736	-0.087423	-1.603775
N	-3.070536	-0.18997	-1.736829
C	-0.468372	-1.247173	0.608469
N	-0.855379	-2.243236	1.096554
N	-0.577012	1.14609	0.710567
H	-0.483453	0.976178	1.70642
H	0.022618	1.940444	0.506079
Br	3.438837	0.0	0.0
