13

C	-0.405266	0.02029	-1.471498
C	0.0	0.0	0.0
Br	-2.342536	0.302419	-1.684124
H	1.09973	0.0	0.0
H	0.068989	0.892602	-1.923203
C	-0.047112	-1.193462	-2.192262
N	0.208924	-2.170995	-2.791675
C	-0.505449	-1.196967	0.68211
N	-0.911012	-2.129165	1.272207
N	-0.384698	1.25429	0.630533
H	0.311124	1.4786	1.331502
H	-1.293102	1.184781	1.070425
Br	3.377631	0.0	0.0
