13

C	-0.551368	0.037449	-1.433981
C	0.0	0.0	0.0
Br	0.067071	-1.475398	-2.492373
H	1.099698	0.0	0.0
H	-1.640753	-0.030284	-1.39351
C	-0.188518	1.282338	-2.099946
N	0.094652	2.280586	-2.650097
C	-0.4994	-1.196568	0.673282
N	-0.911082	-2.133324	1.250067
N	-0.522625	1.207185	0.671836
H	-0.584925	1.024231	1.667352
H	0.192897	1.922087	0.560195
Br	3.431092	0.0	0.0
