13

C	-0.477715	0.036676	-1.462373
C	0.0	0.0	0.0
Br	0.219332	1.596927	-2.386811
H	1.094045	0.0	0.0
H	-0.08036	-0.830474	-1.994699
C	-1.934723	0.051037	-1.543804
N	-3.109337	0.058055	-1.576335
C	-0.450484	-1.277233	0.578746
N	-0.849561	-2.265459	1.075397
N	-0.463108	1.157471	0.74024
H	0.265235	1.447398	1.380017
H	-1.311403	0.96549	1.256476
Br	3.41359	0.0	0.0
