14
Coordinates from ORCA-job run
  C   0.59012965816622     -0.45298410264300      0.21451793834642
  C   -0.72146860429842      0.27212812146609      0.54409917985880
  F   1.14982894730856     -0.79780809442488      1.44837734009009
  H   -0.45450455226732      1.18544406088150      1.08954565057475
  H   0.36122357591070     -1.39282674422332     -0.30042280662163
  C   1.58447815730629      0.37867115295070     -0.55768191609418
  H   2.51929430508652     -0.17244899856053     -0.66912867275937
  H   1.79388503819060      1.30802356665184     -0.02321880640465
  H   1.20179320345791      0.61981074744354     -1.55084086064008
  N   -1.65171245721368     -0.47930811268876      1.37497746403854
  H   -1.94925851688981     -1.31855861902234      0.89021837684551
  H   -1.16620938076914     -0.76350377176688      2.21752767370094
  C   -1.37974664556852      0.66852057561289     -0.70593471952009
  N   -1.87773272841992      0.94484021832315     -1.73203584141505
