14
Coordinates from ORCA-job run
  C   0.65082642503839     -0.45934523012940      0.26741305139097
  C   -0.72509397658699      0.18090998901124      0.44436774746890
  F   1.15891146795089     -0.62300635348759      1.56165051191868
  H   -0.56295080927116      1.16370497769307      0.91590372927582
  H   0.51553586555904     -1.46188162883899     -0.14768885337995
  C   1.62255967954063      0.36866795117116     -0.53556768982875
  H   1.28848011989706      0.46461808664986     -1.57005860933385
  H   2.60155551397814     -0.11245463816349     -0.53016060194397
  H   1.72562725538573      1.36530853217155     -0.10088349852193
  N   -1.56834734460813     -0.72123995112216      1.22026915310314
  H   -2.46361571971899     -0.28803903318822      1.41114420446719
  H   -1.10813040921663     -0.89710813269945      2.10533438694526
  C   -1.32946135799817      0.41296357897485     -0.87223431229024
  N   -1.80489670994979      0.60690185195759     -1.92748921927126
