14
Coordinates from ORCA-job run
  C   0.78327601853970      0.39731848687164      0.43954050150721
  C   -0.68132480591872     -0.02528283654022      0.60309729243388
  F   0.81568569131060      1.63880009524550     -0.17443558244208
  H   -0.68714405858436     -0.91929432125922      1.24442645951840
  H   1.22568069588802      0.52156618336651      1.43408452389403
  C   1.56971747918034     -0.58207333703861     -0.39647371998061
  H   2.60510097025588     -0.24997270536702     -0.48158733024333
  H   1.13288375694777     -0.63224855632388     -1.39274077931933
  H   1.56227970398728     -1.57725102166420      0.05466066641859
  N   -1.30409874629934     -0.26881207657463     -0.69901658990422
  H   -2.24446185921994      0.09763486801489     -0.73535294850164
  H   -1.34411969698820     -1.26022869859505     -0.88942396891466
  C   -1.41274000580960      1.01702550119435      1.33132811900871
  N   -2.02073514328942      1.84181841866995      1.90289335652503
