14
Coordinates from ORCA-job run
  C   0.65591511153135     -0.45782459092246      0.23973821543652
  C   -0.73238338794228      0.14647993849868      0.44448873011651
  F   1.14448590905176     -0.72262179688301      1.52486186188793
  H   -0.59336084441282      1.09034679720852      0.99594378034733
  H   0.54292177885940     -1.42365945083604     -0.26028913210054
  C   1.62867586833141      0.44807829423471     -0.47281281257670
  H   1.30762508262088      0.63225920378157     -1.49959493791573
  H   1.71388535440166      1.40308795690008      0.05045490032558
  H   2.61314670315804     -0.02129141336961     -0.49573465661060
  N   -1.57369792166976     -0.82708497413202      1.13050225192318
  H   -1.12736491611369     -1.06498142373162      2.00807641117566
  H   -2.48062436482856     -0.42582009061076      1.33586819954652
  C   -1.31890757272806      0.47563699046587     -0.85922821963054
  N   -1.78131680025934      0.74739455939607     -1.90327459192512
