17
Coordinates from ORCA-job run
  C   0.54834617244833      0.40832881713430      0.18952879231029
  C   -0.69082119954769     -0.41725896828703     -0.19590268929292
  Cl  0.05777563805328      2.12997539409487      0.45150259324167
  H   -0.34855230898076     -1.42171964786943     -0.45931083649513
  N   1.06608997964756     -0.07072797875290      1.44163721973486
  H   1.14498556443164     -1.08062210030068      1.45077047633662
  H   1.96763533693650      0.34665104759727      1.63468748420822
  C   1.53046180982453      0.40061712934225     -0.97473583805960
  H   2.39617331872548      1.01687208397759     -0.72302843711428
  H   1.87167512197427     -0.62497817754614     -1.14672047233260
  H   1.06989489883659      0.78271741663058     -1.88444769122354
  N   -1.41401704053819      0.15343805517830     -1.26978124082229
  H   -1.83462331506697      1.02962261849208     -0.98635110675363
  H   -2.13758268511406     -0.47338941244046     -1.59576409285968
  N   -1.53605901951235     -0.66171273223614      1.05600247887440
  O   -1.27910020978555     -1.67598663107013      1.70066451227005
  O   -2.41128206233258      0.15817308605569      1.31124884797756
