17
Coordinates from ORCA-job run
  C   0.62484049051120      0.05678588873158      0.36229330860326
  C   -0.89669676307611     -0.20765447964478      0.41483952544525
  Cl  1.18390975939175     -0.10699103733811      2.06954479088679
  H   -1.35521335606510      0.45161865529673      1.15089063216860
  N   1.25874800435923     -1.00608990794488     -0.38399669513962
  H   0.96192178416287     -0.95830807993041     -1.35329343756216
  H   2.26644592620265     -0.91838823002795     -0.33288098343702
  C   0.95241766837448      1.47028255597219     -0.09511655542025
  H   2.02324705695278      1.65138557214999      0.01398135506986
  H   0.41211136221409      2.21822358719957      0.48901212247688
  H   0.69009914702421      1.58855606969643     -1.14936216932481
  N   -1.26279167702282     -1.56462109558376      0.60155302232908
  H   -1.59699145821208     -1.73188217823712      1.53761374122326
  H   -0.47674787138928     -2.16719361519307      0.38815276745718
  N   -1.46401135227315      0.28324903720637     -0.91072198188218
  O   -1.14049691287363     -0.33910508898691     -1.92026338565082
  O   -2.18079180828108      1.28013234663414     -0.88324605724330
