17
Coordinates from ORCA-job run
  C   0.70618157766884      0.10017971321092      0.35952568601408
  C   -0.71672584472789     -0.52672995644025      0.45659453280814
  Cl  1.12909474111695      0.66476385026732      2.07340866239041
  H   -0.94130563758608     -0.79811729884732      1.48742418772292
  N   1.60395862292618     -0.88405087516778     -0.12326664107245
  H   2.55999305572342     -0.55581200541679     -0.07735019407326
  H   1.51151065969723     -1.76714437491093      0.36076543511240
  C   0.79820686334087      1.33869142338377     -0.51701514093252
  H   0.19258448684611      2.15390514726611     -0.12389922737118
  H   1.83637031302688      1.67444642133886     -0.54645407685424
  H   0.47712939760491      1.09719022418261     -1.53184152543979
  N   -0.86267977692124     -1.65171630893998     -0.38979244835634
  H   -1.80627520866536     -2.01466408191149     -0.35582224866928
  H   -0.61175704052953     -1.44196493354007     -1.34603909880346
  N   -1.72229679852541      0.59413717177749      0.16326003087219
  O   -2.13416979855794      0.68867614752154     -0.99041787446084
  O   -2.01981961243794      1.32920973622601      1.09991994111321
