17
Coordinates from ORCA-job run
  C   0.60679589427086      0.32609073684067      0.16290977350941
  C   -0.77309723744179     -0.37950971244786     -0.01972438765094
  Cl  0.27059909023312      2.05081502266312      0.57766379517275
  H   -0.55738003051530     -1.43714085015689     -0.19309019074455
  N   1.45620597128078     -0.21358755558823      1.18600353881081
  H   0.95397180462802     -0.36013387537365      2.05303126175985
  H   1.83844480339919     -1.10237528113278      0.88452983818303
  C   1.35531848382798      0.29570434588461     -1.15882803432899
  H   1.50057740521561     -0.74066031884764     -1.48300114150443
  H   2.33065843593573      0.76015199699592     -1.01369110626661
  H   0.81934495135199      0.83847437381458     -1.93542502937412
  N   -1.65877698839723      0.10093916990703     -1.02595064104747
  H   -1.36797718407043     -0.19867720166711     -1.94466269683028
  H   -1.75602327820155      1.10686348331121     -0.99178427206723
  N   -1.50622976961238     -0.35763425105724      1.30101060283504
  O   -2.38452978312337      0.48081457451191      1.45255463317873
  O   -1.12890256878124     -1.17013465765765      2.14845405636500
