17
Coordinates from ORCA-job run
  C   0.72992030145343      0.25471199924166      0.39282931533863
  C   -0.61018592855055     -0.52121445821917      0.38313130747665
  Cl  0.79705908826716      1.18903662412035      1.91969205858648
  H   -0.63346626562075     -1.17880188414415      1.25301052380373
  N   1.84250156162511     -0.66969473995652      0.40594080247903
  H   1.83486091449978     -1.21227151829089      1.26326902526134
  H   1.72142076518160     -1.30906152094661     -0.37360796173390
  C   0.89181917813017      1.20538468152425     -0.77760344167900
  H   1.85269731369061      1.70692430524723     -0.66885383352837
  H   0.90895446225699      0.64153696859582     -1.71400669146136
  H   0.09351808295581      1.94404280925615     -0.81737982408405
  N   -0.72279450112962     -1.27162331947155     -0.82798106838784
  H   -0.98606624583491     -0.65881384256708     -1.59092160035333
  H   -1.42558124031872     -1.99472329055163     -0.74026962571375
  N   -1.80232011202420      0.40274333367931      0.58755751258916
  O   -2.16231871583828      1.06060781287441     -0.38921955006287
  O   -2.33001865874364      0.41321603960841      1.69541305146948
