17
Coordinates from ORCA-job run
  C   0.67568002195419      0.12861521818527      0.38498739884638
  C   -0.84762335644667     -0.03970271397933      0.55438514648697
  Cl  1.33712834070586      0.36316294574618      2.03645158469446
  H   -1.26249639359995      0.81401715890187      1.09191788918561
  N   1.22833059998624     -1.11175050819575     -0.12487531490715
  H   0.98521334898525     -1.21106984908192     -1.10497216387035
  H   2.23696759845426     -1.10135839885548     -0.03413880638454
  C   1.02526579987867      1.36893027174330     -0.42677919210967
  H   2.10581010482360      1.51929362081765     -0.40453611940772
  H   0.71804108009735      1.24070865660402     -1.46763948345604
  H   0.54006948303306      2.26119214804385     -0.02642130014793
  N   -1.16655848446447     -1.26145494996325      1.16636658736224
  H   -0.65658419265610     -2.02643940410964      0.74643440166150
  H   -2.15842870985346     -1.43872544137958      1.22196406901509
  N   -1.44564663286859      0.12483025069955     -0.85934932000278
  O   -1.29971698938053     -0.81301473441257     -1.64371839552267
  O   -2.01445161864870      1.18476572923583     -1.11007698144338
