17
Coordinates from ORCA-job run
  C   0.67266815361620      0.11293925992710      0.14147757581742
  C   -0.77451295837307     -0.22594132069665      0.57379241850726
  Cl  1.64573790902523     -0.22059660122816      1.70482967642279
  H   -1.01965200068582      0.38373917472640      1.44297322508592
  N   1.07798953585733     -0.70656634882576     -0.92885246832099
  H   1.06208312502413     -1.68948162220731     -0.69280562691011
  H   1.99805918615338     -0.45899192817988     -1.26845617569396
  C   0.88861374010986      1.57775823413519     -0.18010290529122
  H   0.50094283469363      2.21392238850445      0.61467864505817
  H   0.38542152927124      1.82842909123742     -1.11453195534491
  H   1.95741012862213      1.77398606075275     -0.28803578706704
  N   -1.09690046961178     -1.59656412673986      0.82644379917346
  H   -0.51326375838203     -1.97424417909993      1.55988458305240
  H   -1.03420386179940     -2.15012107587075     -0.01748194084619
  N   -1.69671269504740      0.25279113000429     -0.51872636706115
  O   -2.07333406089614      1.42067094624672     -0.44644857369255
  O   -1.98034633757750     -0.54272908268601     -1.40763812288929
