17
Coordinates from ORCA-job run
  C   0.73567419751583      0.24753114018016      0.38639512557998
  C   -0.62029655738305     -0.50030666650566      0.39480384541695
  Cl  0.82538866976127      1.21171304626659      1.89319211555377
  H   -0.65574301252255     -1.13881401885977      1.27839993242107
  N   1.82867450166562     -0.69966046789297      0.41690763558700
  H   1.69252733244325     -1.35228767000875     -0.34904661733717
  H   1.81123542447167     -1.22413322158429      1.28530091692839
  C   0.91518244154518      1.16991246938666     -0.80397853469014
  H   1.88675976872409      1.65302381810262     -0.70751753478858
  H   0.91817641890182      0.58624184910000     -1.72831339368476
  H   0.13274441994724      1.92448216295176     -0.85788469652605
  N   -0.75087086617465     -1.27359304615553     -0.79998652907896
  H   -1.46799548511510     -1.98023089051386     -0.69579037951330
  H   -1.00295553953221     -0.67197889996310     -1.57547894688831
  N   -1.79248428120984      0.45253041535204      0.58133576889262
  O   -2.14039616367475      1.09671948512351     -0.40882253944432
  O   -2.31762126936383      0.49785049502060      1.68948383157180
