17
Coordinates from ORCA-job run
  C   0.71750603148690      0.17512644919327      0.24234991933465
  C   -0.76938321299377     -0.06414565894334      0.58131370304723
  Cl  1.47234195694530      0.64737640988888      1.86933633492611
  H   -1.11710230743401      0.69687976437962      1.27678224220210
  N   1.27439002716743     -1.01829787601970     -0.27538150944262
  H   2.21584843647606     -0.86750115601146     -0.61400890784405
  H   1.28497931579918     -1.74280060543617      0.43231136446415
  C   0.96198006888741      1.33999028340938     -0.69641035471509
  H   2.03462689190392      1.53304728405121     -0.75627085784466
  H   0.59232194159564      1.09238345493213     -1.69314032969292
  H   0.46853511287011      2.24390708534483     -0.34347363915325
  N   -0.97576453718291     -1.37398421647414      1.08634035236509
  H   -0.96463586528839     -2.03384006169705      0.31695350972836
  H   -1.85936944252748     -1.44641159726340      1.57184817804272
  N   -1.58560039856197      0.20316122351227     -0.68860595009047
  O   -1.98710764807822      1.35330441191777     -0.85294646439143
  O   -1.76556637106518     -0.73919519478409     -1.45499759093594
