17
Coordinates from ORCA-job run
  C   0.63596810763167      0.23211654688449      0.15962108418689
  C   -0.69932468213704     -0.47235358657306     -0.13524399265828
  Cl  0.17356822117248      1.95187414449047      0.72822753837697
  H   -0.47897296146757     -1.53329917159287     -0.28010000591419
  N   1.39488658757552     -0.47711593590781      1.11292149952645
  H   0.89106313548194     -0.65406932866262      1.97122782945600
  H   2.27142912670164     -0.01040667956476      1.30387859622561
  C   1.44383293982996      0.41007509457829     -1.11249764768006
  H   2.39169092647195      0.89544845383143     -0.86903176686288
  H   1.64971812273939     -0.57503642511302     -1.53695810202619
  H   0.91109451555991      1.01032928347150     -1.84384649597371
  N   -1.36096337538341      0.06916191739692     -1.25812742432557
  H   -1.65035675986994      1.02232301677444     -1.07516418549034
  H   -2.18002857401326     -0.47409545537203     -1.49414191723810
  N   -1.58254669708111     -0.45994958423820      1.13614949006331
  O   -2.65655167651682      0.12434240497895      1.07190468939252
  O   -1.15550695669533     -1.06134469538212      2.12018081094158
