17
Coordinates from ORCA-job run
  C   0.62369333716010      0.07926036503747      0.39120287886439
  C   -0.80455146192359     -0.45866642414915      0.19734374405781
  Cl  0.70072426459323      0.71961272621712      2.10631019046871
  H   -1.00368664391473     -1.19919805992809      0.98177297412412
  N   1.49164658133611     -1.04205884117483      0.19990609020961
  H   2.46056493853080     -0.74768366312476      0.19340570403917
  H   1.37092736183411     -1.72842208621922      0.93646824683330
  C   1.02025721286697      1.20541495945403     -0.54218766579497
  H   2.06413662768172      1.46845480700267     -0.35406073703874
  H   0.40500857881848      2.08550180057304     -0.38078441037305
  H   0.90303321138260      0.88124716333282     -1.57625297020499
  N   -0.96762018523434     -0.90184040978367     -1.15439819940438
  H   -0.14404205345911     -1.43031848276383     -1.41594985891940
  H   -1.78572734698773     -1.49123168316931     -1.24538110289998
  N   -1.84714243652515      0.60234621092164      0.48276903928033
  O   -1.90365606202859      1.57321372820455     -0.26274217655283
  O   -2.58556592413089      0.38536788956953      1.44257825331091
