17
Coordinates from ORCA-job run
  C   0.69753256763790      0.14445916528304      0.32387586837590
  C   -0.67640088506870     -0.56107639659252      0.31154543745663
  Cl  0.72707337480078      1.22952937305472      1.81973172588544
  H   -0.70192986254177     -1.29961341698742      1.11452365836770
  N   1.68911051561031     -0.86766180068324      0.39499077190730
  H   2.61677667229046     -0.46961366054921      0.32038342852381
  H   1.62889320444638     -1.39359370200089      1.25820507677681
  C   0.94751535152339      1.03603660609914     -0.87617328639831
  H   0.98585205656201      0.41774540760801     -1.77444570438801
  H   1.91024517136604      1.53692152679705     -0.75659366363166
  H   0.17472693874866      1.79597309917874     -0.97096593227976
  N   -0.93015454638552     -1.17482561741472     -0.94653638577529
  H   -1.69097511626986     -1.83822552914759     -0.87981820139876
  H   -1.16000110826171     -0.47677273403298     -1.64276422683129
  N   -1.78934862908910      0.41210861756623      0.68810814891641
  O   -2.07871284334858      1.26307925621191     -0.15192471295093
  O   -2.34920286202069      0.24652980560972      1.76685799744401
