17
Coordinates from ORCA-job run
  C   0.66441903757735      0.15757802084998      0.13620019956809
  C   -0.80919982715734     -0.03416678402760      0.56854107857961
  Cl  1.54095069335726      0.34989160999115      1.78007975430484
  H   -1.09779336383805      0.82196203402987      1.17769162736729
  N   1.12049626141293     -0.95878841960476     -0.58863203984642
  H   1.07317279872491     -1.81573208714830     -0.05446824462872
  H   2.06241325265000     -0.82984619873446     -0.93376253064429
  C   0.91872995173033      1.44356985794136     -0.62345050505506
  H   0.47248276004143      1.37985969484223     -1.61640016195517
  H   1.99461489661667      1.59962451898310     -0.72652285018582
  H   0.49642822470332      2.29878304215070     -0.09722330348095
  N   -1.16209467376187     -1.25181154429528      1.23155848661048
  H   -1.06202649139443     -2.04794072159696      0.61619625898968
  H   -0.62347107663991     -1.36953855425097      2.07843538192187
  N   -1.66057903700772      0.05808160565830     -0.67259934135826
  O   -2.02358930130632      1.18412031835265     -1.00603096945414
  O   -1.90495410570855     -0.98464639314101     -1.26961284073304
