17
Coordinates from ORCA-job run
  C   0.73056306925998      0.19002415665796      0.19654028060607
  C   -0.75889854525081     -0.05200283427982      0.59172148104593
  Cl  1.56317933926135      0.37980209808327      1.78679168246484
  H   -1.09341409914719      0.75912188522905      1.23744286668566
  N   1.38572510237456     -0.89174493506340     -0.48780418070360
  H   0.91363274802374     -1.08203899097779     -1.36488633844479
  H   1.39479189864849     -1.73355643058863      0.07458257805369
  C   0.89698644439575      1.47249154344495     -0.59548754857673
  H   0.40249478760914      2.31073183643072     -0.10271487941600
  H   1.96032775384070      1.68487347778054     -0.69976211753842
  H   0.46865483960750      1.35519321322740     -1.59473584124627
  N   -1.10442069852950     -1.30964674304005      1.17652535592445
  H   -0.74490706049814     -2.08014102781848      0.62866242689012
  H   -0.75988934419457     -1.36526360691701      2.12503650158675
  N   -1.56527746200301      0.08635399111249     -0.66768331115863
  O   -2.20691327201027      1.11954343740698     -0.83129363617322
  O   -1.48163550138772     -0.84374107068819     -1.47093531999985
