17
Coordinates from ORCA-job run
  C   0.67858149175425      0.16580350689120      0.45826234396302
  C   -0.69249524268790     -0.53211538054016      0.40320345332346
  Cl  0.77078610989653      1.09889194146773      1.99137666728408
  H   -0.77285998140762     -1.16930556796544      1.28274689047474
  N   1.62861274767738     -0.91955658147295      0.55583910517385
  H   2.57235137274053     -0.55064734775420      0.57414150646887
  H   1.51137263710088     -1.51232281289667     -0.25892990854888
  C   0.93257533723389      1.13553208663283     -0.68751004069242
  H   0.90339011354087      0.59669637480856     -1.63803169639623
  H   0.21130974708223      1.95119693955546     -0.71363496016294
  H   1.93210563078917      1.55903013949016     -0.57015017489704
  N   -0.80109321498103     -1.29282753207177     -0.80303789929261
  H   -1.03344264811075     -0.68119797476424     -1.57698620730269
  H   -1.52308031808408     -1.99693393135538     -0.71925449457684
  N   -1.82377874799098      0.47370244706222      0.54079084726980
  O   -2.38642749449152      0.55237747099199      1.62769764717049
  O   -2.10790754006186      1.12167622192068     -0.46752307925866
