17
Coordinates from ORCA-job run
  C   0.54194098534897      0.42085809097510      0.17554796290994
  C   -0.68635548182070     -0.43198176103922     -0.18452853249752
  Cl  0.03874486831016      2.14809665231007      0.35180394302463
  H   -0.33315535726849     -1.44452847158291     -0.39780666829123
  N   1.04605492526671      0.00481263706448      1.45649878620284
  H   1.93020146918909      0.45780348157400      1.65079785205016
  H   1.16045201341805     -1.00111998966154      1.49953120242946
  C   1.53864061477358      0.36427623469777     -0.97497036611500
  H   1.08680691674673      0.69921952555182     -1.90744299178020
  H   1.88791502823756     -0.66609745870839     -1.09445427881181
  H   2.39759821136901      0.99728744684769     -0.74263913110257
  N   -1.40251526932806      0.08270671669913     -1.29118124359192
  H   -2.11777546624576     -0.56428727958808     -1.59542835049189
  H   -1.83303428412996      0.96732488542788     -1.05220205912954
  N   -1.54258747315614     -0.62541898247392      1.06813956117412
  O   -2.42024624455176      0.20404603044310      1.28095044024875
  O   -1.29168545615897     -1.61199775853700      1.75638387377179
