17
Coordinates from ORCA-job run
  C   0.69700254345447      0.12952054641873      0.21131392791118
  C   -0.77165437730483     -0.30375201423337      0.37838762032008
  Cl  1.45375283948503     -0.45650132569048      1.84088665612907
  H   -1.20359096903222      0.21252439713019      1.24128868232351
  N   1.21991597412982     -0.52001899221294     -0.91037192662682
  H   2.20483934984081     -0.34457738099825     -1.05137776273008
  H   1.00953364152712     -1.51099693336562     -0.89002593388426
  C   0.94804623375073      1.62178519804542      0.18224305934441
  H   0.56622177763066      2.04354399763488     -0.74646218603654
  H   0.47147536083686      2.11766678418298      1.02740982399956
  H   2.02339288955074      1.80240319322471      0.24103851735885
  N   -0.86302834707144     -1.74217497923497      0.38970314884079
  H   -0.74822594239759     -2.08313284443496      1.33424444387916
  H   -1.75145785874829     -2.04761059031716      0.01625067645548
  N   -1.55753803284027      0.22080587523700     -0.80307493838534
  O   -1.78864920616312      1.42666091572278     -0.79018845130938
  O   -1.90903587664847     -0.56814584710894     -1.67326535758965
