17
Coordinates from ORCA-job run
  C   0.62726477351516      0.26892774709330      0.13503599285150
  C   -0.68023991932139     -0.50878860834384     -0.09192204192092
  Cl  0.09870506927153      2.00712847460593      0.57725443582798
  H   -0.41770475162963     -1.56787406429542     -0.15956271058848
  N   1.42148054175481     -0.33473612317689      1.13122028158890
  H   2.27996880521285      0.17946655367832      1.27677826373681
  H   0.93174381160439     -0.46525895870187      2.00583854865220
  C   1.41772938129602      0.38251930126970     -1.15516343641048
  H   1.65972552508218     -0.62264337855790     -1.50738767619879
  H   0.85594671999256      0.90485909272277     -1.92364310891844
  H   2.34714024838084      0.92180031581024     -0.95853307274040
  N   -1.37170871210851     -0.08039967346890     -1.24542586501254
  H   -1.69797224139325      0.87160475157557     -1.13141941056444
  H   -2.17012648854910     -0.67190214841289     -1.43078379773029
  N   -1.55388866315977     -0.43649233433370      1.18383871055724
  O   -2.65168670670604      0.09692433285440      1.08704159823879
  O   -1.09537739324266     -0.94413528031882      2.20583328863136
