17
Coordinates from ORCA-job run
  C   0.66453933385572      0.08553683519326      0.18831667065700
  C   -0.80051795502958     -0.31068293555165      0.49305134008206
  Cl  1.56360128828911     -0.49838494670912      1.72312375183828
  H   -1.08681752263589      0.15258435550769      1.43681285128843
  N   1.12153673868095     -0.55472284767031     -0.97865703278953
  H   1.09968043449189     -1.56264807607282     -0.90353926155112
  H   2.05424932721694     -0.25824090425549     -1.23409050218241
  C   0.89283628419928      1.58164361173759      0.11551172867127
  H   1.96535813085407      1.78555823144751      0.09114594311997
  H   0.46680878873724      2.08523797112122      0.98241899676190
  H   0.43422042344762      1.98143348635195     -0.78951836972835
  N   -1.13071682067730     -1.70215606948244      0.50804160586325
  H   -1.02616957784232     -2.11648632626270     -0.40831568408448
  H   -0.58489557943799     -2.19486906836591      1.20107919735085
  N   -1.67160312571194      0.34148880214974     -0.55041335991060
  O   -1.91100843514737     -0.30021757112533     -1.56740431551586
  O   -2.05310173329044      1.48492545198680     -0.30956355987066
