17
Coordinates from ORCA-job run
  C   0.60969295694212      0.13599785198712      0.48055569339029
  C   -0.90816343630782     -0.13193348235897      0.43075612146793
  Cl  1.03353048654779      0.27646435787959      2.21858500214811
  H   -1.44533959974859      0.65106495122773      0.96761076934512
  N   1.30584585998447     -1.02656342164675     -0.03683622626669
  H   1.19808894310053     -1.06202159698852     -1.04515801323679
  H   2.29137969096952     -0.96502399258689      0.18817092006947
  C   0.97808408007091      1.45461281050859     -0.18665900405845
  H   0.81828891376135      1.39147840075502     -1.26587221835057
  H   0.38650158207816      2.28348557496871      0.20674946606432
  H   2.03408987065728      1.66377621350329     -0.00838078145811
  N   -1.22103443879118     -1.41458351718802      0.90609972588097
  H   -2.19770932887862     -1.65169880938563      0.81541156618506
  H   -0.61120789399505     -2.11373191523479      0.50496634721767
  N   -1.32652069589255      0.11002850643872     -1.03516488833587
  O   -1.01782293610998     -0.75311896615523     -1.85719621796963
  O   -1.92670405438834      1.15276703427606     -1.28463826209282
