17
Coordinates from ORCA-job run
  C   0.72258596249157      0.23658364439560      0.41710076300684
  C   -0.62786728364137     -0.51901761197026      0.35699326895384
  Cl  0.76243040194889      1.14206264593847      1.96200640056520
  H   -0.68385199302920     -1.19203108710860      1.21350381946510
  N   1.82085165780154     -0.70452185517307      0.44262080350618
  H   1.71155167456363     -1.32779962620248     -0.35154638449325
  H   1.78263423926069     -1.26215003478115      1.28939042354879
  C   0.92951576377711      1.20564008648209     -0.73100014037979
  H   0.96337430978820      0.65841166473419     -1.67672956753816
  H   0.14341709202067      1.95686913725672     -0.77839460671108
  H   1.89431481237357      1.69064334815813     -0.58751051153186
  N   -0.71820138980000     -1.24559832000355     -0.87035130276231
  H   -1.43283863858499     -1.96022408484751     -0.81483188969619
  H   -0.95228383367307     -0.61568738883880     -1.62881616912161
  N   -1.81156943725786      0.41881386368148      0.54640510416041
  O   -2.36804826620097      0.41854548723133      1.64010223282655
  O   -2.13601507183843      1.09846013104740     -0.42794224379864
