17
Coordinates from ORCA-job run
  C   0.66645093995703     -0.01437028436268      0.28342987114680
  C   -0.82936786595754     -0.36793044933018      0.44320711396636
  Cl  1.45204454862859     -0.62926571361806      1.78660380045591
  H   -1.19595702126762      0.02598760366285      1.39032748477200
  N   1.21397431310208     -0.78094322948188     -0.81262449762290
  H   0.78794577391618     -0.47441748266187     -1.68131921951916
  H   2.21732232481344     -0.65202521489423     -0.86368726070723
  C   0.90431219879738      1.48701029526062      0.22167679685997
  H   1.97672150894294      1.68889830483231      0.24615902951225
  H   0.50071883021319      1.88792084244322     -0.71141924813449
  H   0.43408533450817      2.00440297152707      1.06057313842102
  N   -1.14282663241800     -1.74010198939274      0.27030827047138
  H   -0.38293510713624     -2.21046933158986     -0.20711075352312
  H   -1.34002301377377     -2.18716927476611      1.15196940826391
  N   -1.57772779177176      0.44872199374046     -0.60123794567819
  O   -1.38382211165434      0.15863152364624     -1.77995074133745
  O   -2.29991622889973      1.35611943498484     -0.19690524734705
