17
Coordinates from ORCA-job run
  C   0.65537594689287      0.15368032359655      0.49504794573257
  C   -0.70753696484271     -0.54813198259856      0.35269523661464
  Cl  0.67082975084537      1.03576978195204      2.06046600605428
  H   -0.82437979160631     -1.21477385487370      1.20593468276111
  N   1.60631283943202     -0.93038650992776      0.60130802626415
  H   1.53139347939687     -1.49526519309551     -0.23795769083260
  H   2.54583569388032     -0.55766714011251      0.67594453096490
  C   0.95675720058657      1.16164970991197     -0.60536037024475
  H   0.23320163349852      1.97507720687051     -0.63784177884412
  H   1.94755516841424      1.58483536475827     -0.42813485863737
  H   0.97390219561619      0.65426788601641     -1.57330224125102
  N   -0.75514345685466     -1.26892676673102     -0.88154833010011
  H   -1.47544965080276     -1.97919427673138     -0.85463810457470
  H   -0.95503634351531     -0.63345686892367     -1.64526187618312
  N   -1.84982002402326      0.44760900510922      0.47059200567323
  O   -2.09114542003289      1.12701936140781     -0.52815906669356
  O   -2.46265225688507      0.48789395337132      1.53221588329647
