17
Coordinates from ORCA-job run
  C   0.64582464839928      0.14039626070469      0.33396213451492
  C   -0.77572270196067     -0.44736009383792      0.30760421075618
  Cl  0.81860181382397      0.99059585661695      1.94736283575447
  H   -0.89971607809856     -1.08941527010639      1.18837571931700
  N   1.53151703118868     -0.97790204287206      0.22137331922756
  H   1.48045198297149     -1.56952979802954      1.04330138092384
  H   2.48881057374018     -0.66650460556499      0.11119908513767
  C   0.94623696662141      1.14949856448435     -0.75620237758039
  H   0.31612699545249      2.02887041573428     -0.66265759692528
  H   1.99170443196376      1.45682281932734     -0.67385647599937
  H   0.77181441620078      0.69620527944619     -1.73200370704010
  N   -1.01630700646743     -1.05710680708601     -0.96535597865172
  H   -0.19651274001387     -1.59564317821347     -1.21826183604805
  H   -1.81983394416206     -1.67172868202020     -0.92546382355647
  N   -1.82776336805481      0.61878301196657      0.53474927211462
  O   -2.49397911448038      0.50559714266916      1.56277020342466
  O   -1.96225390712426      1.48942112678104     -0.31689636536956
