17
Coordinates from ORCA-job run
  C   0.63218689839587      0.12159364851928      0.35011043163473
  C   -0.77745399684634     -0.51630217448236      0.38276356078249
  Cl  0.83482829603837      1.05638157593320      1.91524846539511
  H   -0.82729989913840     -1.17811511330018      1.25005479836024
  N   1.54122999810187     -0.97826345864559      0.26352429509306
  H   1.53627226268694     -1.52359856694071      1.11831392872403
  H   2.48645139728778     -0.65270534178547      0.10094281024642
  C   0.87709535851771      1.08787446348716     -0.79103346763480
  H   1.89334314552992      1.48065772773922     -0.71520982080073
  H   0.18159564701590      1.92287605428402     -0.76101398307051
  H   0.77825301325547      0.56526657878464     -1.74389801909823
  N   -1.15704268301396     -1.22637519700349     -0.80726339175859
  H   -0.42266716004272     -1.88621851696190     -1.03310183436641
  H   -1.26283000440509     -0.57423684325728     -1.57521519311613
  N   -1.83860425785439      0.51306524654621      0.62910063943202
  O   -2.36999700455800      0.53361332739928      1.73309258863263
  O   -2.10536101097093      1.25548658968397     -0.31541580845534
