17
Coordinates from ORCA-job run
  C   0.70602169269546      0.23759589358233      0.42421796626747
  C   -0.79855955747293     -0.14836169455032      0.47429615062536
  Cl  1.15425786532362      0.49569429062823      2.14729363653047
  H   -1.34585709238649      0.54652610452714      1.10954516595136
  N   1.57356203905798     -0.78821977332058     -0.08669374883361
  H   1.48484752684273     -1.63393326542321      0.46386152332601
  H   1.34987432015601     -0.98329406797297     -1.05633177815352
  C   0.94097099631564      1.53256164918227     -0.33058255244252
  H   1.98189327661171      1.82404985409968     -0.19814074869691
  H   0.29067933635870      2.32861555772229      0.03394766201606
  H   0.75543494332409      1.39048853527140     -1.39868582442497
  N   -0.98152582829769     -1.49147676031179      0.89628950473079
  H   -1.93403642827121     -1.66112914750465      1.18947027566864
  H   -0.74531750371669     -2.13073066982605      0.14815022355865
  N   -1.35538685526584      0.09886292750732     -0.92283409640056
  O   -2.01608305247150      1.11697955473166     -1.10773257387192
  O   -1.06177567880358     -0.73322898834274     -1.78407078585080
