17
Coordinates from ORCA-job run
  C   0.66833706685906      0.21723498645464      0.40839863898645
  C   -0.71870658167215     -0.48235509130872      0.41890625111442
  Cl  0.80765161136736      1.09121368012067      1.97515018413823
  H   -0.77192110147800     -1.10221107496628      1.31574691997620
  N   1.73400708054617     -0.75474773092282      0.37462509391615
  H   1.80572008076327     -1.17920310848675     -0.54137212797322
  H   1.61932183726306     -1.46906685601506      1.08415243177163
  C   0.87662965958599      1.20764242294867     -0.72075329149262
  H   0.16477891624798      2.02777604987274     -0.67408833945963
  H   1.89118141686844      1.59810433399324     -0.64225980176680
  H   0.77148771458525      0.71151325818434     -1.69004576103117
  N   -1.04496996828780     -1.27348377633075     -0.73267782833367
  H   -0.48958322339765     -2.11481414111613     -0.77607629208221
  H   -0.97014843652511     -0.74449939048663     -1.59065855105181
  N   -1.83615830718792      0.51152986521775      0.56959286927157
  O   -2.40643452156747      0.57653625578125      1.65285343176349
  O   -2.10119324397048      1.17883031705985     -0.42949382774700
