13
Coordinates from ORCA-job run
  C   -0.46528009316349      0.49397557210025      0.22720090613634
  C   0.90936714095211      0.15019125097406     -0.31087368670100
  F   -0.41804107721019      0.72223854360080      1.55487682188138
  H   0.84062102976472     -0.16981773809483     -1.35047531637869
  H   1.57457439025305      1.00687200599888     -0.21299647104347
  C   -1.00056002211771      1.66297858280011     -0.47748867235858
  N   -1.39766549226690      2.61024133928534     -1.04815630089467
  N   -1.45852583644416     -0.65811764251341     -0.03526125511265
  O   -1.48180187314952     -1.03616997397283     -1.19682640522761
  O   -2.12763509489766     -1.03539459303157      0.90544180682189
  N   1.52221780193172     -0.96979220531429      0.46865935923238
  O   0.76964404275456     -1.86906780676423      0.82901497782925
  O   2.73208508359347     -0.90813733506828      0.64588423581543
