13
Coordinates from ORCA-job run
  C   -0.49871566165422      0.48159433237181      0.16478087069920
  C   0.92090183188620      0.17456928645884     -0.26889936341968
  F   -0.54407502207525      0.78896738060054      1.47640918059562
  H   0.92834731810757     -0.21712416497001     -1.28605944907728
  H   1.53851995062844      1.06823065990202     -0.19260922774530
  C   -1.04386487058599      1.57916204435285     -0.63989756801012
  N   -1.46317300506567      2.47616681484497     -1.27253145634433
  N   -1.41974861098467     -0.73252102098419     -0.08413681214882
  O   -1.36214998628792     -1.17093265353176     -1.22294183438380
  O   -2.11854908330523     -1.09467781746956      0.84076998293999
  N   1.53469343487055     -0.85907330859083      0.62065829442780
  O   2.71796121094663     -0.70706129941220      0.89608018492309
  O   0.81085249351956     -1.78730025357247      0.96637719754364
