13
Coordinates from ORCA-job run
  C   -0.60244862868249      0.52156553747905      0.13393211839446
  C   0.77159326952964      0.21892700913841      0.69270766915481
  F   -1.21891601071890      1.35793106093976      1.02133182951392
  H   1.33603193370634      1.14384849181816      0.80956478981338
  H   0.66740549968376     -0.28409794051376      1.65383778923139
  C   -0.57608947448366      1.13631002699532     -1.19166680075101
  N   -0.50527330820079      1.70377377469884     -2.21776318943896
  N   -1.47412943200806     -0.73962861647264      0.10523155024969
  O   -2.26910515074140     -0.84382516004716     -0.81616481532317
  O   -1.33776541124021     -1.48141761081289      1.06820942984898
  N   1.54729352769949     -0.68269188084658     -0.20578528087953
  O   2.74602381050454     -0.76747434194492      0.02136111004607
  O   0.91637937495175     -1.28322035043160     -1.07379619986004
