13
Coordinates from ORCA-job run
  C   -0.58262551241011      0.54280795020559      0.13089059064321
  C   0.69182398873836      0.07518055439298      0.80013873608689
  F   -1.25701658616968      1.30380173012796      1.04381277282702
  H   1.28939559975718      0.93495330295405      1.10255465700829
  H   0.44112080137182     -0.53473361672360      1.66772376969533
  C   -0.36015707924498      1.31499472731340     -1.08968378143506
  N   -0.14264643312538      2.00388221928310     -2.01610419497175
  N   -1.51388413319073     -0.63954821454377     -0.16544520918618
  O   -2.19637794667940     -0.56795580124528     -1.17578599687767
  O   -1.53568157478223     -1.50669852947109      0.69673924517136
  N   1.52078224053145     -0.76166548289240     -0.11335864224270
  O   2.67510766470804     -0.96065512410268      0.23818493115485
  O   0.96915897049566     -1.20336371529827     -1.11966687787359
