13
Coordinates from ORCA-job run
  C   -0.53308753116525      0.28724418469543      0.24418521142703
  C   0.64191970750480     -0.62035464584675     -0.06546302810721
  F   -0.54949207442572      0.60421070890960      1.55246685044592
  H   0.56929753924147     -1.52895055985757      0.53330212546138
  H   0.67795094315693     -0.86854592781782     -1.12623817001597
  C   -0.63788527711971      1.48309546509586     -0.59102504704323
  N   -0.77596301010314      2.42737495131915     -1.27617700087700
  N   -1.78771347381098     -0.56837493529603     -0.05230728670753
  O   -2.50236341993652     -0.84783293246325      0.89318433736321
  O   -1.90706296670436     -0.89679045818943     -1.22453221048532
  N   1.94483818797825      0.02525228872445      0.29333934572472
  O   1.98907612946008      1.25046534987306      0.30648962525936
  O   2.86948524592415     -0.74679348914671      0.51177524755464
