13
Coordinates from ORCA-job run
  C   -0.51350831878701      0.38850037537644      0.10968521236755
  C   0.58586556814014     -0.65440065794647      0.17129706699006
  F   -0.54825316672731      1.10268538741818      1.25024739945594
  H   0.41199060938615     -1.31952497483757      1.01795988977399
  H   0.63579722727918     -1.22722710244659     -0.75475721711886
  C   -0.48199662630471      1.26337967578952     -1.06166630058043
  N   -0.51092045055447      1.95072571394795     -2.01394280671358
  N   -1.82817955715266     -0.42278673189408      0.01799184946234
  O   -2.59776223477714     -0.33662752946448      0.95774201775305
  O   -1.93466422639134     -1.09497496541122     -0.99841721922768
  N   1.92816890307261     -0.02710175354518      0.38915649874897
  O   2.08100693279287      1.13326838773322      0.02374840538854
  O   2.77245534002368     -0.75791582471971      0.89095520370012
