13
Coordinates from ORCA-job run
  C   -0.51654697642969      0.47599436330724      0.13660864270396
  C   0.93458643634610      0.18870554860013     -0.19383117706819
  F   -0.66294758924265      0.76703698505548      1.44465595427480
  H   1.02457439059288     -0.18140067975985     -1.21500966835330
  H   1.53567631392076      1.08592998549044     -0.05322870544390
  C   -1.01036890795797      1.57844821420823     -0.69435416305068
  N   -1.37556995397028      2.47449297481810     -1.36106845782527
  N   -1.40359856296898     -0.74284105679428     -0.19504680691411
  O   -1.24952346211859     -1.17300017780675     -1.32819475522764
  O   -2.17414754031054     -1.11612877516268      0.66619714131381
  N   1.49170348559078     -0.85761077414087      0.71853626649996
  O   0.74363131006617     -1.78111148866430      1.02249145346061
  O   2.66153105648200     -0.71851511915089      1.05224427562997
