13
Coordinates from ORCA-job run
  C   -0.57669655718880      0.58568330409422      0.17993308443628
  C   0.77290601368937      0.15452374743373      0.73554543464924
  F   -1.16555765090274      1.37109018663722      1.11287190123872
  H   1.40757960927756      1.03191917305101      0.85343178162528
  H   0.60596101969025     -0.35885009676909      1.68198479657367
  C   -0.51412478950187      1.28402090031617     -1.10185728497637
  N   -0.46571442582449      1.91119445216261     -2.09431358733724
  N   -1.44235885238580     -0.67454398212544      0.01470955649468
  O   -2.04034355507790     -1.03582187484427      1.01421235863576
  O   -1.39303576994442     -1.21129939632459     -1.08327022506368
  N   1.44487024843742     -0.78823617612870     -0.20336539046461
  O   2.06679976768691     -0.28257743968361     -1.13340175644033
  O   1.29871494204450     -1.98610279781925      0.02551933062861
