13
Coordinates from ORCA-job run
  C   -0.59875470739734      0.35680544333336      0.16142062911558
  C   0.91434470322132      0.27084844522153      0.19452572123841
  F   -1.12516918182831      0.03016805977573      1.35836988853562
  H   1.31779143524880      1.02148022645504      0.87259750181102
  H   1.32260078638015      0.39422858827412     -0.80844773893344
  C   -1.01495326952067      1.70598230653037     -0.23361034218491
  N   -1.31947141883354      2.79931811418367     -0.53792821617718
  N   -1.17610536694626     -0.60043037329157     -0.90348899505126
  O   -2.08180428952940     -1.33114172991387     -0.55592026489344
  O   -0.66688088801849     -0.47792587103927     -2.00722562058603
  N   1.35998466460658     -1.06304036891834      0.70470569109098
  O   0.70557108651019     -2.03763213198846      0.34838016370225
  O   2.36384644610697     -1.06766070862231      1.40562158233238
