13
Coordinates from ORCA-job run
  C   -0.53283351330018      0.36883733260917      0.07641209484057
  C   0.61149833066848     -0.61656512600768      0.21818453291006
  F   -0.62568685122658      1.14107243837562      1.17539419533369
  H   0.71098316877368     -1.23396072901381     -0.67456013244165
  H   0.44668414744412     -1.24371812893093      1.09506894331145
  C   -0.51437774896041      1.18027716340813     -1.14015754777285
  N   -0.55296461599731      1.81336053821902     -2.12904152250759
  N   -1.80670382718742     -0.50619870015214      0.00237226232527
  O   -2.60195341428336     -0.40367976040652      0.91879922426142
  O   -1.85834564261104     -1.23749638946750     -0.97682810544552
  N   1.91702376921618      0.08460543610848      0.43290271570426
  O   2.02778416607219      1.22688868517809      0.00139123429206
  O   2.77889203139167     -0.57442275991992      1.00006210518884
