13
Coordinates from ORCA-job run
  C   -0.61370991048480      0.54801818014586      0.15704789845870
  C   0.73665881216224      0.19670685718589      0.76182022730984
  F   -1.27531499619350      1.31561530277435      1.05755800971398
  H   1.31169478024470      1.10922543696819      0.91144929217586
  H   0.56508598814029     -0.33959866577676      1.69479082662834
  C   -0.52974928034915      1.23333048321976     -1.13074639219276
  N   -0.44299363994614      1.84450288286002     -2.13052734916618
  N   -1.41782218636340     -0.75244447797874     -0.01284087672868
  O   -1.47047869197267     -1.22003983803258     -1.14132997013014
  O   -1.88323679665547     -1.20297101872358      1.02087378068942
  N   1.49484820651859     -0.69133344174519     -0.16451372053944
  O   1.25844705914242     -1.89408678679335     -0.07672939297236
  O   2.26757065575687     -0.14492491410386     -0.94685233324658
