15

C	0.0	0.0	0.0
C	-0.484361	0.02404	-1.441348
F	1.386072	0.0	0.0
H	-1.587177	-0.072453	-1.405118
H	-0.345512	-0.935459	0.441446
C	-0.459935	1.20384	0.78555
H	-0.105751	1.103685	1.814047
H	-1.548437	1.259325	0.780742
H	-0.026707	2.11062	0.356969
N	0.065245	-1.189183	-2.154321
O	-0.156863	-2.268528	-1.616994
O	0.6828	-1.025612	-3.203873
C	-0.065685	1.229131	-2.146427
N	0.262314	2.231117	-2.662856
Br	-3.707257	0.0	0.0
