16

C	-0.539325	-0.03129	-1.468965
C	0.010052	0.150433	-0.060535
F	-1.901827	-0.202216	-1.433488
H	1.064832	0.425224	-0.142448
H	-0.546132	0.987035	0.383517
N	-0.317467	1.274275	-2.218483
O	0.827857	1.492414	-2.609007
O	-1.264657	2.047818	-2.339974
C	0.087401	-1.167719	-2.226361
H	-0.126951	-2.069606	-1.654894
H	1.167033	-1.036985	-2.275961
H	-0.338576	-1.236857	-3.230698
N	-0.112006	-1.095103	0.665724
H	0.889672	-1.360372	0.893558
H	-0.600031	-0.932815	1.537552
H	2.472688	-1.313991	0.953589
