16

C	-0.541561	0.098726	-1.464844
C	0.008524	0.155162	-0.046205
F	-1.904451	-0.072801	-1.443939
H	1.067573	0.437703	-0.105769
H	-0.547044	0.94936	0.470416
N	-0.318159	1.46492	-2.096737
O	-1.26399	2.247956	-2.147633
O	0.827206	1.715035	-2.46737
C	0.083365	-0.967533	-2.319494
H	-0.135241	-1.916111	-1.831309
H	-0.340312	-0.945413	-3.326945
H	1.16351	-0.836602	-2.354715
N	-0.112979	-1.149462	0.567203
H	-0.594285	-1.063192	1.453547
H	0.88955	-1.436074	0.764042
H	2.472564	-1.396018	0.816911
