16

C	-0.477355	-0.114475	-1.475252
C	0.34934	0.022357	-0.21942
F	-1.776989	-0.426399	-1.145325
H	1.387368	0.211079	-0.496864
H	0.328576	-0.967441	0.269016
N	-0.526785	1.235888	-2.168726
O	0.549134	1.636393	-2.603191
O	-1.602386	1.807645	-2.274824
C	0.01315	-1.133694	-2.476902
H	0.037519	-2.112742	-1.995398
H	-0.668546	-1.176486	-3.329938
H	1.012685	-0.873045	-2.82021
N	-0.105387	1.128013	0.590512
H	-0.93049	0.831668	1.102279
H	0.658343	1.239291	1.310725
H	1.966339	0.957131	2.283691
