17
Coordinates from ORCA-job run
  C   -0.48824731375699     -0.18919452108877     -0.02812631888961
  C   0.79204633326125     -0.51777746985233     -0.80095371755337
  H   -0.38054059457788     -0.60066491526427      0.98560693600886
  H   0.68615986884124     -0.14429031444737     -1.82809055779079
  H   0.87769138545318     -1.60827359098610     -0.87954648780130
  C   -1.69127213037775     -0.86078175544314     -0.68715835440710
  H   -1.83856420118031     -0.47292665501358     -1.70051430904925
  H   -2.60960170743302     -0.67595392104995     -0.12264411426618
  H   -1.55277385246122     -1.94326180956981     -0.75981538077144
  C   -0.71769411259878      1.31583209031106      0.09024224885506
  H   -0.76236619979508      1.77436046876662     -0.90370012095471
  H   0.07486330695960      1.81161615857600      0.65453442466665
  H   -1.66378888760702      1.52651594092439      0.59675861236448
  C   2.06860120405211      0.04113003853435     -0.17843485055917
  H   2.95318350644330     -0.32232868459424     -0.70754212701432
  H   2.15835821588151     -0.26509396913970      0.86805879968226
  H   2.09394517889587      1.13209290933683     -0.21167468252007
