17
Coordinates from ORCA-job run
  C   -0.62576668427713      0.04619977300395     -0.84000108063784
  C   0.84617225808508     -0.27532701816915     -1.13015510835173
  H   -1.14958380024674      0.00785964622245     -1.80465909175110
  H   0.89733160150483     -1.25610084044445     -1.61855834148485
  H   1.22182997236653      0.44962114471772     -1.86254281523107
  C   -0.80861549818054      1.45397381521905     -0.27463970924792
  H   -0.32513416148510      2.20329841170478     -0.90846950086675
  H   -0.38566394477138      1.53824614782267      0.72995281561666
  H   -1.86978596576697      1.70904959473945     -0.20457421416902
  C   -1.27389511618657     -0.99169260371637      0.07520150000015
  H   -1.12602351405426     -2.00637302852087     -0.30629060355850
  H   -0.85852237750511     -0.94723450761455      1.08549258665124
  H   -2.35060481659230     -0.81829742208363      0.15697479543940
  C   1.76693483024207     -0.27617623829342      0.08890184278809
  H   2.79145325766195     -0.51354527276215     -0.20837223532686
  H   1.78891872233337      0.69831916584242      0.58145147178246
  H   1.46195523687228     -1.02082076766793      0.82728768834767
