18

C	-0.417361	0.039243	-1.477314
C	0.0	0.0	0.0
F	0.037202	-1.187829	-2.031875
H	1.094851	0.0	0.0
N	-1.833134	0.136826	-1.630146
H	-2.28096	-0.668322	-1.208659
H	-2.063429	0.145295	-2.617411
C	0.301706	1.136829	-2.227946
H	0.083225	1.052024	-3.297107
H	-0.024737	2.11478	-1.870238
H	1.37613	1.027	-2.066984
C	-0.485746	-1.244424	0.745777
H	-0.035767	-1.265056	1.739733
H	-0.159822	-2.132764	0.205736
H	-1.574032	-1.260998	0.864254
C	-0.464607	1.213846	0.667608
N	-0.861872	2.178544	1.207774
Cl	3.403192	0.0	0.0
