18

C	-0.370245	-0.01631	-1.499579
C	0.0	0.0	0.0
F	-0.106831	1.274757	-1.965612
H	1.097721	0.0	0.0
N	0.475447	-0.895364	-2.261624
H	0.214346	-1.860589	-2.104511
H	1.440016	-0.770926	-1.952685
C	-1.83481	-0.284506	-1.781748
H	-2.00314	-0.163591	-2.852841
H	-2.450728	0.434665	-1.238223
H	-2.126959	-1.294519	-1.487509
C	-0.439045	-1.266957	0.739706
H	-0.07277	-2.149573	0.210373
H	-1.525151	-1.332806	0.844524
H	0.009112	-1.276665	1.734452
C	-0.540185	1.176249	0.669608
N	-1.035897	2.070056	1.248862
Cl	3.360227	0.0	0.0
