18

C	-0.351814	-0.065237	-1.494628
C	0.0	0.0	0.0
F	-0.085433	1.229883	-2.019623
H	1.097337	0.0	0.0
N	0.495593	-1.038484	-2.086216
H	0.406522	-1.012347	-3.095313
H	1.464674	-0.854894	-1.825163
C	-1.811715	-0.323854	-1.805761
H	-2.436093	0.42932	-1.320248
H	-1.966763	-0.251593	-2.885979
H	-2.107947	-1.319182	-1.473793
C	-0.458154	-1.237697	0.775793
H	-0.107217	-2.128949	0.25452
H	-1.545843	-1.278705	0.879935
H	-0.013557	-1.223802	1.772624
C	-0.534633	1.211493	0.607829
N	-1.027209	2.138286	1.135586
Cl	3.376908	0.0	0.0
