14
Coordinates from ORCA-job run
  C   -0.38727093211714      0.21386519184853      0.66659031953946
  C   0.43822107790847     -0.52541869539188     -0.38463334587393
  Br  -0.97100735718992     -1.08810616568742      1.99408816810090
  H   -0.12924794835107     -1.34448199304606     -0.83141035758663
  H   0.27040481879004      0.90492491782802      1.19559188449531
  C   -1.58219767087189      0.92177089389411      0.05533597122240
  H   -1.24658519124197      1.69248355557662     -0.64306942071932
  H   -2.22543228500462      0.21656192026130     -0.47488217526577
  H   -2.17207792879693      1.40013739650012      0.83727755752818
  N   1.65210600698129     -1.16536131561377      0.25715251605175
  O   2.37213766815116     -0.41950700041971      0.90894311712541
  O   1.80410514106351     -2.36520257608864      0.06652245406001
  C   0.91242925844573      0.39755182278690     -1.41301308743531
  N   1.26441534223336      1.15978204755189     -2.23449360124246
