14
Coordinates from ORCA-job run
  C   -0.37053483559071      0.75851165915691      0.23124416617947
  C   0.67223395655216     -0.04322149670727     -0.56124197502968
  Br  0.25988825520546      1.09170188576792      2.04231510596399
  H   0.26671857913394     -0.23017657144742     -1.56054992271470
  H   -0.41109885936019      1.74288764830034     -0.24142720531220
  C   -1.74951076506826      0.12328374192839      0.25340666133764
  H   -1.75495276517112     -0.80748328190701      0.81872831008203
  H   -2.45696166349491      0.81328200400690      0.71447693201946
  H   -2.08087709273334     -0.09032796619863     -0.76672400042513
  N   0.87461559904424     -1.41769920382676      0.03654520676467
  O   0.00960947542059     -2.23977783364642     -0.25310538700551
  O   1.84210771978402     -1.59241957326415      0.76537147764594
  C   1.95044605140688      0.64819299732786     -0.67010519444055
  N   2.95231634487121      1.24424599050935     -0.80993417506542
