14
Coordinates from ORCA-job run
  C   -0.52471353080378      0.00357523643275      0.60376767928596
  C   0.52010810056001     -0.39188668272455     -0.43797539374872
  Br  -1.35487201990107     -1.62916063620688      1.26970491492333
  H   0.07559365349861     -0.98533894255723     -1.23969247552229
  H   -0.00881121269561      0.44538809710367      1.45739819623510
  C   -1.57458888460072      0.93651519419362      0.02922018963767
  H   -1.11113263943005      1.87154473158172     -0.29540569583225
  H   -2.08281469385684      0.47719832992203     -0.82109482734949
  H   -2.32153533086144      1.16860349558898      0.78844048702513
  N   1.58004896163425     -1.27309871818939      0.19092878896930
  O   1.78983797421139     -2.35030283507301     -0.35191779302627
  O   2.13116836681614     -0.82340879179170      1.18779586835213
  C   1.18701479996621      0.79100852585869     -0.97692379752632
  N   1.69369645546290      1.76036299586130     -1.40524614142328
