14
Coordinates from ORCA-job run
  C   -0.44751600356066      0.81432630313011     -0.24678469561502
  C   0.90343509014541      0.10074358263658     -0.37851203623699
  Br  -0.09034784187262      2.62645919723906      0.37070138362657
  H   1.55093388868239      0.64962811122562     -1.06580706174552
  H   -0.85580779932866      0.92139517950261     -1.25280995135027
  C   -1.41214890296305      0.10336982769218      0.68076000164968
  H   -1.62402755129027     -0.90291192425004      0.30886205369777
  H   -2.35300584979511      0.65195587340121      0.73184883567148
  H   -1.00110247589082      0.02476163425259      1.68869833324720
  N   0.63421660781410     -1.23316026829623     -1.05394368224802
  O   0.69933221270330     -2.25437397517923     -0.38133914051318
  O   0.32016118416305     -1.14812123075291     -2.23660988793199
  C   1.57012636968793     -0.10788875835193      0.89987993415866
  N   2.10675107150502     -0.24618355224960      1.93505591358963
