14
Coordinates from ORCA-job run
  C   -0.59762253446944      0.72285822937349     -0.21216039036812
  C   0.76274661969422      0.13634885050260     -0.60806379262027
  Br  -0.34312686791671      2.63036725246332      0.08706876858865
  H   1.14573511478563      0.64387286317236     -1.49606669955170
  H   -1.24901712733123      0.64606987784932     -1.08390672289783
  C   -1.20491943334149      0.05685552508026      1.00596924843129
  H   -0.55125771568921      0.15656497347739      1.87426558315124
  H   -1.37259496900302     -1.00658448944723      0.81294112088315
  H   -2.16593656828256      0.51527362430803      1.24082353407395
  N   0.51642642749497     -1.29993715668762     -1.03837958622727
  O   -0.08525814061199     -1.41425058621312     -2.10119385287792
  O   0.87787392615599     -2.20446163160382     -0.29633825773956
  C   1.74107586582952      0.17802433173215      0.47063175990482
  N   2.52387540268531      0.24199833599289      1.34340928724960
