14
Coordinates from ORCA-job run
  C   -0.60327356448606     -0.11758181890867      0.51230860299645
  C   0.57281954273397     -0.29847814124246     -0.44530337028370
  Br  -1.53129854599875     -1.82528688668035      0.65239131545029
  H   0.23924691538788     -0.66620446971601     -1.41805492394942
  H   -0.20750920221396      0.08950089947840      1.50755790350714
  C   -1.55574272863020      0.96666314972900      0.04261647788954
  H   -1.04467211750109      1.93247429875592      0.01653159025648
  H   -2.39979231802848      1.04297900802298      0.72823971226614
  H   -1.94334729217241      0.74162599289522     -0.95314227343654
  N   1.52761853626460     -1.34654537376543      0.08878430320771
  O   1.80342516492613     -2.27119404767729     -0.66486744105455
  O   1.93748504400087     -1.16964873778984      1.22917039982231
  C   1.31800180688718      0.94963539283143     -0.59169047093403
  N   1.88703875883033      1.97106073406709     -0.70454182573783
