14
Coordinates from ORCA-job run
  C   -0.50859048080141     -0.02356988127225      0.61637889314111
  C   0.49776686137586     -0.37333381045298     -0.47815411237937
  Br  -1.36984319793165     -1.67398395023544      1.19069581040477
  H   0.01593708124105     -0.89185866850233     -1.30987809415166
  H   0.04198556248047      0.34357955318131      1.48355709137011
  C   -1.54456988420453      0.97598022313650      0.13611109903877
  H   -2.26578460238081      1.17496168957955      0.92928367773275
  H   -1.06196849131743      1.91851918090785     -0.13534584341583
  H   -2.08689349744832      0.59070184649177     -0.73002766452577
  N   1.54238677700457     -1.33078956812365      0.05735944242421
  O   2.13224540441458     -0.97219224703449      1.06895639475340
  O   1.70196828911199     -2.37240974357286     -0.56631179945488
  C   1.18832440492329      0.82586138398395     -0.94651110012897
  N   1.71603577353235      1.80853399191308     -1.31511379480864
