14
Coordinates from ORCA-job run
  C   -0.37460535709776      0.74002581664750      0.27658693382283
  C   0.67342464718271     -0.00666003669172     -0.56196731177858
  Br  0.25020266775243      0.96245620287405      2.10642597569709
  H   0.27004728035417     -0.13319583979315     -1.57157608392276
  H   -0.41836949068687      1.75179656004503     -0.13382811336122
  C   -1.75094493602913      0.09888739689129      0.25568988749149
  H   -2.07922750020900     -0.05156033063038     -0.77662701594035
  H   -1.75351964905800     -0.86549295945796      0.76148919111202
  H   -2.46219349982681      0.75594803615253      0.75723736403843
  N   0.88170250074645     -1.41390798895007     -0.04906474702953
  O   1.85016309169683     -1.62826683821219      0.66779470803549
  O   0.02029363365028     -2.22062017454230     -0.38803875339962
  C   1.94781395198813      0.69729502688011     -0.62528869979193
  N   2.94421265953656      1.31129512878726     -0.71883333497337
