14
Coordinates from ORCA-job run
  C   -0.37692097111663      0.74235337511734      0.27037979954752
  C   0.68608839558549     -0.00767346049031     -0.54573007476069
  Br  0.20698978541213      0.95764330328701      2.11446678272711
  H   0.30591599419696     -0.12902073804691     -1.56493020541087
  H   -0.40623867460724      1.75517969487882     -0.13877572768235
  C   -1.75559809449875      0.10826598730602      0.21651556243092
  H   -1.77449336629824     -0.85714387131668      0.72005374089295
  H   -2.06124303853130     -0.03845400679362     -0.82325380379440
  H   -2.47486027855996      0.76775171363471      0.70324396538627
  N   0.87386604234172     -1.41792716179447     -0.03268767870622
  O   0.01667437052312     -2.21855690555461     -0.39614451239047
  O   1.82246684606428     -1.64011150863362      0.70793679551117
  C   1.96626593228122      0.68800710093416     -0.57730294856895
  N   2.97108705720720      1.29068647747217     -0.65277169518199
