14
Coordinates from ORCA-job run
  C   -0.62895770817103      0.67628090326997     -0.21519646323470
  C   0.74047721050418      0.09005689519841     -0.58761169299198
  Br  -0.38174923747325      2.61567794582437     -0.14232475838320
  H   1.20419149930819      0.67156340210053     -1.38517053460575
  H   -1.30547879472557      0.50335673741031     -1.05523254517343
  C   -1.22556483315980      0.19070664739785      1.09140491650597
  H   -1.36534924664154     -0.88948400535683      1.05801774878906
  H   -0.57558970652430      0.44271687557239      1.93091577409546
  H   -2.19277275500098      0.66877092718102      1.25104366970949
  N   0.60117234253341     -1.30468919299710     -1.18034741164814
  O   -0.17284515881315     -2.08071327648256     -0.63286793294373
  O   1.29189277472820     -1.53386403195609     -2.16656521122078
  C   1.64643091689716      0.00718492469768      0.55329947669974
  N   2.36414269653849     -0.05756475185995      1.48063496440201
