18

C	-0.540534	0.118122	-1.422585
C	0.0	0.0	0.0
Br	0.389575	-1.258122	-2.510793
H	1.090233	0.0	0.0
N	-1.962497	-0.100938	-1.600015
H	-2.176097	-1.017466	-1.220102
H	-2.440888	0.580791	-1.014806
C	-0.140963	1.460959	-2.009809
H	-0.698105	2.266371	-1.521446
H	-0.387299	1.459747	-3.071496
H	0.926522	1.632548	-1.862705
N	-0.427263	-1.14679	0.764651
O	-0.059716	-1.149609	1.951765
O	-0.970163	-2.113051	0.195012
N	-0.39994	1.206085	0.766622
O	-1.522002	1.210509	1.293762
O	0.381654	2.15844	0.771574
H	2.414649	0.0	0.0
