18

C	-0.269423	-0.031941	-1.500734
C	0.0	0.0	0.0
Br	-2.197721	0.265562	-1.923797
H	1.09238	0.0	0.0
N	0.50728	0.974308	-2.188135
H	0.24175	1.880147	-1.817843
H	1.473948	0.808941	-1.879184
C	0.12462	-1.389398	-2.05091
H	0.063205	-1.333233	-3.138824
H	1.157861	-1.586664	-1.743315
H	-0.516169	-2.19095	-1.686228
N	-0.52238	-1.174767	0.72472
O	-1.654585	-1.109865	1.205769
O	0.203911	-2.169795	0.754133
N	-0.378457	1.2023	0.739725
O	-0.267812	1.13644	1.96821
O	-0.62727	2.240678	0.111386
H	2.5032	0.0	0.0
