18

C	-0.364985	-0.019083	-1.500571
C	0.0	0.0	0.0
Br	-0.015068	1.829341	-2.150822
H	1.103738	0.0	0.0
N	0.538427	-0.870325	-2.232823
H	1.480944	-0.674254	-1.88612
H	0.323735	-1.815797	-1.935804
C	-1.809033	-0.349581	-1.825078
H	-2.026975	-1.364	-1.473764
H	-1.936845	-0.312321	-2.909793
H	-2.486866	0.352263	-1.337716
N	-0.403194	-1.182312	0.718339
O	-0.402569	-2.265474	0.10162
O	-0.568681	-1.088766	1.946868
N	-0.522018	1.163238	0.763348
O	-1.744933	1.324113	0.77322
O	0.287859	1.880796	1.341979
H	2.467864	0.0	0.0
