18

C	-0.505195	0.022352	-1.433734
C	0.0	0.0	0.0
Br	0.183587	-1.765453	-2.223462
H	1.087302	0.0	0.0
N	-1.908822	0.13567	-1.523933
H	-2.358009	-0.603399	-0.997449
H	-2.212722	0.116935	-2.489798
C	0.206549	1.068595	-2.270309
H	-0.147321	2.057387	-1.980628
H	-0.012855	0.894437	-3.326904
H	1.281827	1.000998	-2.096139
N	-0.474199	-1.130833	0.82153
O	-1.464067	-1.787549	0.475055
O	0.194233	-1.354512	1.830364
N	-0.395149	1.22385	0.71798
O	-1.184146	1.145603	1.666912
O	0.13816	2.265674	0.32647
H	2.491434	0.0	0.0
