17

C	-0.498463	-0.016631	-1.436984
C	0.0	0.0	0.0
F	-0.080922	-1.148652	-2.063377
H	1.10126	0.0	0.0
C	-1.966409	0.064864	-1.541591
N	-3.139131	0.127855	-1.599158
N	0.065903	1.1576	-2.245846
O	-0.449984	2.248955	-2.019603
O	0.968072	0.923497	-3.028831
N	-0.493784	-1.265126	0.564489
H	-0.655153	-1.131139	1.556784
H	0.269133	-1.933362	0.490465
C	-0.494674	1.182438	0.806431
H	-0.201117	2.130133	0.358216
H	-1.583826	1.167951	0.931609
H	-0.019363	1.123627	1.790461
H	2.822823	0.0	0.0
