17

C	-0.452674	0.008818	-1.442732
C	0.0	0.0	0.0
F	0.023858	1.096764	-2.106467
H	1.102165	0.0	0.0
C	-0.091975	-1.209844	-2.178668
N	0.203001	-2.131545	-2.843222
N	-1.981859	0.126058	-1.494139
O	-2.627058	-0.912278	-1.361765
O	-2.445935	1.261348	-1.561416
N	-0.375995	-1.26846	0.598553
H	-1.168076	-1.179138	1.220615
H	0.425453	-1.61341	1.11602
C	-0.459206	1.237261	0.750519
H	-1.528458	1.208623	0.995942
H	0.11721	1.289539	1.678064
H	-0.261085	2.146628	0.1799
H	2.714687	0.0	0.0
