17

C	-0.577196	0.077885	-1.392134
C	0.0	0.0	0.0
F	-1.93681	0.300164	-1.371567
H	1.093322	0.0	0.0
C	0.029595	1.123	-2.229087
N	0.450833	1.991867	-2.897555
N	-0.376479	-1.255975	-2.109655
O	-1.359635	-1.961776	-2.27173
O	0.775822	-1.49797	-2.43851
N	-0.390716	-1.268522	0.597422
H	-1.140598	-1.152616	1.267088
H	0.428652	-1.631627	1.07577
C	-0.408256	1.231412	0.797835
H	-0.154305	2.155435	0.270016
H	0.164983	1.22317	1.728607
H	-1.479182	1.240598	1.027108
H	2.759175	0.0	0.0
