17

C	-0.585247	0.065999	-1.390034
C	0.0	0.0	0.0
F	-1.948913	0.266583	-1.360515
H	1.093288	0.0	0.0
C	-0.003139	1.117947	-2.235586
N	0.42586	1.97292	-2.916271
N	-0.368667	-1.264573	-2.107444
O	-1.342614	-1.982939	-2.269494
O	0.786553	-1.491074	-2.438017
N	-0.389064	-1.267287	0.601946
H	-1.133225	-1.151456	1.277155
H	0.433485	-1.634953	1.069478
C	-0.411766	1.232688	0.793019
H	0.145286	1.218508	1.733867
H	-0.140064	2.15522	0.270639
H	-1.486695	1.250392	1.004251
H	2.760936	0.0	0.0
