17

C	-0.459429	-0.064552	-1.440333
C	0.0	0.0	0.0
F	0.064624	0.953257	-2.175541
H	1.096301	0.0	0.0
C	-0.167106	-1.345101	-2.096273
N	0.084421	-2.320267	-2.699719
N	-1.983847	0.123749	-1.493206
O	-2.397773	1.259499	-1.703881
O	-2.671512	-0.856475	-1.21772
N	-0.381088	-1.229216	0.672685
H	0.421526	-1.546624	1.20549
H	-1.168261	-1.098224	1.293163
C	-0.453404	1.281312	0.677881
H	-0.259152	2.153795	0.05076
H	-1.521328	1.267029	0.932421
H	0.12991	1.390771	1.596011
H	2.724934	0.0	0.0
