14

C	-0.574843	-0.016999	-1.399672
C	0.0	0.0	0.0
Cl	-0.065511	-1.489287	-2.239586
H	1.090945	0.0	0.0
H	-1.661863	0.034716	-1.437759
N	-0.116578	1.155701	-2.241634
O	0.96467	1.666253	-1.994702
O	-0.889905	1.467034	-3.146959
C	-0.440801	-1.164342	0.74035
N	-0.778994	-2.123679	1.329842
N	-0.468978	1.203508	0.725235
O	-1.04391	2.083143	0.073402
O	-0.227579	1.264816	1.925932
F	2.418109	0.0	0.0
