14

C	-0.289848	-0.102415	-1.466828
C	0.0	0.0	0.0
Cl	-2.011728	-0.302205	-1.896174
H	1.088994	0.0	0.0
H	0.079223	0.783867	-1.96854
N	0.463554	-1.259115	-2.067629
O	1.057854	-1.025243	-3.117082
O	0.395415	-2.338617	-1.497073
C	-0.573758	-1.021399	0.839903
N	-1.032315	-1.853287	1.532531
N	-0.365092	1.348053	0.499529
O	-0.353809	2.279279	-0.30578
O	-0.564895	1.468385	1.705783
F	2.414331	0.0	0.0
