14

C	-0.449461	-0.199275	-1.422837
C	0.0	0.0	0.0
Cl	0.564941	0.590656	-2.614405
H	1.106992	0.0	0.0
H	-0.424742	-1.269166	-1.638767
N	-1.923479	0.179101	-1.627894
O	-2.661093	-0.156801	-0.707158
O	-2.275429	0.701625	-2.673811
C	-0.419286	-1.074182	0.873244
N	-0.691095	-2.005417	1.537453
N	-0.409369	1.305379	0.545411
O	-0.364398	1.44845	1.764353
O	-0.70719	2.187091	-0.262618
F	2.418791	0.0	0.0
