14

C	-0.560064	-0.036354	-1.405069
C	0.0	0.0	0.0
Cl	-0.03488	-1.51586	-2.220772
H	1.107775	0.0	0.0
H	-1.647011	0.010582	-1.458573
N	-0.09477	1.129734	-2.252878
O	0.929486	1.712885	-1.9418
O	-0.809752	1.369028	-3.223907
C	-0.439471	-1.163118	0.74352
N	-0.79191	-2.121201	1.327588
N	-0.485256	1.204753	0.70943
O	-1.103773	2.051079	0.053633
O	-0.221118	1.297635	1.903487
F	2.417037	0.0	0.0
