14

C	-0.364257	-0.098941	-1.453069
C	0.0	0.0	0.0
Cl	0.39345	1.086916	-2.514557
H	1.107899	0.0	0.0
H	-0.027637	-1.074801	-1.803517
N	-1.86622	-0.098979	-1.720745
O	-2.613801	0.254236	-0.815021
O	-2.21452	-0.485629	-2.831337
C	-0.457113	-1.181783	0.696612
N	-0.790367	-2.197825	1.186831
N	-0.43676	1.219005	0.705151
O	-0.521246	1.146334	1.930098
O	-0.610871	2.239555	0.045064
F	2.42038	0.0	0.0
