19

C	0.0	0.0	0.0
C	-0.431046	-0.187861	-1.451366
F	1.441904	0.0	0.0
H	0.034686	0.644983	-1.997922
N	-0.439151	1.261511	0.499282
H	-0.141641	2.00839	-0.117291
H	-0.057381	1.422455	1.423932
N	-0.38282	-1.103063	0.832826
H	-1.386549	-1.050688	0.979066
H	0.079306	-1.018696	1.731701
C	-1.94703	-0.105443	-1.60924
H	-2.366754	0.828175	-1.238687
H	-2.463483	-0.894725	-1.062818
H	-2.211729	-0.211559	-2.66594
C	0.120976	-1.493898	-2.014078
H	-0.092959	-1.556433	-3.085129
H	1.200343	-1.567429	-1.866411
H	-0.350494	-2.342201	-1.516345
Br	-5.262693	0.0	0.0
