19

C	0.0	0.0	0.0
C	-0.477091	-0.121775	-1.445905
F	1.412955	0.0	0.0
H	-1.562402	0.022337	-1.38835
N	-0.448483	1.23847	0.559033
H	-1.47005	1.208999	0.53042
H	-0.16586	1.289191	1.532364
N	-0.411917	-1.142037	0.769566
H	-0.291862	-0.951183	1.756453
H	0.155232	-1.943292	0.52128
C	-0.219154	-1.514208	-2.013323
H	-0.831555	-2.258443	-1.501548
H	0.839078	-1.786219	-1.928236
H	-0.485925	-1.539403	-3.073644
C	0.155307	0.95763	-2.317823
H	0.018371	1.943011	-1.871651
H	1.228415	0.780992	-2.436947
H	-0.305349	0.955402	-3.310571
Br	-4.013803	0.0	0.0
