19

C	0.0	0.0	0.0
C	-0.363491	0.378557	-1.439099
F	1.414679	0.0	0.0
H	0.299468	-0.241927	-2.053651
N	-0.4826	0.962369	0.940255
H	-0.574767	0.563915	1.862304
H	0.106284	1.781733	0.969132
N	-0.417223	-1.33732	0.299256
H	-1.429904	-1.379456	0.256778
H	-0.129898	-1.569464	1.243626
C	-0.039498	1.849239	-1.702486
H	0.98133	2.098951	-1.397699
H	-0.131918	2.063023	-2.770819
H	-0.745998	2.490672	-1.170663
C	-1.811623	0.069661	-1.777059
H	-2.509783	0.437876	-1.026005
H	-1.980487	-1.002111	-1.876802
H	-2.084879	0.525901	-2.73248
Br	-4.982956	0.0	0.0
