19

C	0.0	0.0	0.0
C	-0.299538	0.480778	-1.441613
F	1.38963	0.0	0.0
H	0.231411	-0.264702	-2.045717
N	-0.438929	0.967474	0.974736
H	-1.455597	1.013852	0.918241
H	-0.205457	0.632197	1.905338
N	-0.425702	-1.36702	0.175067
H	-0.241794	-1.64259	1.135207
H	-1.437543	-1.37858	0.062342
C	0.347389	1.845428	-1.692056
H	-0.187436	2.626726	-1.145545
H	1.392568	1.863896	-1.381183
H	0.298428	2.076768	-2.762652
C	-1.748599	0.517532	-1.895155
H	-1.765872	0.753443	-2.963233
H	-2.279971	-0.419836	-1.754594
H	-2.336183	1.270512	-1.373657
Br	-4.507227	0.0	0.0
