19

C	0.0	0.0	0.0
C	-0.284118	-0.076152	-1.525972
F	1.387292	0.0	0.0
H	0.468969	0.618397	-1.914769
N	-0.420375	1.27974	0.521887
H	-0.157647	1.328617	1.50266
H	-1.43855	1.295708	0.485231
N	-0.450355	-1.17829	0.697048
H	-1.462854	-1.223776	0.575354
H	-0.282392	-1.050324	1.690896
C	-1.634088	0.394486	-2.041813
H	-1.609346	0.371462	-3.137399
H	-2.464975	-0.216953	-1.699263
H	-1.852125	1.419481	-1.738155
C	0.044757	-1.471581	-2.05495
H	1.001664	-1.826673	-1.669573
H	-0.72484	-2.189406	-1.763614
H	0.092886	-1.448478	-3.14891
Br	-4.375033	0.0	0.0
