19

C	0.0	0.0	0.0
C	-0.375828	-0.197695	-1.476323
F	1.418421	0.0	0.0
H	0.256984	0.519932	-2.017456
N	-0.402701	1.243618	0.595274
H	-0.167953	2.008657	-0.025789
H	-1.412598	1.221688	0.704669
N	-0.504333	-1.033483	0.825394
H	-0.282757	-0.824636	1.790594
H	-0.123905	-1.932098	0.567214
C	-1.843214	0.111433	-1.746275
H	-2.072998	1.170684	-1.617563
H	-2.518188	-0.430765	-1.082146
H	-2.098653	-0.150347	-2.77726
C	-0.016239	-1.601822	-1.960906
H	1.001771	-1.879045	-1.674338
H	-0.720481	-2.334532	-1.557302
H	-0.08739	-1.653759	-3.050964
Br	-5.125791	0.0	0.0
