19

C	0.0	0.0	0.0
C	-0.364336	0.002914	-1.493276
F	1.418421	0.0	0.0
H	0.244498	-0.807095	-1.920441
N	-0.499736	1.137415	0.679399
H	-0.123981	1.991261	0.290846
H	-0.261434	1.069385	1.661149
N	-0.409734	-1.151346	0.752774
H	-0.190238	-1.99241	0.232867
H	-1.418335	-1.101257	0.866959
C	0.053522	1.308528	-2.169792
H	-0.620077	2.121114	-1.881976
H	1.081161	1.582227	-1.917935
H	-0.014266	1.20684	-3.256286
C	-1.839942	-0.287099	-1.733937
H	-2.076714	-0.189861	-2.798208
H	-2.119121	-1.297553	-1.432299
H	-2.495472	0.3857	-1.178299
Br	-5.109729	0.0	0.0
