19

C	0.0	0.0	0.0
C	-0.359651	0.325375	-1.460449
F	1.41599	0.0	0.0
H	0.279717	-0.339592	-2.058813
N	-0.426285	0.908201	1.022241
H	-1.434576	0.824492	1.113228
H	-0.194712	1.860045	0.771938
N	-0.479065	-1.283644	0.367871
H	-0.171187	-1.983967	-0.292927
H	-0.142322	-1.505956	1.295993
C	0.026005	1.763563	-1.801705
H	-0.01499	1.915669	-2.883621
H	-0.680757	2.467904	-1.353491
H	1.03677	2.003362	-1.462088
C	-1.819504	0.050682	-1.795844
H	-2.069609	-1.005348	-1.703807
H	-2.03037	0.366246	-2.823422
H	-2.519811	0.567719	-1.137531
Br	-5.048205	0.0	0.0
