19

C	0.0	0.0	0.0
C	-0.369191	-0.374013	-1.445799
F	1.415992	0.0	0.0
H	0.254583	0.279694	-2.072965
N	-0.483106	1.292543	0.327683
H	-0.153216	1.543838	1.251172
H	-0.173219	1.973304	-0.352722
N	-0.421095	-0.878335	1.051778
H	-1.431875	-0.810074	1.130305
H	-0.170754	-1.834107	0.835062
C	-1.837895	-0.126617	-1.76597
H	-2.072041	-0.497964	-2.769071
H	-2.095661	0.930576	-1.724816
H	-2.52007	-0.612823	-1.066232
C	0.027576	-1.817704	-1.747754
H	-0.025249	-2.003147	-2.823578
H	-0.666287	-2.516908	-1.270443
H	1.043867	-2.038643	-1.413076
Br	-5.089629	0.0	0.0
