15

C	0.0	0.0	0.0
C	-0.406724	-0.179565	-1.467896
Br	1.962377	0.0	0.0
H	0.157816	-1.054859	-1.829402
H	-0.313584	-0.865181	0.5779
C	-0.400042	1.312023	0.664643
H	-1.489147	1.30909	0.699983
H	-0.036448	2.151957	0.069702
H	0.027596	1.365354	1.668593
N	-0.068485	1.022056	-2.249273
H	-0.531486	0.936412	-3.146489
H	0.931509	1.031683	-2.412564
C	-1.825042	-0.511594	-1.763826
N	-2.55367	-0.906897	-2.612362
F	-2.637615	0.0	0.0
