15

C	0.0	0.0	0.0
C	-0.611741	0.004496	-1.382402
Br	1.957019	0.0	0.0
H	-1.715028	-0.010287	-1.067456
H	-0.287185	-0.952907	0.442832
C	-0.495544	1.156016	0.846717
H	-0.11963	1.075552	1.869926
H	-0.172162	2.113526	0.429135
H	-1.590058	1.050539	0.810756
N	-0.265377	-1.203714	-2.127554
H	0.677465	-1.12063	-2.496816
H	-0.900753	-1.296438	-2.911758
C	-0.312698	1.240866	-2.115022
N	-0.117862	2.209948	-2.753657
F	-2.907945	0.0	0.0
