15

C	0.0	0.0	0.0
C	-0.343564	0.131864	-1.520675
Br	1.95273	0.0	0.0
H	0.439427	0.762845	-1.962504
H	-0.311811	-0.974586	0.374053
C	-0.594741	1.105435	0.837208
H	-0.322611	2.087849	0.447544
H	-0.259862	1.017481	1.874363
H	-1.682624	0.951134	0.76829
N	-1.62298	0.747525	-1.778659
H	-1.87512	0.572781	-2.744443
H	-2.380539	0.37611	-1.110942
C	-0.15622	-1.206219	-2.145961
N	-0.03361	-2.241224	-2.692064
F	-3.220778	0.0	0.0
