15

C	0.0	0.0	0.0
C	-0.310609	0.098778	-1.546017
Br	1.953049	0.0	0.0
H	0.180072	1.039257	-1.844891
H	-0.323377	-0.969907	0.37976
C	-0.629006	1.127494	0.773586
H	-0.328571	1.100875	1.824487
H	-0.349196	2.095089	0.347119
H	-1.715954	0.954361	0.6871
N	-1.692181	0.100227	-1.982833
H	-2.36926	0.167021	-1.149139
H	-1.904962	-0.808378	-2.379624
C	0.397011	-0.978781	-2.264287
N	0.85777	-1.865626	-2.882101
F	-3.221066	0.0	0.0
