15

C	-0.134045	-0.036003	-1.499945
C	0.0	0.0	0.0
Br	-2.165992	-0.928977	-1.885214
H	1.09402	0.0	0.0
H	-0.347145	-0.929473	0.440737
N	0.000878	1.140583	-2.163415
H	-0.511429	1.923093	-1.791201
H	0.030127	1.031335	-3.164127
N	0.756812	-1.015871	-2.058704
H	0.457157	-1.935529	-1.75791
H	1.651954	-0.805064	-1.579632
N	-0.612163	1.086609	0.755609
O	-0.876297	0.858238	1.937266
O	-0.802492	2.185848	0.219664
F	2.56885	0.0	0.0
