15

C	-0.228967	-0.017017	-1.511773
C	0.0	0.0	0.0
Br	-0.027625	1.969591	-2.123189
H	1.087026	0.0	0.0
H	-0.395337	-0.94655	0.382984
N	0.855014	-0.69644	-2.147976
H	1.713177	-0.473035	-1.607582
H	0.668134	-1.690702	-2.054396
N	-1.475707	-0.533328	-1.923779
H	-1.58304	-0.421994	-2.924058
H	-2.217792	-0.049676	-1.432528
N	-0.717463	1.061064	0.726921
O	-1.945551	1.110178	0.563483
O	-0.094473	1.813938	1.46774
F	2.644003	0.0	0.0
