13
Coordinates from ORCA-job run
  C   0.93832229394985     -0.45371638361586     -0.11564020174957
  C   -0.45314657294948      0.18365209956729     -0.31291247902765
  Br  1.44401100702873     -1.39814815610226     -1.74150463064228
  H   -0.40900950669931      0.94843719903904     -1.08816659041561
  H   0.88122248380187     -1.20040874264134      0.67917312918284
  C   1.94802680114520      0.54178082905482      0.21019840350639
  N   2.73799870064467      1.36967477497942      0.47824635897750
  N   -0.74758750535180      0.90905181926454      0.97865907525781
  O   -0.88692992724544      2.12489362416507      0.93920555330046
  O   -0.82700816827718      0.18917200824577      1.97234370077251
  N   -1.54067919185095     -0.70513350871831     -0.54857935588804
  H   -1.57387457594527     -1.00002655442291     -1.51360219744320
  H   -1.51034583825088     -1.51022900881527      0.06357923416884
