13
Coordinates from ORCA-job run
  C   1.02028645207005     -0.42914121122457     -0.20039486961171
  C   -0.40439826431265      0.10723335009118     -0.38578720414745
  Br  1.68697486186484     -1.14999847674681     -1.87566358444154
  H   -0.42355496366533      0.90535878492005     -1.12811639628596
  H   1.00182564768729     -1.25308419530055      0.51686721164491
  C   1.92414755513077      0.60818309752767      0.27693605914334
  N   2.63839342057884      1.45488682255781      0.66865124871461
  N   -0.74927522932395      0.79053469537188      0.94191827852341
  O   -0.91894979652358      2.00483935567535      0.93641822913301
  O   -0.83994318483120      0.03991982114379      1.91242494849829
  N   -1.30700984813372     -0.93033204102868     -0.71516603131497
  H   -2.20712166704264     -0.57265598599146     -1.00397166321935
  H   -1.42137498349871     -1.57774401699565      0.05488377336341
