13
Coordinates from ORCA-job run
  C   1.04012960786176      0.14162178576649     -0.20653248980285
  C   -0.50695308521538      0.17080873511951     -0.19115877127737
  Br  1.75275538446870     -0.18468442461110      1.57606461121002
  H   -0.82614149258043      0.44005492151259     -1.20194180883817
  H   1.42593394083605      1.11270938128766     -0.52188212456163
  C   1.47918609371714     -0.90779635604803     -1.11208337923567
  N   1.77198173427617     -1.76287910712642     -1.86314850881455
  N   -0.87873166959256      1.37077329055432      0.66284413521959
  O   -1.46062173608667      1.17117370435847      1.71895293690640
  O   -0.51542874895310      2.45642343720136      0.21676689437741
  N   -1.20572475964572     -0.97741290702704      0.24429108364683
  H   -1.20196183104467     -1.70604555068246     -0.45533517042535
  H   -0.87342343804128     -1.32574691030534      1.13316259159534
