18

C	0.0	0.0	0.0
C	-0.37372	-0.010763	-1.496595
F	1.381216	0.0	0.0
H	0.169709	-0.867995	-1.913412
C	-0.585935	1.10318	0.818124
H	-0.36252	2.045523	0.320521
H	-0.171168	1.088451	1.825175
H	-1.670134	0.965838	0.869737
N	-0.327934	-1.353222	0.635003
O	-0.335745	-1.402462	1.861792
O	-0.467535	-2.320983	-0.110527
N	0.100884	1.268482	-2.034191
H	-0.318378	1.346892	-2.953825
H	1.108814	1.247626	-2.133347
N	-1.751936	-0.156111	-1.854474
H	-2.078769	-1.093307	-1.662461
H	-2.381234	0.443633	-1.325986
Cl	-4.361625	0.0	0.0
