18

C	0.0	0.0	0.0
C	-0.555645	-0.053727	-1.419594
F	1.361786	0.0	0.0
H	-1.646829	-0.037362	-1.303765
C	-0.551768	1.146713	0.797789
H	-0.288646	2.071163	0.286783
H	-0.124135	1.126114	1.800359
H	-1.640116	1.045196	0.836195
N	-0.33197	-1.285793	0.776651
O	0.206753	-1.384647	1.876859
O	-1.079724	-2.123317	0.281108
N	-0.052517	-1.222975	-2.151923
H	-0.405269	-1.138962	-3.100858
H	-0.485624	-2.049328	-1.756063
N	-0.129435	1.169709	-2.077274
H	-0.776367	1.399595	-2.820098
H	0.788798	1.00722	-2.474887
Cl	-3.930422	0.0	0.0
