18

C	0.0	0.0	0.0
C	-0.576651	0.038485	-1.438425
F	1.361997	0.0	0.0
H	-1.442321	-0.627212	-1.438437
C	-0.50237	1.045231	0.946147
H	-0.241435	2.015337	0.523841
H	-1.58673	0.957755	1.032222
H	-0.035165	0.91526	1.921947
N	-0.282725	-1.403519	0.569536
O	-0.118156	-2.345887	-0.206907
O	-0.541723	-1.517596	1.761528
N	0.355011	-0.416791	-2.454422
H	1.226674	0.08771	-2.333892
H	0.544855	-1.395974	-2.28082
N	-0.956641	1.409703	-1.756739
H	-1.141397	1.400398	-2.754547
H	-1.857137	1.56339	-1.302911
Cl	-3.70437	0.0	0.0
