18

C	0.0	0.0	0.0
C	-0.584745	-0.123503	-1.394564
F	1.374619	0.0	0.0
H	-1.671489	-0.167895	-1.240577
C	-0.564618	1.130436	0.806474
H	-0.321994	2.068397	0.309479
H	-1.651127	1.008913	0.85678
H	-0.138276	1.11605	1.812137
N	-0.315299	-1.326923	0.728387
O	0.617786	-2.100106	0.923197
O	-1.478249	-1.503855	1.055261
N	-0.149478	-1.381679	-1.975577
H	0.851429	-1.369917	-2.13729
H	-0.628105	-1.540777	-2.852836
N	-0.277719	1.109195	-2.121273
H	-0.951618	1.233498	-2.866404
H	0.646234	1.036323	-2.531668
Cl	-4.178991	0.0	0.0
