18

C	0.0	0.0	0.0
C	-0.545865	-0.183615	-1.418024
F	1.362438	0.0	0.0
H	-1.639411	-0.187825	-1.330837
C	-0.560832	1.190946	0.725266
H	-0.257055	2.105017	0.211646
H	-0.166741	1.210289	1.742727
H	-1.653339	1.110634	0.734517
N	-0.334896	-1.234386	0.852513
O	-1.20722	-2.000927	0.458813
O	0.30722	-1.351648	1.894727
N	0.009814	-1.400785	-2.009209
H	-0.546753	-2.186122	-1.692661
H	-0.132875	-1.30265	-3.006864
N	-0.152902	0.923687	-2.278555
H	-0.741787	1.726404	-2.100818
H	0.814789	1.1684	-2.0992
Cl	-3.937418	0.0	0.0
