17

C	-0.36858	-0.06952	-1.493873
C	0.0	0.0	0.0
Cl	-2.150185	-0.364481	-1.705202
H	1.098064	0.0	0.0
C	-0.097566	1.215138	-2.144058
N	0.103463	2.23943	-2.683577
C	0.407486	-1.173179	-2.201649
H	1.472791	-1.021491	-2.003271
H	0.103284	-2.147908	-1.820718
H	0.212566	-1.140677	-3.274624
C	-0.422353	-1.225927	0.81338
H	-1.506955	-1.33874	0.855187
H	-0.035216	-1.110534	1.827229
H	0.02643	-2.128436	0.39697
C	-0.517763	1.215695	0.616856
N	-0.944051	2.171118	1.151751
Br	3.440635	0.0	0.0
