17

C	-0.501616	-0.059563	-1.460811
C	0.0	0.0	0.0
Cl	0.236852	1.287118	-2.383538
H	1.095628	0.0	0.0
C	-0.07501	-1.318538	-2.077815
N	0.174478	-2.353653	-2.575491
C	-2.020108	0.057446	-1.587503
H	-2.308081	0.032869	-2.639554
H	-2.507216	-0.771937	-1.070238
H	-2.348362	1.001874	-1.150869
C	-0.431561	-1.213586	0.830189
H	-1.515321	-1.280943	0.956286
H	0.029554	-1.133413	1.816717
H	-0.057006	-2.12819	0.367537
C	-0.484748	1.228914	0.620354
N	-0.936432	2.180141	1.141988
Br	3.441075	0.0	0.0
