17

C	-0.403511	0.023527	-1.491665
C	0.0	0.0	0.0
Cl	0.156694	-1.501079	-2.269214
H	1.09672	0.0	0.0
C	-1.861877	0.06356	-1.640218
N	-3.031243	0.112977	-1.74882
C	0.267904	1.189424	-2.209165
H	1.344503	1.114398	-2.035183
H	-0.100756	2.134337	-1.803065
H	0.055481	1.149268	-3.278639
C	-0.521276	-1.198473	0.789017
H	-0.196954	-1.106422	1.827119
H	-0.098603	-2.117701	0.385429
H	-1.613651	-1.254338	0.763391
C	-0.465348	1.243763	0.611961
N	-0.874289	2.22567	1.112183
Br	3.472336	0.0	0.0
