17

C	-0.365022	-0.160585	-1.487073
C	0.0	0.0	0.0
Cl	-2.15075	-0.436963	-1.687842
H	1.097929	0.0	0.0
C	-0.066519	1.073733	-2.21912
N	0.152177	2.042598	-2.847225
C	0.393972	-1.322339	-2.117724
H	1.461394	-1.179956	-1.920634
H	0.064992	-2.265508	-1.679897
H	0.207631	-1.351976	-3.192245
C	-0.423113	-1.17411	0.885799
H	0.047017	-2.094809	0.538919
H	-0.058458	-0.9862	1.897257
H	-1.506918	-1.299234	0.914325
C	-0.521642	1.250921	0.537717
N	-0.978178	2.227638	1.004184
Br	3.439568	0.0	0.0
