17

C	-0.512591	0.05399	-1.453177
C	0.0	0.0	0.0
Cl	0.201305	1.487525	-2.267097
H	1.103574	0.0	0.0
C	-0.073723	-1.140574	-2.18061
N	0.174477	-2.124202	-2.773584
C	-2.033047	0.159859	-1.556668
H	-2.371394	1.053899	-1.030122
H	-2.33146	0.228826	-2.603831
H	-2.502395	-0.722184	-1.115004
C	-0.427416	-1.276201	0.735548
H	-1.507729	-1.337723	0.890169
H	-0.083879	-2.15341	0.183601
H	0.06667	-1.287766	1.708693
C	-0.478197	1.175235	0.722221
N	-0.910179	2.088156	1.323158
Br	3.434389	0.0	0.0
