17

C	-0.416841	0.092862	-1.475219
C	0.0	0.0	0.0
Cl	-2.22775	-0.009886	-1.630464
H	1.103492	0.0	0.0
C	-0.039917	1.394159	-2.033991
N	0.248918	2.417082	-2.534786
C	0.211993	-1.020346	-2.303639
H	1.293366	-1.000346	-2.137097
H	-0.010604	-0.870647	-3.36125
H	-0.191451	-1.985585	-1.996739
C	-0.418388	-1.298751	0.694034
H	-1.501517	-1.434741	0.699062
H	0.061592	-2.1517	0.213317
H	-0.058358	-1.265667	1.723711
C	-0.485053	1.152475	0.75314
N	-0.895927	2.047978	1.393276
Br	3.424673	0.0	0.0
