17

C	-0.398909	-0.008596	-1.493503
C	0.0	0.0	0.0
Cl	0.125668	-1.567982	-2.22586
H	1.096939	0.0	0.0
C	-1.854767	0.0648	-1.647876
N	-3.022011	0.149798	-1.758162
C	0.303749	1.120372	-2.239416
H	1.37743	1.021348	-2.061788
H	-0.038859	2.084619	-1.856923
H	0.091003	1.05979	-3.3078
C	-0.527652	-1.175193	0.818699
H	-0.097316	-2.105266	0.448876
H	-1.619364	-1.235016	0.780957
H	-0.216798	-1.049863	1.857451
C	-0.460622	1.262227	0.578087
N	-0.863612	2.260767	1.049261
Br	3.469568	0.0	0.0
