17

C	-0.363503	-0.142495	-1.48925
C	0.0	0.0	0.0
Cl	-2.148703	-0.425107	-1.694841
H	1.107389	0.0	0.0
C	-0.070085	1.10338	-2.202621
N	0.15376	2.084941	-2.808598
C	0.401201	-1.29184	-2.135327
H	0.213456	-1.310479	-3.209819
H	1.467947	-1.145145	-1.938032
H	0.079502	-2.241879	-1.708092
C	-0.421944	-1.185283	0.870877
H	-1.505874	-1.307848	0.902493
H	0.043567	-2.102865	0.509881
H	-0.052772	-1.01257	1.883513
C	-0.523496	1.242818	0.553871
N	-0.985259	2.210365	1.035555
Br	3.439533	0.0	0.0
