17

C	-0.503532	-0.006769	-1.458085
C	0.0	0.0	0.0
Cl	0.23757	1.376857	-2.33113
H	1.095621	0.0	0.0
C	-0.078295	-1.239627	-2.127554
N	0.15637	-2.245884	-2.687363
C	-2.020937	0.117835	-1.580864
H	-2.348244	1.045282	-1.108527
H	-2.509329	-0.729982	-1.095479
H	-2.308686	0.133173	-2.63305
C	-0.429923	-1.244722	0.785687
H	0.036054	-1.202134	1.771748
H	-1.51305	-1.315594	0.913411
H	-0.058277	-2.141398	0.286309
C	-0.482739	1.204947	0.6686
N	-0.920328	2.142883	1.22541
Br	3.439825	0.0	0.0
