16

C	-0.365573	-0.002546	-1.457023
C	0.0	0.0	0.0
F	0.247813	0.966582	-2.143596
H	1.096389	0.0	0.0
N	0.015388	-1.344522	-2.083543
O	-0.904984	-2.105551	-2.392158
O	1.223089	-1.528259	-2.197116
N	-1.853973	0.142862	-1.775091
O	-2.644754	-0.166222	-0.889273
O	-2.135869	0.506142	-2.910697
N	-0.430054	-1.224401	0.628967
H	0.21331	-1.443633	1.387644
H	-1.381282	-1.155961	0.974956
C	-0.455933	1.241105	0.6153
N	-0.83161	2.214301	1.162267
H	2.640546	0.0	0.0
