16

C	-0.460496	-0.062333	-1.421902
C	0.0	0.0	0.0
F	0.151576	-1.031201	-2.093504
H	1.095487	0.0	0.0
N	-1.970567	-0.314896	-1.59445
O	-2.325242	-0.626331	-2.727976
O	-2.689381	-0.185364	-0.612015
N	-0.231897	1.243543	-2.168593
O	0.724097	1.293247	-2.9281
O	-1.032619	2.139487	-1.911773
N	-0.308301	-1.277468	0.628025
H	-1.073197	-1.193944	1.283789
H	0.53895	-1.569901	1.110776
C	-0.459366	1.167032	0.728026
N	-0.7606	2.075492	1.412792
H	2.536356	0.0	0.0
