16

C	-0.374952	-0.004539	-1.456917
C	0.0	0.0	0.0
F	0.26197	0.952647	-2.131407
H	1.09575	0.0	0.0
N	-0.029596	-1.344614	-2.097152
O	1.141992	-1.498731	-2.387114
O	-0.945246	-2.145253	-2.241691
N	-1.878876	0.174916	-1.746155
O	-2.657435	-0.094621	-0.839724
O	-2.167828	0.569397	-2.869212
N	-0.387793	-1.223261	0.662682
H	-1.30985	-1.160092	1.06839
H	0.312199	-1.428501	1.365143
C	-0.451964	1.244777	0.610228
N	-0.816829	2.23023	1.138675
H	2.55606	0.0	0.0
