16

C	-0.415679	0.060893	-1.438435
C	0.0	0.0	0.0
F	0.107529	-0.953153	-2.137907
H	1.095142	0.0	0.0
N	-1.928957	-0.023212	-1.593062
O	-2.403462	-1.151763	-1.731313
O	-2.554156	1.025427	-1.448791
N	-0.036733	1.344405	-2.162362
O	0.500714	2.231629	-1.515448
O	-0.301286	1.353006	-3.360605
N	-0.268634	-1.304145	0.596253
H	-1.003722	-1.812573	0.122609
H	0.600628	-1.823387	0.531356
C	-0.571932	1.073807	0.793747
N	-0.994317	1.928299	1.483799
H	2.483141	0.0	0.0
