16

C	-0.579182	0.018678	-1.378796
C	0.0	0.0	0.0
F	-1.932102	0.052856	-1.416217
H	1.09082	0.0	0.0
N	-0.105789	1.188667	-2.217379
O	0.660557	1.992239	-1.698936
O	-0.552075	1.220576	-3.360982
N	-0.137018	-1.213432	-2.150861
O	1.029584	-1.196526	-2.522133
O	-0.963896	-2.098268	-2.310354
N	-0.308552	-1.281693	0.615677
H	0.509786	-1.542181	1.163679
H	-1.126968	-1.241343	1.208939
C	-0.478073	1.154569	0.749102
N	-0.885704	2.044097	1.403391
H	2.533844	0.0	0.0
