15

C	-0.51955	-0.03885	-1.433142
C	0.0	0.0	0.0
Cl	-2.287034	0.064816	-1.530095
H	1.090666	0.0	0.0
C	0.04696	1.074778	-2.188834
N	0.457409	1.983039	-2.812009
N	-0.040302	-1.325066	-2.167688
O	-0.590407	-1.557206	-3.231855
O	0.876458	-1.931678	-1.643064
N	-0.460226	-1.17124	0.824864
O	-0.152377	-1.127018	2.00643
O	-1.080922	-2.06991	0.267219
C	-0.446463	1.223614	0.648983
N	-0.78936	2.223248	1.160654
Br	3.236756	0.0	0.0
