15

C	-0.443071	0.007252	-1.460618
C	0.0	0.0	0.0
Cl	0.526725	1.169629	-2.36163
H	1.091821	0.0	0.0
C	-0.32946	-1.315809	-2.064746
N	-0.23304	-2.377675	-2.560635
N	-1.947962	0.425926	-1.595559
O	-2.701647	-0.178903	-0.84809
O	-2.252552	1.309338	-2.400321
N	-0.351387	-1.288629	0.735908
O	-1.470455	-1.426163	1.209352
O	0.580911	-2.084296	0.840056
C	-0.507047	1.146305	0.713967
N	-0.90352	2.074908	1.323256
Br	2.74344	0.0	0.0
