15

C	-0.467112	-0.012856	-1.427504
C	0.0	0.0	0.0
Cl	0.132706	1.452923	-2.232684
H	1.087787	0.0	0.0
C	0.025253	-1.203601	-2.112561
N	0.468001	-2.178667	-2.604159
N	-2.019869	-0.040143	-1.522964
O	-2.584184	0.771	-0.796787
O	-2.467858	-0.429188	-2.627301
N	-0.400053	-1.299002	0.647663
O	0.354604	-1.748993	1.501309
O	-1.456188	-1.815469	0.273396
C	-0.458695	1.103696	0.808732
N	-0.714062	1.992937	1.535509
Br	2.873916	0.0	0.0
