15

C	-0.466831	-0.0034	-1.453185
C	0.0	0.0	0.0
Cl	-2.199928	-0.25457	-1.608023
H	1.094405	0.0	0.0
C	-0.085361	1.259644	-2.08827
N	0.20675	2.289479	-2.592578
N	0.301852	-1.119994	-2.262682
O	1.509156	-1.070518	-2.116365
O	-0.331788	-1.891152	-2.953338
N	-0.394896	-1.27731	0.686412
O	-0.580586	-1.225588	1.896526
O	-0.372214	-2.287231	-0.015031
C	-0.499487	1.152034	0.713182
N	-0.812932	2.228018	1.100333
Br	2.72689	0.0	0.0
