15

C	-0.501092	0.008523	-1.436496
C	0.0	0.0	0.0
Cl	0.128269	-1.39364	-2.310729
H	1.089871	0.0	0.0
C	-1.947163	0.041781	-1.544234
N	-3.113416	0.05066	-1.660009
N	0.054649	1.29495	-2.127003
O	1.146539	1.698361	-1.750927
O	-0.619576	1.781822	-3.039641
N	-0.451153	-1.260382	0.710329
O	0.42591	-1.96719	1.155292
O	-1.663036	-1.462402	0.745998
C	-0.535657	1.144776	0.706698
N	-0.964002	2.082694	1.298593
Br	2.743932	0.0	0.0
