16

C	0.0	0.0	0.0
C	-0.557666	0.358355	-1.377268
Cl	1.790835	0.0	0.0
H	-1.64776	0.416434	-1.216248
H	-0.31166	-1.02296	0.221031
C	-0.486277	0.94165	1.08314
H	-1.578455	0.914888	1.09014
H	-0.136732	1.958759	0.889044
H	-0.107901	0.625038	2.057276
C	-0.276641	-0.701666	-2.441805
H	-0.720479	-0.409245	-3.395684
H	0.79607	-0.850261	-2.582638
H	-0.734481	-1.643546	-2.130378
C	-0.086106	1.67305	-1.814125
N	0.296395	2.713118	-2.205084
Br	-3.875704	0.0	0.0
