16

C	0.0	0.0	0.0
C	-0.429332	0.150322	-1.470292
Cl	1.794263	0.0	0.0
H	0.089883	1.033835	-1.863134
H	-0.299475	-0.98594	0.36163
C	-0.558284	1.085097	0.895071
H	-0.296066	2.074704	0.511571
H	-0.153678	0.986974	1.904046
H	-1.647029	0.993484	0.944759
C	-1.939758	0.309443	-1.650921
H	-2.282611	1.267174	-1.262055
H	-2.19734	0.26057	-2.711003
H	-2.518396	-0.449628	-1.125448
C	0.059101	-0.995268	-2.246596
N	0.426495	-1.911609	-2.882826
Br	-4.981576	0.0	0.0
