16

C	0.0	0.0	0.0
C	-0.538717	0.364104	-1.384933
Cl	1.790908	0.0	0.0
H	-1.629193	0.442551	-1.238588
H	-0.3222	-1.019752	0.218828
C	-0.481074	0.949552	1.079491
H	-0.133252	0.613499	2.058649
H	-1.572784	0.956701	1.065018
H	-0.09411	1.955694	0.90036
C	-0.261615	-0.708195	-2.438548
H	-0.763577	-1.631132	-2.139622
H	-0.661548	-0.404002	-3.407882
H	0.809075	-0.895626	-2.542691
C	-0.030721	1.665722	-1.819576
N	0.386667	2.694026	-2.206211
Br	-3.837276	0.0	0.0
