16
Coordinates from ORCA-job run
  C   0.91369341278373     -0.22947475718476      0.20278541341567
  C   -0.60904352287395     -0.11138342809076      0.20358910391495
  F   1.23390710802200     -1.03548633909561      1.29630872290172
  H   -0.92590057604975      0.39101662259616      1.11911785554726
  H   1.23472307140666     -0.76376647289223     -0.69590853631798
  C   1.63000195519112      1.09221772398997      0.34261349147194
  H   1.47202766822586      1.71790424645970     -0.53773997807914
  H   1.27583218471724      1.62841457097219      1.22536032857980
  H   2.70128627717127      0.91447963767045      0.44757344775308
  C   -1.30948205512349     -1.44285077074240      0.02020295293158
  H   -1.01179007070755     -1.90131232304207     -0.92338537585090
  H   -2.39367345788525     -1.31386709704932      0.02456440275885
  H   -1.03356892669396     -2.10450936633681      0.84138090810692
  N   -0.97760145829065      0.81802077070956     -0.90685465591706
  O   -0.72721312205434      0.43587304212616     -2.04964698391053
  O   -1.47319848783893      1.90272393990977     -0.60796109730616
