16
Coordinates from ORCA-job run
  C   0.62922464748065      0.77170694078086      0.11788017755507
  C   -0.65089043761844     -0.04662006254491      0.23402019955874
  F   0.78675394738087      1.12727523826610     -1.22135380839826
  H   -0.83717618408718     -0.24003859203759      1.29426084868199
  H   0.49710485979485      1.70169369144452      0.67631713203782
  C   1.86481927281672      0.03209344867479      0.57471867994858
  H   2.05823775842105     -0.83016060548070     -0.06417021490463
  H   1.75743215247922     -0.30539307918918      1.60826871299930
  H   2.72781910089279      0.69698212101985      0.51706364767075
  C   -0.66573273374604     -1.31853421646425     -0.58416503375697
  H   0.05605306197775     -2.02705279299992     -0.17448619312749
  H   -1.65151468792682     -1.78176663364793     -0.55622980476833
  H   -0.41466774323655     -1.10845899121682     -1.62245306073466
  N   -1.77938268131937      0.87271948255426     -0.17146253895652
  O   -1.97237168392564      1.83761977393353      0.56502824690379
  O   -2.40670864938385      0.61793427690739     -1.19423699070918
