16
Coordinates from ORCA-job run
  C   0.71780401186791      0.71726694794721     -0.01948527067785
  C   -0.60112335963954     -0.00419264088786      0.20174317582872
  F   0.99663054009593      0.74203489076683     -1.38367067215363
  H   -0.71570718906139     -0.23105525480345      1.26584136365014
  H   0.62315665779409      1.75755528458076      0.29798426236458
  C   1.87113760554989      0.04370387589555      0.69315768111604
  H   2.79393677128452      0.58070923599793      0.46957540485257
  H   1.72000951034086      0.05464377344434      1.77491051036192
  H   1.99195904703850     -0.98870356612058      0.36191305156924
  C   -0.76519113894200     -1.26768097358943     -0.62868675547653
  H   -1.70943834594962     -1.75252299039549     -0.38521790184905
  H   0.04866438927479     -1.96373396177263     -0.42219338147442
  H   -0.74684233882331     -1.02123664157434     -1.69002803792425
  N   -1.77635334503542      0.89696070461001     -0.10303904099489
  O   -1.56955349356267      1.98313369896473     -0.63696976610387
  O   -2.87908932223255      0.45211761693645      0.20516537691129
