16
Coordinates from ORCA-job run
  C   0.58779173583681      0.24613279869819      0.90290114565579
  C   -0.78192206382889     -0.09798515859095      0.32659752491081
  F   0.44530477058565      1.41429685525210      1.64853037874465
  H   -1.49909340333279     -0.06930009895721      1.14860808782658
  H   0.83460228882983     -0.55306934807041      1.61168292464033
  C   1.71684836244327      0.44247400154934     -0.08125743508055
  H   1.50336637166929      1.26651713125534     -0.76065056480581
  H   2.62643712685423      0.67311381824426      0.47557393602504
  H   1.89249252680472     -0.45919578531669     -0.66987950540821
  C   -0.81756948124368     -1.42537091953619     -0.40496628682096
  H   -0.49651678507038     -2.22550408732127      0.26595940912359
  H   -0.16898678517677     -1.40876084473096     -1.27902986772496
  H   -1.83315809008190     -1.64809268318159     -0.73675133512123
  N   -1.22893197154814      1.00375822678189     -0.58826092184571
  O   -2.02456800893356      1.82247091786430     -0.13505436549973
  O   -0.75409659380770      1.02051517605985     -1.72400312461961
