16
Coordinates from ORCA-job run
  C   0.86949529470674     -0.19213808780035      0.36767370757363
  C   -0.63425835569502     -0.06883838610468      0.13116628910973
  F   1.01047214886435     -0.78520279098414      1.62331287460697
  H   -1.05889952593954      0.59618244543467      0.88514893904201
  H   1.29535550641349     -0.88404825342782     -0.36450706245239
  C   1.59943076224937      1.12949507470048      0.36619714997465
  H   1.58269579478474      1.58480729114706     -0.62569348712683
  H   1.14356075310055      1.81914778222959      1.07943126061244
  H   2.64025951705170      0.96896562144464      0.65110808062281
  C   -1.34324438592259     -1.40784512213227      0.09729001570608
  H   -1.20487443473637     -1.90645698548384      1.05667567784618
  H   -2.41297662125602     -1.27522932768039     -0.07662861021463
  H   -0.93173046927029     -2.03525263238624     -0.69401154907441
  N   -0.81665577677134      0.64054309270486     -1.17135537252924
  O   -0.42253946460451      0.05177618198893     -2.17775731910085
  O   -1.31509074297527      1.76409409634950     -1.14905059459615
