16
Coordinates from ORCA-job run
  C   0.60180925935739      0.20179567282449      0.90028798301438
  C   -0.77891639306560     -0.10657808725203      0.32514707419004
  F   0.47643614191845      1.27057017408353      1.78287793782128
  H   -1.50081104951028     -0.00580803509173      1.13760017614688
  H   0.89504987645803     -0.66797698899450      1.49908810140081
  C   1.67495357967702      0.54389715894143     -0.10733296508650
  H   2.62371550788654      0.67199609787250      0.41559690443305
  H   1.43476630294964      1.47751080432615     -0.61684988147901
  H   1.79071510137071     -0.24101370578710     -0.85567618712061
  C   -0.86373619305134     -1.46732246887242     -0.33659817076160
  H   -0.69384107863279     -2.24443907429933      0.41195413346194
  H   -1.85320137142776     -1.62136986966089     -0.76933348732147
  H   -0.12883193200810     -1.57127306927962     -1.13312550254755
  N   -1.14781268800947      0.97555714466363     -0.64582062034863
  O   -0.81340172143854      0.81912987434538     -1.81986457733220
  O   -1.71589334247391      1.96432437218052     -0.18895091847080
