15

C	-0.077988	-0.023537	-1.53205
C	0.0	0.0	0.0
Cl	-1.710611	-0.520358	-2.159103
H	1.098491	0.0	0.0
H	0.065458	0.995991	-1.89694
N	0.947841	-0.859605	-2.121552
H	1.794389	-0.620864	-1.569539
H	0.731951	-1.826963	-1.903324
C	-0.47729	-1.266629	0.695232
H	-0.181457	-1.239818	1.74628
H	0.013379	-2.131301	0.242278
H	-1.560896	-1.399353	0.630304
C	-0.586964	1.195153	0.564346
N	-1.07517	2.157546	1.033705
F	2.635286	0.0	0.0
