15

C	-0.18149	0.132067	-1.532642
C	0.0	0.0	0.0
Cl	-0.076873	-1.515269	-2.294684
H	1.096883	0.0	0.0
H	-1.171512	0.498441	-1.822159
N	0.855131	0.963316	-2.087614
H	0.602624	1.928196	-1.895917
H	1.703241	0.744294	-1.540638
C	-0.600255	-1.200955	0.714002
H	-0.481355	-1.081475	1.793232
H	-0.064659	-2.101132	0.414058
H	-1.665254	-1.334943	0.495637
C	-0.478787	1.251374	0.561247
N	-0.890515	2.266049	0.993472
F	2.622998	0.0	0.0
