15

C	-0.46139	-0.061997	-1.440615
C	0.0	0.0	0.0
Cl	0.150558	1.431213	-2.335052
H	1.093889	0.0	0.0
H	0.066752	-0.880256	-1.931471
N	-1.873422	-0.226121	-1.584813
H	-2.135271	-0.21228	-2.563112
H	-2.346486	0.542718	-1.121556
C	-0.346206	-1.302709	0.72984
H	0.084177	-1.262462	1.732837
H	0.144687	-2.12607	0.203968
H	-1.419077	-1.502452	0.792175
C	-0.583286	1.141047	0.677201
N	-1.098631	2.045935	1.226292
F	2.560181	0.0	0.0
