15

C	-0.342275	0.002659	-1.465706
C	0.0	0.0	0.0
Cl	-2.215124	0.353169	-1.720952
H	1.096448	0.0	0.0
H	0.110486	0.86341	-1.952508
N	0.027683	-1.181208	-2.129198
H	-0.152986	-1.113632	-3.120722
H	-0.459458	-1.982507	-1.754389
C	-0.455341	-1.241602	0.756476
H	-0.168022	-1.143748	1.804987
H	-1.537235	-1.407138	0.700905
H	0.079909	-2.110699	0.366523
C	-0.453196	1.215628	0.647009
N	-0.79424	2.192716	1.205665
F	2.553542	0.0	0.0
