15

C	-0.077257	-0.0346	-1.532731
C	0.0	0.0	0.0
Cl	-1.710601	-0.529558	-2.160003
H	1.098423	0.0	0.0
H	0.068847	0.980547	-1.90502
N	0.947459	-0.877912	-2.113706
H	1.794477	-0.640963	-1.561366
H	0.726693	-1.842491	-1.890292
C	-0.477473	-1.26293	0.701846
H	-0.184431	-1.229479	1.753479
H	0.015261	-2.129848	0.255303
H	-1.560729	-1.397414	0.635279
C	-0.587228	1.198652	0.557243
N	-1.075829	2.164316	1.019961
F	2.634545	0.0	0.0
