11

C	-0.327573	-0.003465	-1.491938
C	0.0	0.0	0.0
Br	0.279497	1.672402	-2.300694
H	1.09262	0.0	0.0
H	0.271028	-0.780542	-1.970775
H	-0.398305	0.894218	0.484407
C	-1.737391	-0.169467	-1.831173
N	-2.877232	-0.309543	-2.08136
C	-0.525642	-1.196899	0.626375
N	-0.948234	-2.174456	1.125881
F	2.534421	0.0	0.0
