11

C	-0.248492	0.055731	-1.48565
C	0.0	0.0	0.0
Br	-2.106653	0.563582	-2.009244
H	1.095455	0.0	0.0
H	0.38066	0.844201	-1.900182
H	-0.316444	0.940737	0.458252
C	0.057888	-1.196609	-2.165813
N	0.281218	-2.211342	-2.714081
C	-0.625766	-1.119922	0.662739
N	-1.12224	-2.028966	1.219644
F	2.510203	0.0	0.0
