15

C	-0.505006	0.052455	-1.42605
C	0.0	0.0	0.0
Br	0.345546	-1.298922	-2.539261
H	1.091219	0.0	0.0
H	-0.340698	0.916013	0.492739
C	-1.951367	-0.125031	-1.527258
N	-3.117837	-0.272364	-1.548045
N	-0.207418	1.417438	-2.090981
O	0.489694	2.200022	-1.46584
O	-0.713993	1.598484	-3.191843
C	-0.493838	-1.23139	0.752717
H	-1.584083	-1.269038	0.834576
H	-0.070763	-1.210313	1.758938
H	-0.142768	-2.147035	0.273712
Br	3.573486	0.0	0.0
