15

C	-0.481355	-0.007297	-1.437278
C	0.0	0.0	0.0
Br	0.127659	1.571619	-2.387592
H	1.093184	0.0	0.0
H	-0.340421	0.937472	0.447096
C	-0.060317	-1.182412	-2.189211
N	0.290829	-2.132336	-2.787049
N	-2.022232	0.027584	-1.438236
O	-2.541396	0.989787	-0.891457
O	-2.609457	-0.9359	-1.917958
C	-0.515582	-1.207612	0.776302
H	-0.202129	-2.142464	0.306135
H	-1.605148	-1.212231	0.88021
H	-0.077165	-1.185073	1.776019
Br	3.530247	0.0	0.0
