15

C	-0.458213	-0.009776	-1.453929
C	0.0	0.0	0.0
Br	0.278115	1.459183	-2.469821
H	1.092931	0.0	0.0
H	-0.333691	-0.950336	0.430411
C	-0.119035	-1.252697	-2.137019
N	0.137006	-2.25289	-2.698877
N	-2.001319	0.082857	-1.44315
O	-2.539188	1.156579	-1.663632
O	-2.561974	-0.955455	-1.105424
C	-0.532748	1.175267	0.805731
H	-1.617041	1.135399	0.945339
H	-0.274199	2.125559	0.336358
H	-0.059155	1.154647	1.789114
Br	3.527984	0.0	0.0
