15

C	-0.527334	-0.01592	-1.421443
C	0.0	0.0	0.0
Br	0.30434	-1.419944	-2.488353
H	1.091119	0.0	0.0
H	-0.336698	0.943754	0.446198
C	-1.975831	-0.197585	-1.48446
N	-3.13836	-0.37226	-1.457678
N	-0.201396	1.303729	-2.141214
O	0.839117	1.852719	-1.819959
O	-1.004015	1.676582	-2.993041
C	-0.494728	-1.186307	0.821005
H	-1.583967	-1.21412	0.912312
H	-0.152827	-2.12608	0.383729
H	-0.062145	-1.118125	1.820574
Br	3.645001	0.0	0.0
