15

C	-0.480903	-0.018518	-1.416701
C	0.0	0.0	0.0
Br	0.178597	-1.591139	-2.353866
H	1.097287	0.0	0.0
H	-0.328996	0.934582	0.46847
C	-1.977329	0.015195	-1.570579
N	-2.818766	-0.072683	-2.402871
N	-0.060902	1.233953	-2.173189
O	0.049603	1.200239	-3.427169
O	-0.29856	2.315784	-1.569362
C	-0.51071	-1.175759	0.822452
H	-0.128878	-1.084899	1.845692
H	-1.606591	-1.203365	0.876627
H	-0.154905	-2.13056	0.42573
Br	2.715681	0.0	0.0
