15

C	-0.479284	0.170026	-1.435546
C	0.0	0.0	0.0
Br	0.252879	1.747116	-2.279376
H	1.094276	0.0	0.0
H	-0.331939	-0.994762	0.315557
C	-0.168093	-0.982615	-2.273241
N	0.056466	-1.913914	-2.954563
N	-2.022046	0.269173	-1.382611
O	-2.55877	1.361132	-1.479028
O	-2.581796	-0.795943	-1.141308
C	-0.522093	1.067659	0.95086
H	-0.035028	0.927899	1.917704
H	-0.269701	2.068568	0.598089
H	-1.604358	1.009453	1.099647
Br	3.533139	0.0	0.0
