15

C	-0.484056	0.000277	-1.445736
C	0.0	0.0	0.0
Br	0.275216	1.444328	-2.478756
H	1.092792	0.0	0.0
H	-0.335105	-0.947572	0.435413
C	-0.197777	-1.254544	-2.131159
N	0.020802	-2.264194	-2.69102
N	-2.022925	0.136614	-1.398751
O	-2.535838	1.224316	-1.609472
O	-2.602471	-0.882942	-1.038499
C	-0.514774	1.178926	0.814178
H	-0.265053	2.127517	0.336164
H	-0.019752	1.161105	1.787388
H	-1.596075	1.140698	0.97748
Br	3.536546	0.0	0.0
