16

C	0.0	0.0	0.0
C	-0.647561	0.192486	-1.363003
Br	1.940647	0.0	0.0
H	-0.523585	-0.729407	-1.930812
H	-1.713705	0.386376	-1.172905
N	-0.351171	1.202205	0.895147
O	0.016764	2.298693	0.488596
O	-0.94063	0.973339	1.942712
C	-0.54514	-1.266683	0.613187
H	-0.259179	-2.115122	-0.009182
H	-0.155936	-1.407991	1.617195
H	-1.634964	-1.164686	0.637781
N	-0.094701	1.273339	-2.224739
O	0.861741	0.969118	-2.943114
O	-0.642487	2.371109	-2.20202
Cl	-3.797356	0.0	0.0
