16

C	0.0	0.0	0.0
C	-0.641682	0.210983	-1.364322
Br	1.954958	0.0	0.0
H	-0.558577	-0.721232	-1.921431
H	-1.698149	0.446561	-1.182369
N	-0.338674	1.185682	0.906887
O	-0.483473	0.960852	2.100641
O	-0.375697	2.284293	0.366328
C	-0.523788	-1.278726	0.608355
H	-1.61707	-1.208397	0.634515
H	-0.214658	-2.121861	-0.012393
H	-0.132646	-1.40645	1.615371
N	-0.057454	1.251599	-2.259461
O	1.020442	0.979487	-2.791851
O	-0.706405	2.272399	-2.464799
Cl	-3.729075	0.0	0.0
