16

C	0.0	0.0	0.0
C	-0.392624	0.251768	-1.462454
Br	1.956374	0.0	0.0
H	0.35131	-0.23813	-2.106462
H	-0.340616	0.857357	0.571407
C	-0.415778	-1.30679	0.653369
H	-1.50834	-1.26433	0.653958
H	-0.039656	-2.168416	0.100768
H	-0.012249	-1.332223	1.670656
N	-0.486815	1.677382	-1.704235
H	0.446013	2.015695	-1.910036
H	-1.074987	1.80827	-2.52028
N	-1.64619	-0.442463	-1.958445
O	-2.402773	0.195414	-2.683583
O	-1.63165	-1.664393	-1.870837
F	-2.609557	0.0	0.0
