16

C	0.0	0.0	0.0
C	-0.42047	0.004503	-1.49905
Br	1.94894	0.0	0.0
H	0.457118	0.176341	-2.127454
H	-0.312415	0.964295	0.394158
C	-0.527594	-1.130291	0.857716
H	-1.620782	-1.069052	0.754959
H	-0.128042	-2.089352	0.525984
H	-0.23156	-0.969452	1.897641
N	-1.437664	0.931471	-1.748693
H	-2.243276	0.660353	-1.095537
H	-1.717593	0.879296	-2.721
N	-0.755887	-1.46288	-1.931583
O	-1.865243	-1.703155	-2.394024
O	0.164381	-2.280894	-1.852671
F	-2.979191	0.0	0.0
