16

C	0.0	0.0	0.0
C	-0.463782	-0.084016	-1.479179
Br	1.952655	0.0	0.0
H	0.380909	0.118712	-2.144684
H	-0.269375	1.009613	0.306912
C	-0.620761	-1.001111	0.945097
H	-0.349658	-0.759176	1.975944
H	-1.709215	-0.876152	0.803254
H	-0.298462	-2.018426	0.722838
N	-1.548677	0.762751	-1.726305
H	-2.350152	0.511081	-1.041343
H	-1.857054	0.648443	-2.683934
N	-0.720282	-1.591264	-1.831884
O	0.212356	-2.374456	-1.64059
O	-1.791421	-1.893424	-2.347907
F	-3.202425	0.0	0.0
