16

C	0.0	0.0	0.0
C	-0.355232	0.003067	-1.516385
Br	1.956003	0.0	0.0
H	0.305354	0.729768	-1.994963
H	-0.275511	0.997232	0.34526
C	-0.639974	-1.037002	0.886719
H	-0.341921	-2.0465	0.613887
H	-1.725691	-0.894918	0.750253
H	-0.371622	-0.845525	1.929921
N	-1.700431	0.206837	-1.897134
H	-1.816016	1.185751	-2.132166
H	-2.424295	-0.00731	-1.120721
N	0.112272	-1.308115	-2.148621
O	-0.424734	-2.346488	-1.772514
O	0.956183	-1.242375	-3.044527
F	-3.30754	0.0	0.0
