15

C	-0.352982	0.131195	-1.485294
C	0.0	0.0	0.0
Br	-0.271671	-1.702696	-2.395181
H	1.097157	0.0	0.0
H	-1.399289	0.392011	-1.654893
N	0.518808	1.073227	-2.056881
H	1.488926	0.862298	-1.823498
H	0.401006	1.164316	-3.055766
C	-0.554261	-1.181065	0.644017
N	-1.051198	-2.069465	1.23085
C	-0.456067	1.259324	0.751358
H	-0.012099	2.134576	0.278519
H	-0.113851	1.209849	1.786749
H	-1.546774	1.353694	0.745467
Cl	3.345383	0.0	0.0
