15

C	-0.561628	0.014897	-1.423113
C	0.0	0.0	0.0
Br	0.190081	-1.45177	-2.467295
H	1.094819	0.0	0.0
H	-1.637703	-0.210821	-1.387136
N	-0.24709	1.26612	-2.091033
H	-0.321395	1.149406	-3.093809
H	-0.922894	1.965974	-1.804509
C	-0.497421	-1.186319	0.694636
N	-0.954115	-2.116386	1.248432
C	-0.44208	1.259999	0.75772
H	0.040959	2.126605	0.306794
H	-0.110494	1.19621	1.795626
H	-1.531612	1.386245	0.748512
Cl	3.398585	0.0	0.0
