15

C	-0.37688	0.173787	-1.486878
C	0.0	0.0	0.0
Br	-0.348384	-1.565927	-2.420151
H	1.096726	0.0	0.0
H	-1.409521	0.514733	-1.592174
N	0.502528	1.069299	-2.183733
H	1.463225	0.88129	-1.898791
H	0.274459	2.026941	-1.949392
C	-0.566527	-1.178505	0.637739
N	-1.078819	-2.09013	1.173817
C	-0.425396	1.251221	0.783092
H	0.051386	2.135271	0.355838
H	-1.512659	1.382624	0.775842
H	-0.088498	1.168745	1.817903
Cl	3.343647	0.0	0.0
