15

C	-0.499272	-0.017455	-1.461051
C	0.0	0.0	0.0
Br	4.8e-05	1.653136	-2.350059
H	1.0954	0.0	0.0
H	0.054753	-0.789994	-1.996343
N	-1.914088	-0.230322	-1.676988
H	-2.157506	-1.149907	-1.322425
H	-2.447632	0.459369	-1.161197
C	-0.452165	-1.267651	0.577164
N	-0.859211	-2.294009	0.981178
C	-0.497345	1.167492	0.851907
H	-1.589644	1.238303	0.865055
H	-0.150103	1.036355	1.878093
H	-0.080097	2.099399	0.472415
Cl	3.345319	0.0	0.0
