15

C	-0.501147	-0.010487	-1.443776
C	0.0	0.0	0.0
Br	0.302188	1.554964	-2.427341
H	1.094165	0.0	0.0
H	-0.073352	-0.861513	-1.972058
N	-1.919768	-0.0402	-1.535982
H	-2.214734	-0.11436	-2.500997
H	-2.318784	0.805383	-1.148223
C	-0.446384	-1.252361	0.616378
N	-0.814205	-2.247603	1.120737
C	-0.481957	1.189472	0.832847
H	-0.008104	1.144667	1.814587
H	-0.17485	2.120896	0.355835
H	-1.566662	1.185429	0.976699
Cl	3.362061	0.0	0.0
