17
Coordinates from ORCA-job run
  C   0.91435250167331     -0.51719962346025      0.14098370815745
  C   -0.54909272242194     -0.08260883612588      0.23474158857265
  Br  1.40280718907750     -1.02269469782328     -1.69942413257171
  H   -0.69321788531486      0.11904071061091      1.30746669983599
  H   1.03577695689273     -1.44917374089400      0.69967023181740
  C   1.91123883721420      0.51530719096847      0.63787216052205
  H   1.92839892119489      1.39623888414181     -0.00437942937387
  H   1.63829596143019      0.82636825942032      1.65185451122356
  H   2.91909618027220      0.09822389375248      0.66451387790203
  C   -1.51039823952796     -1.20236675012752     -0.15524697906035
  H   -1.27462322258681     -2.13226975123384      0.37028479356133
  H   -1.46491566427643     -1.39969091577099     -1.22817934090252
  H   -2.53763480748942     -0.92446822402327      0.09499935671680
  C   -0.86196226590486      1.19988147051837     -0.53046891799670
  H   -0.68644337779012      1.06456645603591     -1.60012087013167
  H   -1.91291239290214      1.46734464011177     -0.39349357744251
  H   -0.26076596954048      2.04450103389901     -0.18807368082994
