17
Coordinates from ORCA-job run
  C   1.02944339020319     -0.40426222037535     -0.34306202894676
  C   -0.44126900441447     -0.11351269690897     -0.65616110619341
  Br  2.18575397895575      0.45874100547418     -1.68363931041268
  H   -0.58549220571842     -0.34279290997501     -1.71839061125948
  H   1.21714602142120     -1.46961586845250     -0.49984502926866
  C   1.49969992842157      0.00876180875989      1.04056880557838
  H   2.53361626120789     -0.30067458001656      1.20024788440252
  H   1.44859286790912      1.09037803322678      1.17066716846152
  H   0.88079806917144     -0.46679503513004      1.80667464858839
  C   -0.83593693605590      1.34138730531010     -0.42213057749291
  H   -0.81687131090278      1.59154596416065      0.64190323954734
  H   -1.85400390686148      1.51424296889267     -0.78060091959991
  H   -0.17286989781738      2.02861993936106     -0.95090016945077
  C   -1.34179367473856     -1.05543588723233      0.14768258411941
  H   -2.38176622608874     -0.93776546818108     -0.16792298771853
  H   -1.06501210378949     -2.10307427805336     -0.00121062474280
  H   -1.29903525090294     -0.83874808086014      1.21811903438834
