11
Coordinates from ORCA-job run
  C   1.08145599874246     -0.37924777505372     -0.01907467894536
  C   -0.36751808503206      0.01045095386861     -0.32694370129875
  Cl  1.44960007929279     -2.02185049044160     -0.59230586558269
  H   -0.54031849711176     -0.13980237099445     -1.39752392304628
  H   1.26462383367250     -0.34327433398028      1.05575352545731
  H   1.75276803236007      0.31187755368673     -0.53029523545716
  N   -0.68913908560844      1.39320903143315     -0.00636874723690
  H   -0.12696629294506      2.02392070326819     -0.56429165840189
  H   -0.52072531556446      1.58565336525032      0.97377297260822
  C   -1.29268264969472     -0.87383753066378      0.39564075783765
  N   -2.01209801811133     -1.56709910637317      1.01063655406585
