11
Coordinates from ORCA-job run
  C   1.09712562118530     -0.51816088078921     -0.29259613665381
  C   -0.32342342573919      0.03948671542042     -0.25917578554037
  Cl  1.75280332866376     -0.81078724382689      1.32637975478620
  H   -0.64808178411053      0.08267831489883     -1.31332495680040
  H   1.10910338039209     -1.46069566505263     -0.84036958790044
  H   1.74909961812151      0.19745121001674     -0.79769536681725
  N   -0.36226732498644      1.32459194674174      0.42320131960470
  H   0.16404949971569      2.00807079393620     -0.10843606176776
  H   -1.31631993606375      1.65377735313751      0.50210617812264
  C   -1.23353970016193     -0.89403712880788      0.41660688465897
  N   -1.98754927701649     -1.62237541567484      0.94330375830752
