11
Coordinates from ORCA-job run
  C   1.11801900990412     -0.49323026044129     -0.24601423334093
  C   -0.31725649410438      0.02558237871131     -0.26729186749323
  Cl  1.73354902371112     -0.72757074149157      1.39816970785202
  H   -0.61260634504166      0.03424292076729     -1.33086103941546
  H   1.76505893106089      0.22758816296491     -0.75012330929264
  H   1.17181903742086     -1.44834544260660     -0.76884688344303
  N   -0.41068380708373      1.32503308917785      0.38153392092586
  H   -1.37468417371495      1.63148254194242      0.42103362317508
  H   0.11611649386900      2.00912987204483     -0.14878123806433
  C   -1.22097145327302     -0.91768809898532      0.40386559717037
  N   -1.96836022274825     -1.66822442208383      0.90831572192628
