15

C	-0.310108	-0.087738	-1.483318
C	0.0	0.0	0.0
F	-1.669093	-0.398709	-1.72897
H	1.093429	0.0	0.0
H	-0.423476	0.915213	0.431847
C	-0.099962	1.231742	-2.114366
N	0.020258	2.285315	-2.619204
C	0.583269	-1.13493	-2.116888
H	0.483471	-1.151999	-3.204263
H	0.295293	-2.099683	-1.696845
H	1.604724	-0.900884	-1.794599
N	-0.425061	-1.234128	0.664946
H	-1.279786	-1.098022	1.185694
H	0.311396	-1.489643	1.309055
F	2.699643	0.0	0.0
