13

C	-0.30249	0.00403	-1.473349
C	0.0	0.0	0.0
F	-1.668063	0.075674	-1.751393
H	1.094665	0.0	0.0
H	0.172667	0.884896	-1.907151
C	0.226215	-1.213819	-2.102327
N	0.597623	-2.202953	-2.612604
C	-0.57082	-1.118451	0.711963
N	-1.003528	-2.067765	1.254097
N	-0.399856	1.285488	0.612205
O	-0.316723	2.292629	-0.089546
O	-0.715623	1.283607	1.800491
F	2.422729	0.0	0.0
