13

C	-0.384744	0.009212	-1.45444
C	0.0	0.0	0.0
F	-1.765832	0.100045	-1.636834
H	1.094624	0.0	0.0
H	0.068553	0.885557	-1.915721
C	0.077168	-1.213864	-2.122875
N	0.393401	-2.204914	-2.665875
C	-0.554425	-1.113034	0.735625
N	-0.979586	-2.058717	1.289748
N	-0.39028	1.289238	0.619186
O	-0.73971	1.285626	1.797799
O	-0.26867	2.29948	-0.0739
F	2.424862	0.0	0.0
