13

C	-0.427678	0.077109	-1.4666
C	0.0	0.0	0.0
F	-0.40926	-1.203444	-1.994986
H	1.091315	0.0	0.0
H	-1.444398	0.462827	-1.572559
C	0.471148	0.915651	-2.274896
N	1.090308	1.577647	-3.020214
C	-0.54587	-1.160334	0.662639
N	-0.978307	-2.120056	1.186095
N	-0.404253	1.228457	0.700739
O	-0.611878	2.224941	-0.00288
O	-0.445835	1.214091	1.928465
F	2.421616	0.0	0.0
