13

C	-0.443101	0.046875	-1.461496
C	0.0	0.0	0.0
F	-0.333305	-1.232409	-1.983808
H	1.091248	0.0	0.0
H	-1.48704	0.357227	-1.564323
C	0.393284	0.945584	-2.272974
N	0.976007	1.644163	-3.013191
C	-0.523838	-1.161104	0.681687
N	-0.931525	-2.119307	1.22733
N	-0.425407	1.224971	0.696113
O	-0.75269	2.187783	-0.008716
O	-0.383299	1.236032	1.922711
F	2.423374	0.0	0.0
