15

C	0.0	0.0	0.0
C	-0.559688	-0.075685	-1.409309
Cl	1.78174	0.0	0.0
H	-1.664744	-0.005446	-1.288117
H	-0.319966	0.955149	0.414449
C	-0.493325	-1.15733	0.847288
H	-0.141406	-1.032561	1.872903
H	-1.58524	-1.154019	0.835996
H	-0.112706	-2.105869	0.461269
C	-0.193279	-1.299115	-2.108101
N	0.05193	-2.313885	-2.646564
N	-0.139882	1.126144	-2.217521
O	-0.245581	2.21026	-1.655536
O	0.238221	0.950259	-3.371644
Br	-3.750476	0.0	0.0
