15

C	0.0	0.0	0.0
C	-0.289171	-0.184534	-1.514578
Cl	1.784348	0.0	0.0
H	0.241954	0.623421	-2.022397
H	-0.343154	1.003314	0.255037
C	-0.542561	-1.021574	0.970054
H	-0.133204	-2.009928	0.770031
H	-1.631713	-1.030399	0.87774
H	-0.27342	-0.718936	1.984994
C	-1.620385	-0.240499	-2.133713
N	-2.348795	-0.28974	-3.060055
N	0.40471	-1.431384	-2.044857
O	0.074332	-2.508145	-1.56279
O	1.222877	-1.265428	-2.944434
Br	-3.794591	0.0	0.0
