15

C	0.0	0.0	0.0
C	-0.280689	-0.097413	-1.523412
Cl	1.783939	0.0	0.0
H	0.317591	0.690005	-1.988002
H	-0.344588	0.989118	0.304502
C	-0.572583	-1.060864	0.903694
H	-0.320263	-0.817467	1.937957
H	-0.181335	-2.046877	0.662235
H	-1.661922	-1.045218	0.792951
C	-1.60331	-6e-05	-2.146977
N	-2.381799	0.085917	-3.025947
N	0.319544	-1.369005	-2.0998
O	-0.136948	-2.435652	-1.70405
O	1.20198	-1.229618	-2.943366
Br	-3.87713	0.0	0.0
