16
Coordinates from ORCA-job run
  C   0.41897755458232      0.02213465525028      0.24996265360597
  C   -0.93223688150789     -0.67848228703800      0.12195998980907
  Cl  0.65655057468438      0.46683758481608      1.97877331852201
  H   -1.07225600855737     -1.00708577309255     -0.90954015651756
  H   -0.99442314543732     -1.51748868465164      0.81311743132970
  C   0.53054523145961      1.28506178663240     -0.58759608741188
  H   -0.17802506748882      2.04760622423791     -0.26869622524916
  H   0.33358424032382      1.05479108520028     -1.63814128491188
  H   1.54022034454817      1.68965546078109     -0.49737193186620
  C   1.49864636362518     -0.98514505461174     -0.12426895845459
  H   2.48554502870339     -0.54374855208349      0.02297282827820
  H   1.43062240272768     -1.88375377238705      0.49205300082523
  H   1.39774789388513     -1.26636965526697     -1.17667494952532
  N   -2.08448250707372      0.21243849084495      0.43242319901641
  O   -2.60397684489478      0.10302104937178      1.54018965183869
  O   -2.42703917957976      1.00052744199667     -0.44916247928869
