16
Coordinates from ORCA-job run
  C   0.42217574454466      0.06261633000980      0.23767288927379
  C   -0.95011627026150     -0.60692319904269      0.27147652464790
  Cl  0.69260936014190      0.86355676039824      1.82783267114199
  H   -1.11091882495544     -1.14842395173288     -0.66262336684175
  H   -1.02892048126513     -1.27301812949558      1.12915593041334
  C   0.56071466805843      1.11029861143211     -0.85423394629215
  H   1.58317189785155      1.49218195749189     -0.85969614805028
  H   -0.12055476533548      1.94601833094975     -0.70366774725209
  H   0.34350291515994      0.66471381825385     -1.82875480243332
  C   1.46778755904765     -1.03460499877425      0.08523842950019
  H   2.46875430775544     -0.60275491586839      0.13029011934034
  H   1.37970417347266     -1.77706113633549      0.88084474162811
  H   1.34760810873865     -1.53234605437233     -0.88152715912451
  N   -2.07220509273789      0.36589902298943      0.38431488431312
  O   -2.58291885792721      0.51687927158642      1.49127495172805
  O   -2.39939444228823      0.95396828251012     -0.64659797199272
