16
Coordinates from ORCA-job run
  C   0.48705336140170      0.06031376736243      0.42143419622210
  C   -0.95178058745539     -0.31743905170405      0.78413625082107
  Cl  1.34275129187018      0.05907769529969      2.01251210726854
  H   -0.98745342362268     -1.30908697384667      1.23291593050838
  H   -1.38945261945769      0.42829379518718      1.44624601489311
  C   0.58581241870955      1.45896566932266     -0.16285035196693
  H   0.12107523429242      2.19413818862426      0.49615394979716
  H   0.08643000466612      1.50165483153419     -1.13311381524514
  H   1.63469573988036      1.72804962478367     -0.29878509136734
  C   1.14934699958178     -0.97774248962109     -0.46795060695287
  H   1.08134730072930     -1.97402406899080     -0.02803278818362
  H   2.20323796465356     -0.72828750295285     -0.60252423934039
  H   0.66876348752138     -1.00062234503229     -1.44833181247017
  N   -1.80383020540649     -0.36441505196271     -0.43856903185334
  O   -2.35920833138796      0.68025053268696     -0.77708709767563
  O   -1.86778863597613     -1.43712662069057     -1.03815361445491
