18

C	0.0	0.0	0.0
C	-0.429349	-0.071312	-1.472216
F	1.404508	0.0	0.0
H	-1.511729	-0.221284	-1.477255
N	-0.461165	1.238636	0.56697
H	-0.310098	1.19984	1.570374
H	-1.477198	1.231007	0.439507
C	-0.407263	-1.235838	0.781393
H	-0.018047	-1.153934	1.802897
H	-0.004738	-2.132838	0.311608
H	-1.49679	-1.2895	0.810912
N	0.211176	-1.229677	-2.082372
H	-0.03757	-1.205206	-3.064665
H	1.214638	-1.084475	-2.030741
N	-0.13898	1.161354	-2.213686
H	-0.827252	1.85555	-1.941795
H	0.749399	1.516998	-1.870157
Cl	-3.726374	0.0	0.0
