18

C	0.0	0.0	0.0
C	-0.333775	0.142621	-1.513036
F	1.388867	0.0	0.0
H	0.337629	-0.593205	-1.979929
N	-0.471315	1.143141	0.746522
H	-1.488224	1.156418	0.660067
H	-0.268443	0.997933	1.730651
C	-0.459155	-1.33401	0.552232
H	-0.036991	-1.477245	1.551597
H	-1.549476	-1.34877	0.614786
H	-0.115187	-2.153274	-0.085607
N	0.053976	1.47951	-1.951227
H	-0.086215	2.121444	-1.179946
H	-0.580099	1.726247	-2.701288
N	-1.670013	-0.184918	-1.958228
H	-2.399741	0.267722	-1.410288
H	-1.851779	-1.176308	-1.856094
Cl	-4.204086	0.0	0.0
