18

C	0.0	0.0	0.0
C	-0.47158	0.003801	-1.478265
F	1.425935	0.0	0.0
H	0.438285	-0.118471	-2.07786
N	-0.450425	1.169063	0.663082
H	-0.093891	1.200133	1.607947
H	-0.187841	1.994333	0.14136
C	-0.414435	-1.218286	0.794686
H	-1.499951	-1.222054	0.887035
H	0.036924	-1.152384	1.790071
H	-0.079548	-2.131287	0.306028
N	-1.025279	1.32625	-1.801508
H	-1.922352	1.3924	-1.313303
H	-1.226649	1.341724	-2.796946
N	-1.330664	-1.143431	-1.747368
H	-1.548411	-1.141388	-2.738787
H	-2.219468	-0.992784	-1.260648
Cl	-4.011945	0.0	0.0
