18

C	0.0	0.0	0.0
C	-0.450923	0.237178	-1.449601
F	1.40949	0.0	0.0
H	-1.511486	-0.029091	-1.453508
N	-0.443729	1.017732	0.899682
H	-0.371681	1.900015	0.401745
H	-1.436189	0.853783	1.067449
C	-0.431283	-1.364532	0.495017
H	-1.521876	-1.416066	0.521879
H	-0.045778	-2.134242	-0.17365
H	-0.029069	-1.508755	1.499819
N	0.272464	-0.655176	-2.337289
H	1.261125	-0.443717	-2.276737
H	-0.041545	-0.524556	-3.290985
N	-0.330174	1.67433	-1.78274
H	-1.235688	2.021915	-2.07234
H	0.319372	1.791951	-2.549001
Cl	-3.781234	0.0	0.0
