18

C	0.0	0.0	0.0
C	-0.324582	-0.036298	-1.523778
F	1.387588	0.0	0.0
H	0.365083	-0.805803	-1.89877
N	-0.478006	1.218481	0.608226
H	-1.496134	1.211569	0.53228
H	-0.261567	1.196572	1.599899
C	-0.459351	-1.260991	0.701934
H	-0.094255	-2.149599	0.178529
H	-1.550652	-1.280021	0.741161
H	-0.061506	-1.273995	1.721757
N	0.044344	1.250634	-2.107228
H	-0.596717	1.400774	-2.876747
H	-0.106148	1.971743	-1.410526
N	-1.65023	-0.433173	-1.943778
H	-2.39547	0.046833	-1.439691
H	-1.808109	-1.420076	-1.775854
Cl	-4.172915	0.0	0.0
