18

C	0.0	0.0	0.0
C	-0.32338	0.375982	-1.477899
F	1.402746	0.0	0.0
H	0.53255	-0.034176	-2.027147
N	-0.467099	1.001199	0.920333
H	-0.341642	0.645815	1.863325
H	-1.476411	1.075743	0.784683
C	-0.415871	-1.415474	0.348869
H	-1.503639	-1.478003	0.392088
H	-0.049182	-2.122111	-0.398207
H	0.00776	-1.676096	1.326003
N	-0.300562	1.823166	-1.735546
H	0.51082	2.210707	-1.260551
H	-1.108169	2.2301	-1.271218
N	-1.512044	-0.267606	-1.97241
H	-1.722835	0.129718	-2.880224
H	-2.322801	-0.110839	-1.371099
Cl	-4.044438	0.0	0.0
