18

C	0.0	0.0	0.0
C	-0.506713	0.140505	-1.437526
F	1.423487	0.0	0.0
H	-1.512143	-0.295067	-1.437599
N	-0.438137	1.111853	0.768451
H	0.060579	1.938065	0.464548
H	-0.286594	0.951248	1.754654
C	-0.460372	-1.301919	0.605593
H	-0.003375	-1.434263	1.591364
H	-0.15302	-2.125005	-0.040645
H	-1.54876	-1.274577	0.693449
N	0.341864	-0.635128	-2.319572
H	-0.068228	-0.659356	-3.245601
H	1.242088	-0.172945	-2.374907
N	-0.56284	1.569306	-1.800524
H	-1.367384	1.943055	-1.300222
H	-0.805382	1.612778	-2.785517
Cl	-4.012399	0.0	0.0
