18

C	0.0	0.0	0.0
C	-0.512956	-0.04915	-1.435748
F	1.422156	0.0	0.0
H	-1.570226	0.232689	-1.360777
N	-0.429731	1.237173	0.556815
H	-0.152091	1.982572	-0.069676
H	-0.005339	1.371725	1.465073
C	-0.46648	-1.158076	0.84542
H	-0.012953	-2.086983	0.495664
H	-0.163285	-0.997139	1.883962
H	-1.55804	-1.200817	0.800385
N	-0.329678	-1.393208	-2.010561
H	-0.989209	-2.013485	-1.548442
H	-0.649076	-1.339634	-2.973373
N	0.191114	0.962697	-2.203337
H	-0.288605	1.121618	-3.080401
H	1.122468	0.611431	-2.396735
Cl	-4.097859	0.0	0.0
