18

C	0.0	0.0	0.0
C	-0.269617	0.376812	-1.47954
F	1.416533	0.0	0.0
H	0.288471	-0.362759	-2.078789
N	-0.469553	0.959396	0.943023
H	-0.444057	1.869584	0.493098
H	-1.436872	0.747166	1.170383
C	-0.476475	-1.386746	0.351671
H	-1.568238	-1.419191	0.324669
H	-0.13225	-1.637588	1.357155
H	-0.067745	-2.114965	-0.353577
N	0.240038	1.737895	-1.665805
H	1.251634	1.73152	-1.635399
H	-0.072391	2.044149	-2.578155
N	-1.632501	0.369616	-1.94238
H	-2.269764	0.777955	-1.262388
H	-1.967045	-0.579271	-2.047703
Cl	-4.172807	0.0	0.0
