18

C	0.0	0.0	0.0
C	-0.476692	0.298663	-1.436585
F	1.392477	0.0	0.0
H	-1.509919	0.648281	-1.352462
N	-0.429801	1.11657	0.811283
H	-1.450378	1.125691	0.76791
H	-0.181069	0.925218	1.776799
C	-0.420805	-1.357934	0.524523
H	-1.510857	-1.416566	0.538662
H	0.000805	-2.146436	-0.101212
H	-0.040261	-1.478124	1.544255
N	-0.369945	-0.895736	-2.274678
H	-1.157713	-1.496108	-2.049365
H	-0.519476	-0.569539	-3.224321
N	0.311291	1.345509	-2.072252
H	1.284486	1.072983	-1.972672
H	0.192486	2.181273	-1.509372
Cl	-3.732151	0.0	0.0
