16

C	0.0	0.0	0.0
C	-0.629675	0.257479	-1.375157
Cl	1.85357	0.0	0.0
H	-1.653537	0.552801	-1.105642
C	-0.293353	1.135108	0.891324
N	-0.479021	2.049215	1.603822
N	-0.512717	-1.187912	0.521488
H	-0.403895	-1.940974	-0.144659
H	-0.187096	-1.40845	1.450057
N	-0.689717	-1.013314	-2.109087
H	-1.665592	-1.289949	-2.162445
H	-0.334208	-0.879919	-3.046245
N	0.032033	1.357313	-2.025545
H	-0.527324	1.685879	-2.80147
H	0.952116	1.087152	-2.352956
Br	-3.998711	0.0	0.0
