16

C	0.0	0.0	0.0
C	-0.524091	-0.307753	-1.41196
Cl	1.787019	0.0	0.0
H	-1.603457	-0.132646	-1.326167
C	-0.341373	1.398022	0.348553
N	-0.559794	2.490107	0.72335
N	-0.518904	-0.970173	0.92572
H	-1.543743	-0.902043	0.855297
H	-0.255092	-0.713534	1.870989
N	-0.198678	-1.694565	-1.744787
H	-0.941885	-2.046534	-2.338962
H	-0.231087	-2.236507	-0.885482
N	0.020102	0.642775	-2.356949
H	-0.646125	0.794182	-3.102548
H	0.861485	0.239103	-2.75226
Br	-3.784397	0.0	0.0
