16

C	-0.29425	-0.017671	-1.529765
C	0.0	0.0	0.0
Cl	-2.027927	-0.465371	-1.828458
H	1.092267	0.0	0.0
C	-0.089013	1.295178	-2.149189
N	0.057254	2.332271	-2.681365
N	0.539037	-0.983442	-2.207847
H	0.385894	-1.886386	-1.768144
H	1.514813	-0.724197	-2.020449
N	-0.431237	-1.13421	0.730506
H	0.302258	-1.821364	0.805457
H	-1.31614	-1.518479	0.43629
N	-0.565894	1.251853	0.608353
O	-1.718595	1.187186	1.037492
O	0.137895	2.260982	0.587476
Br	3.43385	0.0	0.0
