16

C	-0.312877	0.001541	-1.521617
C	0.0	0.0	0.0
Cl	0.096957	-1.721821	-2.112254
H	1.095575	0.0	0.0
C	-1.734212	0.148563	-1.852294
N	-2.873246	0.230137	-2.12983
N	0.462991	1.007591	-2.117063
H	0.406214	1.004849	-3.127074
H	1.432533	0.953436	-1.797944
N	-0.533169	-1.026058	0.818683
H	-1.479078	-1.277519	0.56455
H	0.074839	-1.831789	0.789746
N	-0.496194	1.324916	0.520005
O	-1.699222	1.373471	0.785728
O	0.300421	2.246932	0.640315
Br	3.449543	0.0	0.0
