16

C	-0.317468	-0.021126	-1.508101
C	0.0	0.0	0.0
Cl	-2.065206	-0.416796	-1.78654
H	1.093794	0.0	0.0
C	-0.039854	1.255885	-2.173275
N	0.217073	2.233002	-2.771513
N	0.471955	-1.037686	-2.172458
H	0.332194	-1.909412	-1.670778
H	1.454757	-0.782966	-2.039686
N	-0.425258	-1.148152	0.722342
H	0.344116	-1.764382	0.931948
H	-1.22552	-1.620949	0.332005
N	-0.50495	1.2366	0.702572
O	-0.12377	1.389571	1.855911
O	-1.26773	1.991468	0.094743
Br	3.378871	0.0	0.0
