16

C	-0.59387	0.046395	-1.419553
C	0.0	0.0	0.0
Cl	-0.055257	1.440915	-2.392605
H	1.090061	0.0	0.0
C	-0.127142	-1.158872	-2.135494
N	0.120294	-2.118586	-2.767877
N	-2.036737	0.097168	-1.310546
H	-2.445068	0.05335	-2.237693
H	-2.320042	-0.732252	-0.796052
N	-0.479984	-1.208595	0.623952
H	-1.133852	-0.965034	1.359077
H	0.31414	-1.686539	1.033025
N	-0.464373	1.223581	0.759879
O	0.035085	2.295585	0.446778
O	-1.314392	1.069292	1.640278
Br	3.40332	0.0	0.0
