16

C	-0.34596	0.049968	-1.508264
C	0.0	0.0	0.0
Cl	0.136757	-1.625263	-2.172228
H	1.090855	0.0	0.0
C	-1.785041	0.131951	-1.786791
N	-2.940518	0.164506	-2.001469
N	0.365995	1.118601	-2.079055
H	0.28412	1.140033	-3.084564
H	1.344662	1.091609	-1.785337
N	-0.520014	-1.059124	0.785545
H	-1.447322	-1.348261	0.505405
H	0.122173	-1.835669	0.761324
N	-0.498028	1.304841	0.573109
O	-1.698388	1.34043	0.854716
O	0.298776	2.22594	0.711786
Br	3.430597	0.0	0.0
