16

C	-0.291436	-0.043984	-1.526228
C	0.0	0.0	0.0
Cl	-2.039093	-0.445882	-1.837192
H	1.093375	0.0	0.0
C	-0.073455	1.242568	-2.209644
N	0.12799	2.209774	-2.849312
N	0.52935	-1.106144	-2.038151
H	0.536494	-1.090861	-3.050326
H	1.485162	-0.96291	-1.698642
N	-0.448834	-1.114919	0.753653
H	0.197286	-1.879216	0.615287
H	-1.387212	-1.395556	0.501088
N	-0.558865	1.262398	0.569095
O	0.086926	2.293159	0.392564
O	-1.646445	1.187201	1.139814
Br	3.410088	0.0	0.0
