9
Coordinates from ORCA-job run
  C   -0.02814325819432      0.06464415370698      0.05438425310287
  C   1.27355747544596     -0.21397068751703      0.27313010956638
  H   1.65290951819225     -1.22466083449897      0.16912075381776
  H   1.95783297509939      0.56316553445343      0.58324079171873
  N   -1.03488476253559     -0.86086048121105     -0.22409137651235
  H   -1.75646541950844     -0.51432474710520     -0.83821990265486
  H   -0.68341400151581     -1.75785200407581     -0.52506852875083
  C   -0.49503341282663      1.41965074739107      0.20521160694380
  N   -0.88535911415682      2.52420831885659      0.30229229276850
