9
Coordinates from ORCA-job run
  C   0.00041200577094      0.06639297832478     -0.05929562728513
  C   1.25393756350130     -0.23351950899475      0.33903654386342
  H   2.01004703615989      0.53633029804820      0.40207124006564
  H   1.53465405857850     -1.25372717243077      0.57699017869083
  N   -1.02826961692158     -0.84456444584871     -0.30348169849813
  H   -0.86225048273258     -1.75490760271592      0.09958784431664
  H   -1.94919289773434     -0.49723271881489     -0.08160498791608
  C   -0.33370319587791      1.43356003407523     -0.36911712036107
  N   -0.62663447074422      2.54766813835682     -0.60318637287611
