9
Coordinates from ORCA-job run
  C   -0.02626262409864      0.06570773660949      0.05412688515399
  C   1.29388019493381     -0.17776416436355      0.18814272191664
  H   1.68879111466830     -1.18307254897957      0.09042976925546
  H   1.97948010621972      0.62433633478054      0.42264505815387
  N   -1.02823540760157     -0.88959326121903     -0.12016862464207
  H   -0.67845620610568     -1.78986056645579     -0.41312502594167
  H   -1.79969212423219     -0.58072663795382     -0.69219637716229
  C   -0.51171140928744      1.41565442274660      0.19108320602433
  N   -0.91779364449632      2.51531868483513      0.27806238724175
