9
Coordinates from ORCA-job run
  C   -0.01700953402632      0.08174242294574      0.03009464627824
  C   1.26329608777714     -0.25918821132394      0.28406086695609
  H   2.04210870784028      0.49062933500680      0.28244789166697
  H   1.53167183704104     -1.28207701259636      0.52376965128583
  N   -1.12859207158021     -0.75699416889634      0.12444563895080
  H   -1.85786237955713     -0.55216320670510     -0.54187809613971
  H   -0.89086192132099     -1.73766586164690      0.13145192244466
  C   -0.33464339453263      1.45283607852118     -0.27979951348637
  N   -0.60610733164119      2.56288062469492     -0.55559300795651
