9
Coordinates from ORCA-job run
  C   -0.00536102691553      0.07968848510733     -0.03798184483484
  C   1.25928443621735     -0.24058990121930      0.30580062677774
  H   1.61047321322322     -1.26499873385226      0.24919006852642
  H   1.95695570973031      0.52623435944151      0.61143820179562
  N   -0.95997925993282     -0.78701646656104     -0.57265962357411
  H   -1.90782881616060     -0.57652811798297     -0.29781531311360
  H   -0.73720473782010     -1.76183793842231     -0.43375826631129
  C   -0.43001139057194      1.45410259006582      0.04571199938648
  N   -0.78732812776989      2.57094572342321      0.13107415134758
