9
Coordinates from ORCA-job run
  C   -0.01098496531417      0.07251209544429      0.05037666393498
  C   1.29400660992019     -0.26043479673033     -0.02579528106825
  H   2.05803400983198      0.50407007588914     -0.01150339032870
  H   1.60321030168616     -1.29889245427979     -0.07415304415094
  N   -1.08348262228477     -0.81270827814203      0.16831061829711
  H   -1.92778104435154     -0.50111412826397     -0.28765977347517
  H   -0.84943232702194     -1.76210788628632     -0.08249903805630
  C   -0.38210309164618      1.46341420396452      0.11549902178893
  N   -0.70146687081973      2.59426116840447      0.14642422305834
