9
Coordinates from ORCA-job run
  C   -0.00862022602094      0.06243069721856      0.05792723266557
  C   1.29464899931551     -0.29218601521535      0.02023967404755
  H   2.07049526134541      0.45854727217338     -0.05413861509446
  H   1.60233293601555     -1.32819275086874     -0.02409552044973
  N   -1.08987111983674     -0.81690567375519      0.14875893825527
  H   -1.96631350626634     -0.42556040895556     -0.13912370566730
  H   -0.91600389643536     -1.70816983068772     -0.27832887902706
  C   -0.35391636506252      1.46022651867101      0.04970701157172
  N   -0.63275208305457      2.58981019141961      0.22005386369843
