9
Coordinates from ORCA-job run
  C   -0.01144979789598      0.08525120452881     -0.02297493526561
  C   1.29932843213203     -0.22638426184208      0.04493228652315
  H   2.02325617192283      0.51005238052430      0.36439541716906
  H   1.65522833599576     -1.20957684266086     -0.24281965945251
  N   -1.02686338562189     -0.72471723339355     -0.53403810973331
  H   -0.76505660766345     -1.69682710123847     -0.60731424114664
  H   -1.91709063294970     -0.60943268658668     -0.07327138267486
  C   -0.44387706212935      1.40335992792492      0.36672865331198
  N   -0.81347545379025      2.46727461274360      0.70336197126875
