9
Coordinates from ORCA-job run
  C   -0.00780889125063      0.07805834857684     -0.04298186533791
  C   1.28042331589909     -0.32104653899882     -0.00876220034697
  H   2.07916293993080      0.40455785500687      0.05320704292336
  H   1.54061490303480     -1.37207335844937     -0.07054600279350
  N   -1.11989789386449     -0.74025759504066     -0.24684288873298
  H   -0.92935465711814     -1.71996157664765     -0.09629736300074
  H   -1.94963359451408     -0.43934582864793      0.24202812750756
  C   -0.31361877840472      1.48372072785925      0.04055649106034
  N   -0.57888734371263      2.62534796634147      0.13063865872084
