9
Coordinates from ORCA-job run
  C   -0.01618176353512      0.08257935215840      0.03054215036229
  C   1.27913225234229     -0.24800021240333      0.21157896874656
  H   2.05235250650575      0.50490585995425      0.15216370832082
  H   1.56664288240128     -1.26587059703831      0.45132530419309
  N   -1.11514548972676     -0.75974726207649      0.20497852380676
  H   -1.88338585866865     -0.57183821180749     -0.42139430958218
  H   -0.87160664639052     -1.73920889623805      0.21874584776302
  C   -0.35943811625927      1.44642977431727     -0.28369943415141
  N   -0.65236976666900      2.54975019313375     -0.56424075945894
