9
Coordinates from ORCA-job run
  C   -0.01095497054919      0.07669900975113     -0.04395690193130
  C   1.28276380823126     -0.30489051978580     -0.06467897703498
  H   2.07386288889809      0.43167087378479     -0.06297981317003
  H   1.55411735747045     -1.35391761206499     -0.11114592976305
  N   -1.12050090638268     -0.76059980079592     -0.16809427223714
  H   -0.90959968169206     -1.73384738849943     -0.00349641960673
  H   -1.92840294214274     -0.45662274720070      0.35401085725810
  C   -0.33243852709266      1.48018184622430      0.01525466983274
  N   -0.60984702674046      2.62032633858663      0.08508678665239
