9
Coordinates from ORCA-job run
  C   -0.01406888785411      0.08535113299242     -0.02354592021875
  C   1.30616672193806     -0.19015826079588      0.00325128452729
  H   2.02144547828861      0.57027235176611      0.28320577656647
  H   1.67757252086968     -1.16801779988605     -0.28322751251312
  N   -1.02443219471144     -0.75884070130400     -0.48655503649451
  H   -1.90013469424475     -0.66401312690746      0.00531349389961
  H   -0.73793492133821     -1.72424517485421     -0.55831937130040
  C   -0.47019021300081      1.39669560221886      0.36271588646096
  N   -0.85942380994702      2.45395597677020      0.69816139907246
