9
Coordinates from ORCA-job run
  C   -0.00994017282538      0.07642065600029     -0.04486317433407
  C   1.27998422986489     -0.31849338373696     -0.04852341381986
  H   2.07798221849750      0.41050908824962     -0.04039661493442
  H   1.54182824358832     -1.37026676577717     -0.08577818598143
  N   -1.12660718625860     -0.74990135110183     -0.17820497052600
  H   -1.93735988728454     -0.43526170379127      0.33313201959751
  H   -0.92735730936414     -1.72443686211321     -0.00654092755258
  C   -0.31694953379214      1.48350411811891      0.00412382113715
  N   -0.58258060242592      2.62692620415163      0.06605144641370
