18

C	0.0	0.0	0.0
C	-0.573646	-0.335313	-1.387429
Cl	1.794975	0.0	0.0
H	-1.618249	-0.625544	-1.196915
C	-0.490043	1.358794	0.489404
H	-0.08869	2.150603	-0.144007
H	-0.143109	1.513963	1.512777
H	-1.584633	1.353572	0.466591
C	-0.365187	-1.016921	0.998818
N	-0.593668	-1.765917	1.874541
N	0.120309	-1.555757	-1.92194
O	-0.009959	-2.591264	-1.274163
O	0.780293	-1.451778	-2.956028
C	-0.522582	0.802592	-2.378603
H	-1.244437	1.557179	-2.067007
H	0.476152	1.23601	-2.459547
H	-0.820553	0.441207	-3.362926
Br	-3.798527	0.0	0.0
