17

C	0.0	0.0	0.0
C	-0.5485	0.109662	-1.42274
Cl	1.83748	0.0	0.0
H	-1.656182	0.137952	-1.190093
N	-0.392118	1.191149	0.709061
H	-0.2336	1.068817	1.701517
H	0.130714	1.997978	0.385796
N	-0.537928	-1.186793	0.566276
H	-1.574212	-0.998948	0.511074
H	-0.278183	-1.238724	1.547461
C	-0.207626	-1.075746	-2.318157
H	-0.748238	-0.994823	-3.264565
H	0.864906	-1.120621	-2.524661
H	-0.510092	-1.991195	-1.811482
C	-0.165169	1.370688	-2.039745
N	0.153389	2.375217	-2.561274
H	-3.053064	0.0	0.0
