17

C	0.0	0.0	0.0
C	-0.203123	-0.052585	-1.579199
Cl	1.845434	0.0	0.0
H	0.552746	0.622878	-1.984667
N	-0.508295	1.254715	0.458558
H	-0.312016	1.290466	1.455489
H	-1.537817	1.134336	0.376635
N	-0.500443	-1.090336	0.762591
H	-1.530317	-0.975033	0.711517
H	-0.241727	-1.979747	0.347229
C	-1.545305	0.367046	-2.182693
H	-1.474559	0.27371	-3.272706
H	-2.374205	-0.208902	-1.776628
H	-1.74261	1.408886	-1.927268
C	0.141647	-1.39908	-2.03933
N	0.360277	-2.498008	-2.391324
H	-3.129115	0.0	0.0
