17

C	0.0	0.0	0.0
C	-0.489716	0.028263	-1.465223
Cl	1.801368	0.0	0.0
H	-1.591746	0.095877	-1.319651
N	-0.480199	1.206722	0.607741
H	-1.511106	1.121308	0.514495
H	-0.279719	1.126839	1.601445
N	-0.45045	-1.154755	0.737151
H	-1.481123	-1.085381	0.679599
H	-0.147964	-2.014038	0.289368
C	-0.167188	-1.225332	-2.27215
H	-0.551785	-1.120444	-3.289281
H	-0.654979	-2.091457	-1.822095
H	0.909563	-1.400763	-2.324727
C	-0.029894	1.217635	-2.172536
N	0.304519	2.13387	-2.828122
H	-2.995765	0.0	0.0
