13

C	-0.268929	-0.243529	-1.503389
C	0.0	0.0	0.0
F	-0.949918	0.87435	-2.06286
H	1.089634	0.0	0.0
H	-0.984682	-1.060879	-1.661116
H	-0.419846	-0.800157	0.605564
N	0.964685	-0.467277	-2.13371
H	1.003432	-1.269526	-2.735077
H	1.786096	-0.339891	-1.513994
N	-0.566294	1.255706	0.502031
O	-0.076766	2.308993	0.107621
O	-1.510112	1.188864	1.299741
F	2.679211	0.0	0.0
