13

C	-0.257314	-0.269359	-1.488963
C	0.0	0.0	0.0
F	-0.633941	0.973268	-2.044905
H	1.08885	0.0	0.0
H	-1.104377	-0.940036	-1.660983
H	-0.457733	0.90792	0.38099
N	0.908231	-0.753696	-2.1493
H	0.846522	-1.755117	-2.257553
H	1.732988	-0.533233	-1.569371
N	-0.451202	-1.119784	0.823989
O	-0.391715	-2.257511	0.34411
O	-0.833074	-0.885627	1.973864
F	2.626863	0.0	0.0
