13

C	-0.47207	-0.097857	-1.43779
C	0.0	0.0	0.0
F	-0.258237	-1.425214	-1.800841
H	1.087946	0.0	0.0
H	0.155772	0.52427	-2.076434
H	-0.401454	-0.813557	0.604835
N	-1.856484	0.205701	-1.719826
H	-2.434655	-0.177352	-0.978729
H	-1.956643	1.212816	-1.692134
N	-0.429426	1.252911	0.60613
O	-0.472013	2.261413	-0.114079
O	-0.673025	1.276871	1.815717
F	2.546532	0.0	0.0
