13

C	-0.211238	-0.062573	-1.496661
C	0.0	0.0	0.0
F	-1.547059	0.133762	-1.860096
H	1.088963	0.0	0.0
H	0.051572	-1.086682	-1.784174
H	-0.415183	-0.848695	0.540571
N	0.626353	0.838403	-2.250364
H	1.556739	0.685853	-1.845556
H	0.36031	1.772313	-1.955581
N	-0.516202	1.204364	0.652383
O	-0.546276	2.268114	0.02457
O	-0.869934	1.106017	1.830551
F	2.592245	0.0	0.0
