13

C	-0.541328	-0.076043	-1.419694
C	0.0	0.0	0.0
F	-0.318537	-1.356587	-1.905791
H	1.087445	0.0	0.0
H	0.05121	0.613146	-2.029024
H	-0.378011	0.92353	0.445149
N	-1.944719	0.214629	-1.608307
H	-2.070577	1.218627	-1.615251
H	-2.46043	-0.147638	-0.812876
N	-0.606961	-1.090465	0.786101
O	-0.012715	-2.158882	0.88401
O	-1.731026	-0.883119	1.279954
F	2.603477	0.0	0.0
