13

C	-0.246576	0.15193	-1.483777
C	0.0	0.0	0.0
F	-1.494579	0.765116	-1.743205
H	1.091343	0.0	0.0
H	-0.330217	-0.830982	-1.957313
H	-0.396864	0.841654	0.561665
N	0.806978	0.976514	-1.988802
H	0.95454	0.807909	-2.973223
H	1.667723	0.75918	-1.462494
N	-0.54886	-1.225493	0.579725
O	-0.476849	-2.271498	-0.068403
O	-1.016845	-1.162942	1.720038
F	2.629074	0.0	0.0
