13

C	-0.211156	-0.109714	-1.506693
C	0.0	0.0	0.0
F	-0.120267	1.214125	-2.037053
H	1.089106	0.0	0.0
H	-1.203075	-0.444192	-1.831609
H	-0.427983	-0.862952	0.511121
N	0.822659	-0.956112	-1.957743
H	1.706931	-0.693045	-1.4863
H	0.905105	-0.937196	-2.963084
N	-0.67448	1.19957	0.531842
O	-1.907951	1.227805	0.443209
O	0.000296	2.091916	1.037111
F	2.682731	0.0	0.0
