16

C	0.0	0.0	0.0
C	-0.536183	0.027917	-1.418952
F	1.397386	0.0	0.0
H	-1.624176	0.176504	-1.294779
H	-0.1036	0.900822	-1.921399
C	-0.347969	1.275621	0.674129
N	-0.480091	2.301103	1.230374
C	-0.518197	-1.162178	0.814186
H	-0.178849	-2.103326	0.376557
H	-0.151175	-1.0943	1.841609
H	-1.617419	-1.089607	0.784383
C	-0.247722	-1.246104	-2.205619
H	-0.866462	-2.072668	-1.848919
H	0.806024	-1.537083	-2.13851
H	-0.489757	-1.093596	-3.261852
H	-3.299658	0.0	0.0
