16

C	0.0	0.0	0.0
C	-0.293298	-0.049278	-1.558162
F	1.396368	0.0	0.0
H	0.185041	-0.964038	-1.936826
H	0.294606	0.790669	-1.962488
C	-0.741242	1.123679	0.596041
N	-0.763553	2.125219	1.263215
C	-0.24668	-1.303818	0.801201
H	-1.288726	-1.466355	1.036671
H	0.151762	-2.151741	0.230405
H	0.347701	-1.22514	1.719511
C	-1.725783	0.049927	-2.147508
H	-1.68895	0.072894	-3.266039
H	-2.239052	0.943624	-1.78593
H	-2.347283	-0.781967	-1.810334
H	-2.198656	0.0	0.0
