16

C	0.0	0.0	0.0
C	-0.519998	0.012962	-1.423405
F	1.397965	0.0	0.0
H	-1.612605	0.129259	-1.313848
H	-0.10719	0.897539	-1.92089
C	-0.335507	1.284323	0.662965
N	-0.406181	2.326077	1.200157
C	-0.52148	-1.157132	0.815577
H	-0.158218	-1.088234	1.844293
H	-0.182653	-2.099809	0.380556
H	-1.620568	-1.07865	0.779704
C	-0.164071	-1.251851	-2.198307
H	-0.343576	-1.101264	-3.266326
H	0.889128	-1.518778	-2.07016
H	-0.781175	-2.09397	-1.879664
H	-3.252122	0.0	0.0
