17
Coordinates from ORCA-job run
  C   -0.34977839378042     -0.13849281003856     -0.56620643216776
  C   1.04881279795720      0.37567558499831     -0.15535013775019
  Br  -0.42300986456140      0.18720429728657     -2.50738595343164
  H   1.81332784309274     -0.11122425000796     -0.76317015102051
  C   -0.45851940372203     -1.63744130517814     -0.33034738484906
  H   -0.47802078337757     -1.84885738289148      0.74256748544641
  H   0.37740379411268     -2.17834685944225     -0.77729637184498
  H   -1.38706448255381     -2.00829539634873     -0.76655911036205
  C   -1.48455538325537      0.63037200192072      0.08862791903493
  H   -1.45224553291500      0.49089560895723      1.17171797941437
  H   -2.43884561073519      0.25511334504620     -0.28494176138054
  H   -1.42420344605858      1.69795943445308     -0.12661782908505
  N   1.34067199338052     -0.05974835942325      1.26706083473329
  O   2.03934402026020     -1.06168935373047      1.38705980940693
  O   0.82642711391937      0.58816552702872      2.17277275441389
  C   1.17507938026051      1.82557184016369     -0.23855590806492
  N   1.27617595797615      2.99313807720630     -0.31437574249311
