17
Coordinates from ORCA-job run
  C   -0.35375946026862     -0.19517548388480     -0.48839975269928
  C   0.84537015251926      0.65794397846652     -0.01924440877851
  Br  0.06492422690417     -0.80565236198571     -2.30758191056465
  H   0.99703561202807      1.48743847451419     -0.71328699800414
  C   -0.62385079024382     -1.40977192885424      0.38513544471949
  H   -1.50958419433447     -1.92562860417161      0.01013537166410
  H   0.21071455419394     -2.10797260221274      0.38932384387362
  H   -0.81524212702541     -1.09072583707499      1.41397901264831
  C   -1.57444443998557      0.71515093832208     -0.56739571282322
  H   -1.38536361849086      1.58481581322633     -1.20022986807196
  H   -1.85191704926270      1.05566470961752      0.43441601795971
  H   -2.41592479393416      0.16282077114766     -0.98822894024795
  N   2.15121704070454     -0.10463977032178     -0.02572365854971
  O   2.29388364085252     -0.96583900559833      0.83605305315950
  O   2.95322066098857      0.20239365533654     -0.89982252539959
  C   0.61828481562206      1.16086123810359      1.33291738005366
  N   0.39443576973248      1.57831601536978      2.40795365106062
