17
Coordinates from ORCA-job run
  C   -0.65547435185753      0.17681915733027      0.03622714523496
  C   0.73733490612091      0.80807957634027      0.26110557169469
  Br  -1.90331665066370      1.50346920015849      0.78669772342989
  H   0.76342826951791      1.80764084832098     -0.17609053889960
  C   -0.94517096816724      0.03793217186425     -1.45070572018095
  H   -1.98448669443140     -0.26120825188557     -1.59307631060023
  H   -0.30590357095858     -0.73450622754151     -1.88763865690716
  H   -0.77506327765718      0.97438152096886     -1.98480968385407
  C   -0.84632821547847     -1.13170485323212      0.78394056264044
  H   -1.86445798119143     -1.49237722719413      0.62778481406757
  H   -0.14655332600148     -1.88138071341330      0.40738017605862
  H   -0.68289927092230     -1.01028047711554      1.85552701266279
  N   1.77323815833405      0.01441227616153     -0.51073427324233
  O   2.10427016898042      0.48154248929753     -1.59619272804844
  O   2.15986358847277     -1.03997001916173     -0.01738651128428
  C   1.12935184766516      0.85259668331360      1.66438447266991
  N   1.44216736823810      0.89455384578812      2.79558694455821
