17
Coordinates from ORCA-job run
  C   -0.33838347565568     -0.10175003164550     -0.58101957394157
  C   1.06236830332071      0.35261183845976     -0.11127885905224
  Br  -0.35028040716626      0.31359217895286     -2.50638278929544
  H   1.82927724401200     -0.12667707434230     -0.72209075714356
  C   -0.49439897593314     -1.60614579773821     -0.41676355822480
  H   -0.55100244121264     -1.86369068610743      0.64472076929929
  H   -1.41948956186308     -1.93115345016135     -0.89490829352210
  H   0.33933152552506     -2.15035219412785     -0.86385138843642
  C   -1.46902540282898      0.66876696653612      0.07893569845960
  H   -2.42291092887125      0.33676313217413     -0.33450524087901
  H   -1.37499771189130      1.74263445329948     -0.08747126655253
  H   -1.46860951158446      0.48137135194214      1.15516584737890
  N   1.30426918648541     -0.15828508642730      1.29555569549517
  O   0.78173844480986      0.45820136440907      2.21825792260366
  O   1.97226293199590     -1.18384471696806      1.38384702428688
  C   1.23109911654776      1.80050415256908     -0.12145837108806
  N   1.37075166431009      2.96645359917537     -0.13775285938779
