17
Coordinates from ORCA-job run
  C   -0.32868655240414     -0.12453100891598     -0.52774466624758
  C   0.83348656712213      0.66312045479461      0.11637287363813
  Br  0.17891498492766     -0.45303070742383     -2.39639606389267
  H   1.00075599134141      1.58759060842943     -0.44049083687816
  C   -0.61423793484411     -1.45834214056244      0.14350021053043
  H   -1.47291704371451     -1.92353412110026     -0.34382679350003
  H   -0.85659367222444     -1.29745308561628      1.19815943608209
  H   0.23215098897389     -2.13950480453703      0.08327037596092
  C   -1.56109029462775      0.77335482520253     -0.52654714227726
  H   -1.36031817141514      1.72996769700115     -1.01369173609017
  H   -1.88834343693694      0.95729844021961      0.50094905173245
  H   -2.37299108654884      0.28031434837951     -1.06323165328949
  N   2.15184108208166     -0.07558763127396      0.05750166201211
  O   2.98536655276250      0.36611115139674     -0.72460069130669
  O   2.27242251168960     -1.05256092025211      0.78937209071531
  C   0.53862234078582      0.95803653007053      1.51595798737850
  N   0.26061717303120      1.20875036418778      2.62944589543211
