17
Coordinates from ORCA-job run
  C   -0.42043626851486     -0.15249024911218     -0.51211935946363
  C   1.01851274032493      0.37151785785023     -0.30107585130672
  Br  -0.74731364813343      0.12307471229229     -2.43443104135022
  H   1.69770532015907     -0.13139929106474     -0.99157541632929
  C   -0.49259865767966     -1.64486892969764     -0.22475734315621
  H   -0.37303870506564     -1.82702964565114      0.84707805620071
  H   -1.46844137430351     -2.02707215091687     -0.52755074409683
  H   0.28084262963373     -2.19780800978330     -0.76074753892425
  C   -1.46269326275026      0.63298897596632      0.26524658786461
  H   -1.43410168012476      1.69468893313989      0.01745311114765
  H   -1.28994310561412      0.52066852966733      1.33793211152793
  H   -2.45624511727864      0.24863701922433      0.02833433833283
  N   1.49489678997100     -0.02787024831696      1.08135278545188
  O   2.20420697850789     -1.02777434078866      1.13396579158421
  O   1.09988355348804      0.64205848220279      2.02987690027456
  C   1.12941530419969      1.81872864558231     -0.43637692373969
  N   1.21934850318053      2.98394970940600     -0.55160546401755
