17
Coordinates from ORCA-job run
  C   -0.49476034094581     -0.23809451095887      0.10012115738086
  C   0.81682646254405      0.57516775917553      0.13331375559242
  Br  -0.94163665668571     -0.80980902285972      1.92065280994920
  H   1.04103748057000      0.87762971959996     -0.89476961567863
  C   -1.60760826213744      0.67786540103220     -0.39655508859767
  H   -2.54781613019044      0.12528135630408     -0.42912202058689
  H   -1.37513624637551      1.02465579649293     -1.40927939113340
  H   -1.74131343949912      1.54345710984263      0.25367033291399
  C   -0.36455541089410     -1.47433192408492     -0.77815800870882
  H   0.36197947651701     -2.18539754889653     -0.38766389944676
  H   -0.05489816089913     -1.18313031757367     -1.78662400983189
  H   -1.33383586316230     -1.97176017993594     -0.83860498330397
  N   1.99997508703823     -0.27117666406757      0.54493771538707
  O   2.52624746140020     -0.90876117188996     -0.36358777753787
  O   2.31913709481670     -0.27580004549212      1.72693596554988
  C   0.73948124783393      1.75509681266934      0.98515226553370
  N   0.65487620006942      2.73910743064263      1.62058079251877
