17
Coordinates from ORCA-job run
  C   -0.40348978132474     -0.12594986314675     -0.53254729884042
  C   0.98910589676336      0.47818784091821     -0.24086908402299
  Br  -0.73474657103145      0.33649456780878     -2.41835467696003
  H   1.71086611097865      0.10831605731420     -0.97113505486422
  C   -0.36363197529196     -1.64202436713979     -0.41360108573973
  H   -1.30509050539947     -2.06053973312586     -0.77202917606097
  H   0.45338890407897     -2.07155043621351     -0.99590818023289
  H   -0.23801731670457     -1.93370267614478      0.63298821214210
  C   -1.50905817374482      0.48804593597204      0.30912137600294
  H   -1.56018089644349      1.56974510219331      0.17887860947094
  H   -2.46830632270941      0.05822932778273      0.01576888863419
  H   -1.33603169774513      0.27215068262864      1.36595141721599
  N   1.48392505621377     -0.03653459305515      1.09657224496841
  O   1.03227149899724      0.49151089833543      2.10731562162749
  O   2.26876042824596     -0.97884303709864      1.04913723299303
  C   0.98971096642450      1.93556124206730     -0.21301725995380
  N   0.99252437869259      3.10990305090387     -0.19927178638006
