17
Coordinates from ORCA-job run
  C   -0.33916494605242     -0.09009129094915     -0.58275716051962
  C   1.02723512332765      0.44568006722071     -0.09814664074554
  Br  -0.41548386503721      0.45027662388071     -2.47521095786871
  H   1.82010944834271      0.07260830691557     -0.74853626839409
  C   -0.36857890699139     -1.60979738806096     -0.51935755750793
  H   -0.38370827325368     -1.94233193438044      0.52250189726301
  H   -1.27286000813983     -1.97761860120826     -1.00611618460432
  H   0.49831950892156     -2.05147914111106     -1.01387805985433
  C   -1.51850230210479      0.53863666353728      0.13940535796930
  H   -1.48632756714419      0.27994944791469      1.20020562649737
  H   -1.51450630820506      1.62533864052277      0.04600748312587
  H   -2.44832573359608      0.15786281775273     -0.28651947347614
  N   1.33400671964140     -0.13582894694838      1.26791240572716
  O   2.09168569477805     -1.10090170112509      1.28012231874472
  O   0.77360297811268      0.36895492654442      2.23530963771432
  C   1.07833075696312      1.89989568534829     -0.01176741096695
  N   1.12416768043748      3.07184582414615      0.04982498689587
