17
Coordinates from ORCA-job run
  C   -0.38502759006909     -0.12145043000293     -0.54674392851813
  C   0.98792804148992      0.49750140134003     -0.19916665551613
  Br  -0.66327921739327      0.37310662845821     -2.43295377949434
  H   1.73816694754787      0.15223463924658     -0.91252074888941
  C   -0.32356990330189     -1.63873938038965     -0.45592482508861
  H   0.51751752689329     -2.04339167859366     -1.02164328877393
  H   -0.22431858178691     -1.94903013824605      0.58824059667745
  H   -1.24674567963177     -2.06543183774965     -0.85050357471753
  C   -1.52695454661499      0.45816806218615      0.27038604770928
  H   -2.46935254614638      0.02084780120006     -0.06369993826636
  H   -1.59028297322958      1.54155891901132      0.16118993065870
  H   -1.38552910068358      0.22223101553296      1.32754546256511
  N   1.44873032204598     -0.03458044454501      1.14341777189114
  O   2.26092466213749     -0.95330666194083      1.10410318989890
  O   0.94752967780035      0.45935752888588      2.14796736256532
  C   0.96578727249629      1.95399773761069     -0.14564300362223
  N   0.94947568844626      3.12792683799591     -0.11305061907924
