14

C	-0.466007	-0.061853	-1.445254
C	0.0	0.0	0.0
F	-0.081312	1.048733	-2.129096
H	1.091412	0.0	0.0
H	-0.327949	0.980711	0.355341
N	0.107005	-1.261371	-2.223724
O	-0.049654	-1.212517	-3.437037
O	0.633302	-2.161175	-1.584881
C	-1.931817	-0.202581	-1.551885
N	-3.101958	-0.304607	-1.566844
N	-0.491987	-1.040919	0.871406
H	-1.493034	-1.18138	0.80528
H	-0.002998	-1.901445	0.674492
Br	3.549217	0.0	0.0
