15

C	-0.505336	-0.021103	-1.429317
C	0.0	0.0	0.0
F	-0.301077	1.176999	-2.037069
H	1.095629	0.0	0.0
H	-1.566209	-0.27765	-1.52117
N	0.204592	-1.079086	-2.25332
O	-0.050546	-2.23404	-1.919506
O	0.9001	-0.724051	-3.189624
C	-0.510055	-1.139292	0.741555
N	-0.944644	-2.024802	1.382177
C	-0.404954	1.305566	0.689816
H	0.092396	2.135278	0.188003
H	-1.486301	1.472234	0.69408
H	-0.0453	1.275481	1.719699
H	2.689888	0.0	0.0
