15

C	-0.455116	-0.025352	-1.437419
C	0.0	0.0	0.0
F	-1.810487	-0.177012	-1.57491
H	1.09459	0.0	0.0
H	0.051967	-0.80357	-2.00631
N	-0.09729	1.268769	-2.123731
O	0.962296	1.280246	-2.741584
O	-0.882198	2.207924	-1.996694
C	-0.449511	-1.237305	0.617134
N	-0.794113	-2.237073	1.131665
C	-0.457441	1.220341	0.795959
H	0.064654	2.107459	0.431631
H	-0.165594	1.077524	1.839407
H	-1.535612	1.388246	0.738777
H	2.679384	0.0	0.0
