15

C	-0.322466	0.01214	-1.469972
C	0.0	0.0	0.0
F	-0.112013	-1.20228	-2.040009
H	1.096627	0.0	0.0
H	0.27678	0.768329	-1.982852
N	-1.765826	0.376419	-1.725038
O	-2.008456	1.582727	-1.803843
O	-2.594798	-0.527951	-1.782984
C	-0.540013	-1.171369	0.660497
N	-0.945315	-2.10927	1.243439
C	-0.376492	1.294899	0.715922
H	-1.454193	1.464771	0.779801
H	0.08703	2.137047	0.195904
H	0.044693	1.259605	1.72275
H	2.629235	0.0	0.0
