15

C	-0.322721	0.034178	-1.470238
C	0.0	0.0	0.0
F	-0.047089	-1.151063	-2.069542
H	1.096648	0.0	0.0
H	0.233019	0.834755	-1.962952
N	-1.783415	0.325631	-1.719455
O	-2.554483	-0.62131	-1.845902
O	-2.097607	1.517476	-1.72744
C	-0.541591	-1.183484	0.636501
N	-0.98275	-2.119342	1.195716
C	-0.377954	1.279832	0.740906
H	0.092533	2.130015	0.241961
H	-1.454067	1.452281	0.800044
H	0.03553	1.223512	1.750079
H	2.634763	0.0	0.0
