15

C	-0.448882	-0.067604	-1.439558
C	0.0	0.0	0.0
F	-1.796969	-0.273955	-1.577644
H	1.094598	0.0	0.0
H	0.090292	-0.836133	-1.994439
N	-0.135079	1.232942	-2.13542
O	0.96468	1.307012	-2.668715
O	-0.983941	2.118896	-2.093119
C	-0.451774	-1.216812	0.65369
N	-0.795722	-2.201842	1.196111
C	-0.458192	1.248336	0.751063
H	0.064646	2.119981	0.352473
H	-1.535803	1.414088	0.68524
H	-0.16894	1.149603	1.799305
H	2.68237	0.0	0.0
