15

C	-0.456545	-0.047119	-1.435868
C	0.0	0.0	0.0
F	-1.812629	-0.224007	-1.565218
H	1.094603	0.0	0.0
H	0.059502	-0.824956	-1.998483
N	-0.127507	1.244274	-2.142783
O	0.926514	1.269547	-2.771279
O	-0.930304	2.1687	-2.026306
C	-0.445406	-1.231172	0.632284
N	-0.78377	-2.224094	1.163328
C	-0.460192	1.22793	0.783638
H	0.060933	2.111604	0.410747
H	-1.538507	1.392481	0.72158
H	-0.171495	1.098079	1.829114
H	2.67841	0.0	0.0
