13

C	-0.463758	0.013895	-1.449315
C	0.0	0.0	0.0
Br	-0.011535	-1.771282	-2.186984
H	1.090536	0.0	0.0
H	-0.352865	-0.884633	0.525485
C	-1.914061	0.163505	-1.581767
N	-3.08489	0.244899	-1.672408
C	0.220223	1.000026	-2.29335
N	0.725995	1.791075	-2.998509
N	-0.450799	1.171038	0.70304
O	-0.45537	1.119419	1.94171
O	-0.685816	2.194577	0.03589
H	2.47833	0.0	0.0
