13

C	-0.469083	0.038843	-1.444775
C	0.0	0.0	0.0
Br	3.4e-05	-1.726785	-2.220175
H	1.090553	0.0	0.0
H	-0.348527	-0.894483	0.510792
C	-1.922169	0.167108	-1.562847
N	-3.092896	0.240251	-1.648973
C	0.19476	1.051992	-2.269818
N	0.68339	1.846743	-2.984521
N	-0.44491	1.158634	0.727672
O	-0.672142	2.197984	0.083868
O	-0.442577	1.082057	1.962702
H	2.478338	0.0	0.0
