13

C	-0.492341	-0.092974	-1.417854
C	0.0	0.0	0.0
Br	0.676986	0.924723	-2.726249
H	1.08837	0.0	0.0
H	-0.286155	-0.861398	0.600461
C	-0.417702	-1.487876	-1.849861
N	-0.404636	-2.618796	-2.173147
C	-1.853045	0.389325	-1.631881
N	-2.975423	0.690937	-1.816478
N	-0.419837	1.200087	0.669807
O	-0.607256	2.217702	-0.01755
O	-0.406491	1.180128	1.910227
H	2.392468	0.0	0.0
