13

C	-0.493357	0.040903	-1.422131
C	0.0	0.0	0.0
Br	0.604394	1.25942	-2.594855
H	1.088602	0.0	0.0
H	-0.281242	-0.921519	0.507445
C	-0.343577	-1.292167	-2.006709
N	-0.287899	-2.371326	-2.471169
C	-1.883401	0.459321	-1.572666
N	-3.022752	0.713655	-1.718624
N	-0.438617	1.119004	0.788771
O	-0.378895	0.984014	2.020146
O	-0.697049	2.185816	0.206399
H	2.411046	0.0	0.0
