13

C	-0.486437	0.052534	-1.424313
C	0.0	0.0	0.0
Br	0.645101	-1.054913	-2.683586
H	1.088606	0.0	0.0
H	-0.285177	0.8846	0.566634
C	-1.864954	-0.389313	-1.616314
N	-2.997986	-0.667306	-1.766301
C	-0.362041	1.427811	-1.90843
N	-0.300418	2.540966	-2.282874
N	-0.43811	-1.169961	0.709549
O	-0.420828	-1.10429	1.94864
O	-0.647246	-2.207591	0.059526
H	2.402969	0.0	0.0
