13

C	-0.462883	0.011893	-1.426345
C	0.0	0.0	0.0
Br	-2.475556	-0.080018	-1.598278
H	1.092936	0.0	0.0
H	-0.319927	0.890871	0.536464
C	-0.092029	1.296968	-2.021805
N	0.205054	2.333199	-2.490554
C	0.069051	-1.065627	-2.261303
N	0.50959	-1.858758	-3.008031
N	-0.425369	-1.160636	0.731726
O	-0.581282	-2.222312	0.108144
O	-0.481719	-1.053876	1.964993
H	2.440203	0.0	0.0
