13

C	-0.445005	0.144338	-1.426925
C	0.0	0.0	0.0
Br	-2.447037	0.267078	-1.604302
H	1.087989	0.0	0.0
H	-0.335497	-0.939187	0.434423
C	0.102959	1.301462	-2.137995
N	0.523016	2.173968	-2.804369
C	-0.069044	-1.072086	-2.153254
N	0.212609	-2.056062	-2.731959
N	-0.423274	1.082808	0.845915
O	-0.523609	2.21088	0.339787
O	-0.526389	0.841295	2.057164
H	2.455108	0.0	0.0
