18

C	-0.506813	-0.013557	-1.444601
C	0.0	0.0	0.0
Br	0.186012	1.536133	-2.455862
H	1.107924	0.0	0.0
N	-0.077351	-1.18551	-2.164651
H	-0.478393	-1.199814	-3.095847
H	-0.35601	-2.020841	-1.664275
C	-1.978161	0.150415	-1.465694
N	-3.154185	0.19305	-1.470647
C	-0.449728	-1.274401	0.724493
H	-1.536133	-1.420416	0.682475
H	-0.160701	-1.193537	1.774745
H	0.058215	-2.160518	0.337221
C	-0.481433	1.22821	0.766738
H	-0.174055	2.151861	0.274923
H	-1.57041	1.237163	0.889495
H	-0.022152	1.219627	1.757595
Cl	3.485718	0.0	0.0
