16

C	0.0	0.0	0.0
C	-0.65154	-0.073476	-1.386384
Cl	1.793198	0.0	0.0
H	-1.751813	-0.197485	-1.059158
C	-0.491027	1.226705	0.751492
H	-0.137982	2.131928	0.254199
H	-0.116815	1.214999	1.776816
H	-1.590212	1.16438	0.734782
C	-0.362426	-1.215159	0.749547
N	-0.55204	-2.197506	1.366276
C	-0.192189	-1.23992	-2.132509
N	0.165075	-2.179307	-2.743435
N	-0.567738	1.12224	-2.19779
H	-1.274883	1.771775	-1.87307
H	0.347392	1.553169	-2.13081
H	-3.046046	0.0	0.0
