16

C	0.0	0.0	0.0
C	-0.441482	-0.004925	-1.5176
Cl	1.791834	0.0	0.0
H	0.283452	-0.655687	-2.020953
C	-0.592346	1.130069	0.812506
H	-1.686623	1.018184	0.760042
H	-0.25945	1.064495	1.851325
H	-0.286687	2.090688	0.393867
C	-0.378517	-1.305224	0.554847
N	-0.584075	-2.380667	0.982639
C	-0.211884	1.348684	-2.057327
N	-0.015499	2.417439	-2.503936
N	-1.770233	-0.456923	-1.814072
H	-1.779861	-1.470569	-1.754996
H	-2.507028	-0.138941	-1.097969
H	-3.509994	0.0	0.0
