16

C	0.0	0.0	0.0
C	-0.714895	-0.024208	-1.33189
Cl	1.796571	0.0	0.0
H	-1.849881	-0.089864	-0.894696
C	-0.453522	1.224048	0.787992
H	-0.029452	1.200563	1.793465
H	-0.134039	2.119794	0.258139
H	-1.550652	1.17788	0.831141
C	-0.358633	-1.223765	0.739012
N	-0.539157	-2.203989	1.360268
C	-0.409711	-1.204123	-2.123924
N	-0.187411	-2.125627	-2.823971
N	-0.5807	1.228385	-2.060163
H	-1.468181	1.446846	-2.497024
H	0.125705	1.156416	-2.780483
H	-3.000499	0.0	0.0
