15

C	0.0	0.0	0.0
C	-0.440887	-0.023639	-1.454115
F	1.388338	0.0	0.0
H	-1.53731	0.00225	-1.433891
H	-0.066316	0.918408	-1.869604
N	-0.52932	1.150352	0.644261
H	-0.3207	1.102053	1.638197
H	-1.563778	1.014495	0.539175
C	-0.312187	-1.297785	0.680822
N	-0.407533	-2.350749	1.194438
C	0.095815	-1.219671	-2.229624
H	-0.173751	-1.1379	-3.28655
H	1.184479	-1.286787	-2.161615
H	-0.329084	-2.15209	-1.850069
H	-3.030016	0.0	0.0
