15

C	0.0	0.0	0.0
C	-0.46422	-0.30258	-1.411299
F	1.414696	0.0	0.0
H	-1.554373	-0.417257	-1.32848
H	-0.016655	-1.256919	-1.70765
N	-0.553188	1.218473	0.467679
H	-0.367784	1.302978	1.463065
H	-1.588762	1.042821	0.36629
C	-0.294154	-1.16791	0.892408
N	-0.411114	-2.075583	1.630479
C	-0.089239	0.798815	-2.392953
H	-0.469788	0.555582	-3.388573
H	-0.518481	1.750248	-2.082858
H	0.994753	0.916866	-2.460505
H	-3.031254	0.0	0.0
