15

C	0.0	0.0	0.0
C	-0.470813	0.043379	-1.443767
F	1.387493	0.0	0.0
H	-0.005682	-0.800508	-1.965284
H	-1.558315	-0.106256	-1.394415
N	-0.55806	1.076051	0.738031
H	-0.378828	0.927455	1.727387
H	-1.592228	0.932801	0.592393
C	-0.308653	-1.35053	0.579375
N	-0.442361	-2.432001	1.018639
C	-0.118912	1.362303	-2.12017
H	0.953715	1.5651	-2.060721
H	-0.404249	1.329434	-3.176198
H	-0.648956	2.186755	-1.644358
H	-3.039766	0.0	0.0
