15

C	0.0	0.0	0.0
C	-0.474396	-0.110428	-1.439034
F	1.386517	0.0	0.0
H	-1.55822	-0.277803	-1.37073
H	0.010286	-0.99063	-1.875689
N	-0.558006	1.147334	0.621297
H	-0.379073	1.104798	1.620754
H	-1.592163	0.990072	0.491445
C	-0.309824	-1.280796	0.722547
N	-0.437322	-2.299979	1.292934
C	-0.16069	1.143614	-2.24535
H	0.902583	1.393098	-2.196211
H	-0.728409	1.991457	-1.863094
H	-0.430581	0.990892	-3.294992
H	-3.041183	0.0	0.0
