15

C	0.0	0.0	0.0
C	-0.334135	0.154358	-1.504274
F	1.386453	0.0	0.0
H	-0.483057	1.226165	-1.650829
H	0.596395	-0.117661	-2.010146
N	-0.590389	1.028151	0.780186
H	-1.614258	0.92272	0.584878
H	-0.472932	0.814518	1.76841
C	-0.309019	-1.381803	0.491689
N	-0.419086	-2.454372	0.959499
C	-1.48324	-0.643593	-2.10745
H	-1.538365	-0.436828	-3.184431
H	-2.417651	-0.387855	-1.60241
H	-1.324034	-1.718166	-1.981937
H	-3.249543	0.0	0.0
