19

C	0.0	0.0	0.0
C	-0.491137	-0.132223	-1.447762
F	1.387716	0.0	0.0
H	-1.590003	-0.114394	-1.374289
N	-0.525857	1.244854	0.484561
H	-0.341167	1.289417	1.482818
H	-1.556601	1.111907	0.395819
C	-0.422135	-1.199653	0.830687
H	-0.101285	-1.036437	1.864569
H	-1.51529	-1.260014	0.786117
H	0.039894	-2.121561	0.468552
N	-0.142063	-1.48334	-1.983183
O	1.027135	-1.699395	-2.310663
O	-1.048273	-2.313992	-2.067211
C	0.087369	0.930381	-2.358353
H	1.171865	0.840988	-2.399936
H	-0.175374	1.906793	-1.952542
H	-0.318265	0.835676	-3.369574
H	-3.115279	0.0	0.0
