19

C	0.0	0.0	0.0
C	-0.496309	-0.167823	-1.443361
F	1.388857	0.0	0.0
H	-1.587429	-0.305786	-1.345663
N	-0.521394	1.259979	0.450047
H	-0.344248	1.321415	1.449365
H	-1.551782	1.130627	0.356578
C	-0.409421	-1.167891	0.883426
H	0.044593	-2.105501	0.558209
H	-0.074589	-0.953406	1.903906
H	-1.502116	-1.232459	0.858634
N	0.058104	-1.433933	-2.008354
O	1.130327	-1.384384	-2.615178
O	-0.586559	-2.47036	-1.834718
C	-0.130345	0.996394	-2.340647
H	-0.685414	1.871119	-2.008568
H	-0.395606	0.77487	-3.377396
H	0.93612	1.208452	-2.285695
H	-3.112257	0.0	0.0
