19

C	0.0	0.0	0.0
C	-0.256401	0.02739	-1.545211
F	1.402234	0.0	0.0
H	0.061744	-0.937706	-1.940515
N	-0.496736	1.108024	0.742381
H	-0.30313	1.963839	0.235913
H	-1.514162	0.99163	0.799833
C	-0.507743	-1.286859	0.598904
H	-1.602091	-1.304696	0.527299
H	-0.069431	-2.14633	0.086744
H	-0.214173	-1.307008	1.65112
N	0.727737	0.983062	-2.157411
O	0.659877	2.167199	-1.823639
O	1.536146	0.541781	-2.973475
C	-1.636795	0.407451	-2.015312
H	-2.418806	-0.041142	-1.384367
H	-1.787172	1.479016	-1.899218
H	-1.768027	0.134752	-3.066713
H	-3.59672	0.0	0.0
