19

C	0.0	0.0	0.0
C	-0.466961	-0.117634	-1.470056
F	1.391117	0.0	0.0
H	-1.544393	-0.333654	-1.392068
N	-0.513058	1.179487	0.623377
H	-1.542239	1.036103	0.615915
H	-0.310774	1.991557	0.05022
C	-0.438538	-1.195643	0.819594
H	-0.116586	-1.021899	1.848307
H	0.013941	-2.113017	0.442933
H	-1.530825	-1.255017	0.773849
N	0.189203	-1.292438	-2.114409
O	-0.346081	-2.395146	-1.980182
O	1.238911	-1.107316	-2.735995
C	-0.201529	1.121699	-2.303041
H	-0.924185	1.891117	-2.029315
H	-0.336264	0.904308	-3.363983
H	0.815443	1.489183	-2.158054
H	-3.114966	0.0	0.0
