19

C	0.0	0.0	0.0
C	-0.511064	-0.173875	-1.437404
F	1.395393	0.0	0.0
H	-1.605136	-0.293944	-1.317385
N	-0.51573	1.265448	0.442834
H	-1.546715	1.138269	0.353364
H	-0.335696	1.333307	1.441897
C	-0.401998	-1.156369	0.902522
H	0.058126	-2.095893	0.59215
H	-0.06849	-0.920855	1.919165
H	-1.494206	-1.230259	0.880042
N	0.00509	-1.454009	-2.006966
O	1.014871	-1.41758	-2.715499
O	-0.610413	-2.489317	-1.741748
C	-0.144094	0.980519	-2.346025
H	0.930343	1.16243	-2.327289
H	-0.448781	0.766572	-3.373594
H	-0.662584	1.87082	-1.994713
H	-3.104986	0.0	0.0
