13

C	0.0	0.0	0.0
C	-0.409519	-0.052539	-1.462293
Br	1.932951	0.0	0.0
H	-1.498313	-0.16768	-1.380412
H	-0.394305	0.871954	0.500273
H	0.071501	-0.915093	-1.935085
N	-0.434043	-1.193833	0.783568
O	-0.516708	-2.264231	0.189059
O	-0.569617	-1.040809	1.991058
N	-0.051066	1.228767	-2.079893
H	-0.78734	1.50242	-2.714224
H	0.810413	1.149192	-2.60363
F	-2.523181	0.0	0.0
