13

C	0.0	0.0	0.0
C	-0.495026	-0.20976	-1.433908
Br	1.92632	0.0	0.0
H	-1.204889	-1.03461	-1.400394
H	-0.359771	0.925925	0.428121
H	0.344612	-0.462138	-2.089526
N	-0.4155	-1.086484	0.948425
O	-0.483389	-2.230851	0.516175
O	-0.560122	-0.761359	2.120599
N	-1.117544	1.049164	-1.851403
H	-1.404845	0.937941	-2.81815
H	-1.965117	0.98858	-1.257891
F	-2.561027	0.0	0.0
