13

C	0.0	0.0	0.0
C	-0.485699	0.137715	-1.434907
Br	1.924887	0.0	0.0
H	-0.220246	1.159933	-1.731561
H	-0.382387	0.799756	0.62115
H	-1.579565	0.055756	-1.298063
N	-0.462471	-1.259052	0.671372
O	-0.603455	-2.263953	-0.018693
O	-0.58159	-1.216461	1.889624
N	0.155852	-0.789224	-2.379593
H	-0.175601	-0.529609	-3.30232
H	-0.223766	-1.707666	-2.183647
F	-2.629788	0.0	0.0
