13

C	0.0	0.0	0.0
C	-0.468963	-0.053982	-1.439123
Br	1.932955	0.0	0.0
H	-0.068258	-0.955517	-1.914626
H	-0.370069	0.878643	0.51126
H	-1.565194	-0.111319	-1.284595
N	-0.438107	-1.184072	0.801322
O	-0.552605	-1.020283	2.010039
O	-0.555427	-2.254706	0.215192
N	-0.078689	1.194106	-2.102367
H	0.751274	1.056867	-2.663916
H	-0.830484	1.480423	-2.713952
F	-2.608048	0.0	0.0
