13

C	0.0	0.0	0.0
C	-0.376759	-0.028147	-1.475799
Br	1.932751	0.0	0.0
H	-1.457643	-0.190177	-1.441395
H	-0.396195	0.866003	0.508693
H	0.157973	-0.852411	-1.960823
N	-0.441423	-1.208727	0.753401
O	-0.617939	-1.077751	1.95831
O	-0.486306	-2.270291	0.138814
N	-0.056906	1.283326	-2.050662
H	0.830495	1.258682	-2.535412
H	-0.776616	1.531882	-2.71429
F	-2.480003	0.0	0.0
