13

C	0.0	0.0	0.0
C	-0.237691	-0.073663	-1.609396
Br	1.930875	0.0	0.0
H	0.431229	-0.889883	-1.925314
H	-0.372627	0.875123	0.513617
H	0.227982	0.852168	-1.956899
N	-0.406974	-1.209712	0.764112
O	-0.513882	-1.083947	1.991219
O	-0.439826	-2.274769	0.160311
N	-1.473904	-0.216678	-2.344887
H	-1.938125	-1.032202	-1.947106
H	-2.111487	0.524456	-2.029971
F	-2.30251	0.0	0.0
