18

C	0.0	0.0	0.0
C	-0.599839	-0.403291	-1.332731
F	1.356266	0.0	0.0
H	-1.686412	-0.336709	-1.171533
N	-0.352569	1.439019	0.418682
O	-1.004907	1.603317	1.43877
O	0.128094	2.315597	-0.293448
C	-0.418394	-0.889641	1.099204
N	-0.57049	-1.682669	1.952074
C	-0.225703	-1.861303	-1.61197
H	-0.606802	-2.530096	-0.838259
H	-0.676602	-2.164645	-2.559515
H	0.858522	-1.989448	-1.691603
C	-0.178555	0.499078	-2.490223
H	-0.527407	0.044705	-3.421234
H	0.907978	0.607097	-2.546882
H	-0.621023	1.490527	-2.413965
Cl	-3.682159	0.0	0.0
