18

C	0.0	0.0	0.0
C	-0.273514	-0.282376	-1.513802
F	1.361505	0.0	0.0
H	0.623304	0.181077	-1.939452
N	-0.339702	1.404498	0.473433
O	-0.457568	1.566464	1.681692
O	-0.295266	2.28815	-0.374792
C	-0.462178	-0.982545	0.978606
N	-0.613231	-1.860257	1.744282
C	-1.436854	0.274195	-2.329294
H	-1.720001	1.275732	-2.022898
H	-2.320527	-0.347551	-2.25586
H	-1.081732	0.306923	-3.369044
C	-0.161382	-1.794705	-1.718606
H	0.741175	-2.210567	-1.258601
H	-0.126269	-2.008123	-2.789754
H	-1.038902	-2.291532	-1.297363
Cl	-3.249541	0.0	0.0
