18

C	0.0	0.0	0.0
C	-0.297536	-0.395416	-1.483365
F	1.361523	0.0	0.0
H	0.634976	-0.053985	-1.943873
N	-0.332134	1.434402	0.380333
O	-0.259304	2.258148	-0.523354
O	-0.478413	1.672295	1.571895
C	-0.458468	-0.916353	1.047172
N	-0.620081	-1.753173	1.856305
C	-1.41073	0.196849	-2.352221
H	-1.663196	1.216096	-2.079443
H	-1.017629	0.191845	-3.378231
H	-2.317953	-0.393212	-2.295011
C	-0.333761	-1.92212	-1.562795
H	0.503237	-2.390821	-1.039937
H	-1.268202	-2.281725	-1.126575
H	-0.298778	-2.227981	-2.611517
Cl	-3.217569	0.0	0.0
