18

C	0.0	0.0	0.0
C	-0.30144	-0.051957	-1.504888
Br	2.146602	0.0	0.0
H	0.178796	0.816298	-1.952265
N	-0.356159	1.298191	0.499904
H	0.402468	1.756935	0.980579
H	-1.186753	1.222542	1.077678
N	-0.547055	-1.030884	0.711846
H	-0.401314	-1.006116	1.708927
H	-0.483097	-1.943312	0.286493
C	-1.792583	-0.080812	-1.792836
H	-2.269153	-0.983766	-1.415387
H	-1.956746	-0.000214	-2.87012
H	-2.295752	0.746438	-1.296674
N	0.323666	-1.228799	-2.184717
O	0.16024	-2.344163	-1.683667
O	0.913294	-1.019182	-3.242336
Br	-4.844893	0.0	0.0
