18

C	0.0	0.0	0.0
C	-0.512201	0.024548	-1.448553
Br	2.012089	0.0	0.0
H	-1.593633	0.176443	-1.32539
N	-0.455051	1.163338	0.677157
H	-0.209743	1.110546	1.65879
H	-1.47772	1.177001	0.587144
N	-0.434433	-1.232268	0.579964
H	0.189882	-2.005172	0.397383
H	-0.606539	-1.135239	1.570552
C	-0.241527	-1.233055	-2.241595
H	0.822268	-1.47333	-2.26848
H	-0.810787	-2.046483	-1.791835
H	-0.587119	-1.100735	-3.268075
N	-0.005419	1.223948	-2.185345
O	-0.623021	2.27708	-2.041648
O	0.984715	1.08452	-2.908724
Br	-3.796866	0.0	0.0
