12

C	-0.530335	-0.052052	-1.421745
C	0.0	0.0	0.0
Br	-0.358359	-1.813337	-2.253012
H	1.099548	0.0	0.0
H	-1.587357	0.211772	-1.480563
H	0.067663	0.632197	-2.020092
C	-0.551912	-1.037682	0.857431
N	-0.999893	-1.83604	1.596213
N	-0.318572	1.356156	0.499459
H	-1.040212	1.338487	1.209577
H	0.539499	1.697887	0.919456
F	2.570246	0.0	0.0
