12

C	-0.311412	0.031538	-1.464601
C	0.0	0.0	0.0
Br	-2.246124	0.146595	-1.891626
H	1.097082	0.0	0.0
H	0.134818	0.927751	-1.889482
H	0.052311	-0.861261	-1.971024
C	-0.496774	-1.209356	0.649163
N	-0.884994	-2.176913	1.194915
N	-0.400922	1.235169	0.667863
H	-1.319509	1.153199	1.087024
H	0.279043	1.416118	1.396686
F	2.550129	0.0	0.0
