12

C	-0.317043	0.110699	-1.459564
C	0.0	0.0	0.0
Br	-2.253432	0.249649	-1.871209
H	1.097061	0.0	0.0
H	0.128079	1.028167	-1.837744
H	0.043436	-0.753769	-2.015114
C	-0.497104	-1.240747	0.586848
N	-0.894373	-2.223433	1.098242
N	-0.397908	1.197569	0.735703
H	-1.314183	1.09227	1.15498
H	0.286454	1.337337	1.469537
F	2.550289	0.0	0.0
