12

C	-0.512124	0.114163	-1.425303
C	0.0	0.0	0.0
Br	-0.314462	-1.534415	-2.456837
H	1.093702	0.0	0.0
H	0.091795	0.866686	-1.927266
H	-1.570265	0.379605	-1.470754
C	-0.561975	-1.130605	0.723729
N	-1.042189	-1.99549	1.361346
N	-0.323081	1.285762	0.653208
H	-1.084015	1.192115	1.315207
H	0.516717	1.556487	1.153484
F	2.570984	0.0	0.0
