12

C	-0.409147	0.113492	-1.461114
C	0.0	0.0	0.0
Br	-0.124199	-1.519873	-2.493044
H	1.094713	0.0	0.0
H	0.224146	0.872471	-1.921124
H	-1.467628	0.361821	-1.590189
C	-0.626161	-1.131083	0.669538
N	-1.139165	-2.040301	1.210727
N	-0.321344	1.248891	0.705967
H	0.506672	1.825029	0.642785
H	-1.10348	1.737291	0.288476
F	2.567621	0.0	0.0
