12

C	-0.196012	0.00229	-1.491618
C	0.0	0.0	0.0
Br	-2.069363	0.305697	-2.094691
H	1.098185	0.0	0.0
H	0.383649	0.816325	-1.924764
H	0.106639	-0.945267	-1.93535
C	-0.577511	-1.18195	0.621183
N	-1.041886	-2.146516	1.107703
N	-0.393426	1.215754	0.699735
H	-1.198257	1.647353	0.259363
H	0.397701	1.846242	0.652091
F	2.544726	0.0	0.0
