14
Coordinates from ORCA-job run
  C   -0.50378007464842     -0.11056803778542     -0.24512034180638
  C   0.86201581246695      0.51595542727423     -0.02699941980922
  H   -0.61128567665981     -0.40172747998092     -1.29013277434914
  H   1.02187043970113      1.35090246309855     -0.70823370077173
  H   1.00851619251153      0.81820457369585      1.01014789172752
  N   -1.50613011026959      1.04840517963053     -0.06762214421633
  O   -1.49835554546526      1.90628286473498     -0.94500374756409
  O   -2.21208264653476      1.03850901468827      0.93575647993985
  N   -0.71116022413517     -1.20893765655907      0.61315169537758
  H   -0.74398124753575     -0.93031277249082      1.58506003514077
  H   -1.55315681837772     -1.71880859029419      0.38554719414750
  N   1.89460646195589     -0.51484463457217     -0.33470935451649
  O   1.87067252699912     -0.98067019486911     -1.46980799830095
  O   2.68225090999184     -0.81239015657070      0.55696618500112
