14
Coordinates from ORCA-job run
  C   -0.51869723595425     -0.14091337365004     -0.24293045902732
  C   0.86655441918765     -0.45088031725142      0.27476260296598
  H   -0.48919475015657      0.06761536088865     -1.31862885247458
  H   0.91874423470345     -0.36424908796671      1.35671675843408
  H   1.15095175177737     -1.46139856247225     -0.02849177789732
  N   -1.00931291097308      1.15567970649162      0.36004018985875
  O   -2.21389561995938      1.36957510457843      0.27190833823036
  O   -0.17396322554342      1.91359706497759      0.84211854674612
  N   -1.43391454969581     -1.17654668523602      0.18007930788204
  H   -1.25433787583562     -2.02092787322007     -0.34955701388463
  H   -2.38150106151678     -0.87717806152487     -0.01719644915268
  N   1.91116956257955      0.45241544706750     -0.29575386419974
  O   2.85888925619099      0.72400562934357      0.43044353090153
  O   1.76850800519588      0.80920564797401     -1.46251085838258
