14
Coordinates from ORCA-job run
  C   -0.56459037993976     -0.14907757140455     -0.32714912722494
  C   0.81222044724290     -0.49833622257011      0.19513343021896
  H   -0.56878985603894     -0.04998009191995     -1.41028731497060
  H   1.13721922538061     -1.45116394903212     -0.22796815525391
  H   0.83101912733031     -0.54317691077597      1.28212099033524
  N   -0.92957978623069      1.23782494973435      0.17662872831504
  O   -1.60667509590126      1.93526730647548     -0.56649908887677
  O   -0.56940672059913      1.51983426981495      1.31808597189179
  N   -1.58641337133447     -1.04518126973822      0.11152911425168
  H   -1.37114584730201     -1.52392305270976      0.97314952151926
  H   -1.88764221698770     -1.68691033121610     -0.60318784987063
  N   1.84049861586406      0.51222702188238     -0.20123481271057
  O   2.82955954234537      0.60248111922540      0.51619631567828
  O   1.63372631617071      1.14211473223421     -1.23651772330282
