14
Coordinates from ORCA-job run
  C   -0.56394447918428     -0.07866599377923     -0.32651599341940
  C   0.76292710750849     -0.43926872586676      0.33319777501455
  H   -0.37883786134778      0.17671646372254     -1.37121289549759
  H   1.01631959649876     -1.46735734380747      0.06702628284364
  H   0.73733153148741     -0.32766793067330      1.41664855355322
  N   -1.02720738572862      1.24328070954421      0.30698656327210
  O   -2.20262777379893      1.38406574729438      0.60368132015301
  O   -0.13435716563287      2.07635264854194      0.45133365755710
  N   -1.58898027864217     -1.05111907898354     -0.23268439635630
  H   -1.60672146693688     -1.55927433431005      0.63857490784670
  H   -1.62172260021076     -1.67223857167192     -1.02447720489334
  N   1.91024230241701      0.38611301540089     -0.16023729054417
  O   1.96096070393802      0.58516702731938     -1.36993198828961
  O   2.73661776963260      0.74589636726893      0.66861070876009
