12

C	0.0	0.0	0.0
C	-0.501589	0.213798	-1.4044
F	1.393301	0.0	0.0
H	-0.046629	1.135034	-1.788769
H	-0.338114	-0.958377	0.401412
H	-0.336923	0.79474	0.667277
H	-1.58381	0.357656	-1.341602
C	-0.168556	-0.96412	-2.315121
H	-0.401678	-0.738489	-3.359893
H	-0.758374	-1.837773	-2.025331
H	0.89351	-1.221301	-2.253879
Br	-3.919355	0.0	0.0
