16

C	0.0	0.0	0.0
C	-0.300348	-0.6442	-1.405764
F	1.412165	0.0	0.0
H	0.664054	-0.657316	-1.920945
H	-0.333993	-0.706125	0.761762
N	-0.469978	1.286496	0.343067
H	-1.480771	1.197163	0.458231
H	-0.31044	1.914819	-0.431561
N	-1.123009	0.189899	-2.346041
O	-1.954208	-0.367425	-3.051752
O	-0.805248	1.377758	-2.447031
C	-0.855452	-2.049072	-1.283719
H	-1.846478	-2.001712	-0.832784
H	-0.178836	-2.624514	-0.642525
H	-0.918801	-2.540965	-2.254543
Cl	-3.447773	0.0	0.0
