16

C	0.0	0.0	0.0
C	-0.321671	-0.418654	-1.485243
F	1.403455	0.0	0.0
H	0.649252	-0.461327	-1.984972
H	-0.326615	-0.818511	0.643484
N	-0.482237	1.211786	0.54242
H	-0.378862	1.946956	-0.143631
H	-1.480086	1.077486	0.71429
N	-1.025077	0.633855	-2.294955
O	-0.566954	1.778012	-2.217155
O	-1.917473	0.294243	-3.061248
C	-1.031723	-1.752098	-1.580041
H	-0.437527	-2.493193	-1.037495
H	-2.021982	-1.664349	-1.131337
H	-1.129746	-2.078182	-2.616439
Cl	-3.556342	0.0	0.0
