16

C	0.0	0.0	0.0
C	-0.430992	-0.180076	-1.45258
F	1.412525	0.0	0.0
H	-0.139112	-1.179795	-1.776824
H	-0.308058	-0.883988	0.563081
N	-0.531641	1.14861	0.60568
H	-0.244904	1.988898	0.12545
H	-0.324659	1.193734	1.591071
N	0.392457	0.723472	-2.32431
O	0.411777	1.923101	-2.048447
O	0.971579	0.219096	-3.284264
C	-1.901103	0.097514	-1.695278
H	-2.550622	-0.460512	-1.017117
H	-2.164725	-0.157526	-2.72454
H	-2.128899	1.144126	-1.505286
Cl	-4.984436	0.0	0.0
