16

C	0.0	0.0	0.0
C	-0.236342	-0.151442	-1.533642
F	1.396653	0.0	0.0
H	0.17159	-1.121046	-1.823307
H	-0.359049	-0.904929	0.493409
N	-0.518378	1.12978	0.673968
H	-1.514446	0.977453	0.826083
H	-0.399378	1.95476	0.100839
N	0.67382	0.823774	-2.221954
O	1.503635	0.384038	-3.015515
O	0.515069	2.019746	-1.973745
C	-1.627563	0.045048	-2.081396
H	-2.32154	-0.673378	-1.650807
H	-2.021975	1.024153	-1.821955
H	-1.602342	-0.070502	-3.168098
Cl	-4.103534	0.0	0.0
