16

C	0.0	0.0	0.0
C	-0.269305	0.311351	-1.498809
F	1.397372	0.0	0.0
H	0.123323	-0.524898	-2.080249
H	-0.343134	-1.016964	0.204312
N	-0.520917	0.869756	0.985743
H	-1.503529	0.64941	1.133194
H	-0.444855	1.830714	0.677598
N	0.619345	1.45435	-1.891729
O	0.452552	2.526664	-1.307539
O	1.442695	1.270365	-2.786473
C	-1.683832	0.653616	-1.894124
H	-2.037441	1.534061	-1.36226
H	-1.729909	0.836369	-2.971509
H	-2.376456	-0.142917	-1.627115
Cl	-4.263177	0.0	0.0
