16

C	0.0	0.0	0.0
C	-0.274586	-0.099174	-1.524067
F	1.397412	0.0	0.0
H	0.131128	-1.052627	-1.865819
H	-0.339626	-0.928286	0.465897
N	-0.524262	1.095519	0.723033
H	-0.4717	1.939528	0.167391
H	-1.499841	0.908288	0.942384
N	0.592382	0.913202	-2.211668
O	0.417014	2.097905	-1.922341
O	1.407699	0.512974	-3.040498
C	-1.696648	0.100365	-1.983607
H	-2.367549	-0.622626	-1.522626
H	-1.747252	0.005312	-3.071727
H	-2.075411	1.075342	-1.686289
Cl	-4.286331	0.0	0.0
