19

C	-0.352609	0.063879	-1.490574
C	0.0	0.0	0.0
F	-0.038831	-1.197402	-2.008061
H	1.094778	0.0	0.0
N	-1.721469	0.318299	-1.882676
H	-2.322572	-0.267186	-1.313991
H	-1.945104	1.288742	-1.702478
C	0.604861	1.048919	-2.139839
H	0.574078	0.892375	-3.219849
H	0.319857	2.084347	-1.926405
H	1.600823	0.850562	-1.727096
N	-0.566619	-1.196268	0.665156
O	-0.007187	-1.600999	1.682714
O	-1.613531	-1.691239	0.22277
C	-0.458705	1.211241	0.794646
H	0.046119	2.099415	0.410534
H	-1.544767	1.360459	0.756379
H	-0.149567	1.08859	1.834727
F	2.638025	0.0	0.0
