19

C	-0.129861	0.065377	-1.529262
C	0.0	0.0	0.0
F	-1.421947	0.490181	-1.912109
H	1.092125	0.0	0.0
N	0.816328	1.085311	-1.912872
H	1.010159	0.99841	-2.904587
H	1.685177	0.874652	-1.390368
C	0.113915	-1.258354	-2.230303
H	-0.633597	-2.014658	-1.980293
H	0.080705	-1.075804	-3.31021
H	1.104328	-1.61268	-1.938173
N	-0.534232	-1.255348	0.568241
O	-1.581188	-1.211522	1.23012
O	0.096493	-2.295367	0.374824
C	-0.591015	1.208066	0.685268
H	-0.131492	2.09192	0.243847
H	-0.358662	1.18443	1.752288
H	-1.672815	1.260705	0.560739
F	2.655551	0.0	0.0
