19

C	-0.351102	0.045523	-1.500493
C	0.0	0.0	0.0
F	-0.163525	-1.267728	-1.957677
H	1.091405	0.0	0.0
N	-1.698822	0.395189	-1.880713
H	-1.819725	1.39534	-1.792179
H	-2.339948	-0.061818	-1.240584
C	0.683633	0.912688	-2.191243
H	0.492375	1.974087	-2.004445
H	0.632171	0.729241	-3.266563
H	1.662641	0.653071	-1.768049
N	-0.597901	-1.223004	0.588076
O	-1.838849	-1.291075	0.600277
O	0.132714	-2.100406	1.034851
C	-0.499108	1.205255	0.772201
H	-0.220862	1.103742	1.824314
H	-1.581817	1.338796	0.704118
H	0.009542	2.09479	0.393956
F	2.665326	0.0	0.0
