19

C	-0.195463	-0.008436	-1.546118
C	0.0	0.0	0.0
F	-0.167629	1.357481	-1.896841
H	1.095879	0.0	0.0
N	0.914885	-0.617465	-2.221235
H	1.747902	-0.399765	-1.648849
H	0.7943	-1.620378	-2.141107
C	-1.528211	-0.529753	-2.046422
H	-1.641951	-1.59251	-1.834573
H	-2.345242	0.020397	-1.573406
H	-1.570535	-0.371734	-3.126287
N	-0.424927	-1.29349	0.562921
O	-1.027984	-1.309375	1.642074
O	-0.132644	-2.32736	-0.050111
C	-0.602748	1.158057	0.753504
H	-1.694919	1.194492	0.674986
H	-0.184112	2.076991	0.347747
H	-0.339742	1.092202	1.809593
F	2.618016	0.0	0.0
