19

C	-0.094826	0.050016	-1.5403
C	0.0	0.0	0.0
F	-1.380766	0.437206	-1.954341
H	1.091966	0.0	0.0
N	0.844503	1.048973	-2.023052
H	1.721274	0.839963	-1.514589
H	0.529006	1.955107	-1.692719
C	0.255688	-1.265754	-2.193833
H	0.280772	-1.099184	-3.2723
H	-0.4657	-2.047369	-1.951893
H	1.243643	-1.556983	-1.832956
N	-0.566835	-1.241182	0.568364
O	0.084626	-2.282461	0.467147
O	-1.677274	-1.186389	1.113616
C	-0.591272	1.209136	0.688476
H	-0.030945	2.095633	0.3855
H	-0.483626	1.112605	1.770909
H	-1.648058	1.344703	0.453572
F	2.655252	0.0	0.0
