14
Coordinates from ORCA-job run
  C   -0.49444390985244     -0.34803823381449      0.42618261686212
  C   1.00152721259096      0.07655759618648      0.44386963360061
  F   -0.97332911362033     -0.08257732869793      1.69662780906514
  H   1.49343657855037     -0.49639152034967      1.23931166192909
  C   -0.55762541538814     -1.80226978878123      0.20393167089755
  N   -0.60572726652407     -2.96123870256761      0.01926167554500
  C   -1.32346659151692      0.40871818879391     -0.58844904899573
  H   -2.36192774449549      0.08507019580900     -0.50876066436752
  H   -1.26837250718491      1.47781962657999     -0.37599103481026
  H   -0.96795044654137      0.21633610811663     -1.60208765194181
  C   1.11439667317098      1.50431151917450      0.75600188388149
  N   1.18661827953101      2.64879337015528      1.00673186150364
  C   1.63797290891431     -0.23308128741545     -0.83813860903836
  N   2.11789134236603     -0.49400974318940     -1.87749180413096
