17

C	-0.35667	-0.028012	-1.47693
C	0.0	0.0	0.0
Cl	-2.167126	-0.081976	-1.704211
H	1.098618	0.0	0.0
H	-0.054049	0.918979	-1.929875
C	0.278359	-1.193512	-2.20097
H	1.360044	-1.125549	-2.053729
H	0.048855	-1.169595	-3.268675
H	-0.073827	-2.128201	-1.767068
N	-0.43319	-1.238171	0.646554
H	-1.383417	-1.132658	0.989769
H	0.17371	-1.413899	1.43933
C	-0.474906	1.266903	0.702102
H	-0.10328	2.162179	0.194388
H	-0.088657	1.281402	1.724735
H	-1.568463	1.314827	0.738193
Cl	3.514108	0.0	0.0
