16

C	-0.398048	0.029217	-1.48582
C	0.0	0.0	0.0
F	0.08545	-1.189644	-2.017825
H	1.095676	0.0	0.0
N	-1.813353	0.105369	-1.65466
H	-2.03405	0.048282	-2.642507
H	-2.253809	-0.678103	-1.184431
C	0.324843	1.143028	-2.206796
H	1.392522	1.049968	-1.99163
H	0.151252	1.04933	-3.282866
H	-0.041538	2.112648	-1.864603
C	-0.508229	-1.194981	0.651878
N	-0.919107	-2.165739	1.174138
C	-0.455068	1.196949	0.68716
N	-0.776453	2.194756	1.219878
H	2.588577	0.0	0.0
