16

C	-0.230706	0.041138	-1.51641
C	0.0	0.0	0.0
F	-1.583186	0.264665	-1.817162
H	1.096923	0.0	0.0
N	0.522971	1.169509	-1.98232
H	1.45701	1.10476	-1.56154
H	0.62539	1.113293	-2.989908
C	0.14868	-1.286	-2.145103
H	0.065806	-1.198259	-3.232984
H	1.183949	-1.512295	-1.873163
H	-0.508232	-2.09058	-1.80722
C	-0.51294	-1.195981	0.639205
N	-0.877821	-2.186094	1.158778
C	-0.483545	1.199706	0.662153
N	-0.840353	2.165322	1.229304
H	2.5761	0.0	0.0
