16

C	-0.396779	-0.040653	-1.489478
C	0.0	0.0	0.0
F	-0.040062	-1.300414	-1.960788
H	1.096317	0.0	0.0
N	-1.828008	0.057079	-1.649544
H	-2.185056	0.823699	-1.092052
H	-2.04338	0.247695	-2.623133
C	0.431425	0.965182	-2.266665
H	1.487736	0.816473	-2.021751
H	0.140649	1.984531	-2.00042
H	0.261289	0.81238	-3.337161
C	-0.506985	-1.146176	0.735239
N	-0.865607	-2.080193	1.352593
C	-0.446253	1.243204	0.603452
N	-0.791987	2.275475	1.051253
H	2.583327	0.0	0.0
