16

C	-0.229179	0.031357	-1.517024
C	0.0	0.0	0.0
F	-1.580557	0.256036	-1.820906
H	1.096697	0.0	0.0
N	0.527853	1.155326	-1.987987
H	1.460835	1.090893	-1.564089
H	0.630942	1.096261	-2.995308
C	0.149859	-1.30067	-2.135967
H	1.182036	-1.529422	-1.855594
H	-0.512232	-2.100448	-1.798541
H	0.075901	-1.218569	-3.224409
C	-0.514338	-1.191718	0.645531
N	-0.89261	-2.1796	1.15967
C	-0.48691	1.20323	0.653402
N	-0.876346	2.160794	1.212602
H	2.58041	0.0	0.0
