16

C	-0.22572	0.025168	-1.531221
C	0.0	0.0	0.0
F	-1.588965	0.173624	-1.802158
H	1.096642	0.0	0.0
N	0.455191	1.146925	-2.124026
H	0.095717	1.998504	-1.70184
H	1.433728	1.067311	-1.834958
C	0.268804	-1.263821	-2.141546
H	0.198478	-1.181618	-3.226742
H	1.310263	-1.410846	-1.841951
H	-0.332852	-2.105448	-1.794606
C	-0.526113	-1.177119	0.662301
N	-0.93419	-2.153702	1.17594
C	-0.478496	1.22114	0.620275
N	-0.843936	2.237803	1.085216
H	2.575519	0.0	0.0
