16

C	0.0	0.0	0.0
C	-0.256741	-0.03884	-1.527086
F	1.34126	0.0	0.0
H	-0.140696	1.005963	-1.827325
H	0.62842	-0.565969	-1.898593
N	-0.385858	1.28064	0.703321
O	-0.687992	2.242228	0.009351
O	-0.183423	1.321329	1.913375
N	-0.408165	-1.262204	0.72705
O	-0.233479	-2.270329	0.042294
O	-0.719141	-1.259259	1.904484
C	-1.46786	-0.632619	-2.228627
H	-2.350136	-0.042623	-2.016965
H	-1.239636	-0.659406	-3.305217
H	-1.657573	-1.647601	-1.885865
F	-2.263661	0.0	0.0
