16

C	0.0	0.0	0.0
C	-0.467562	0.006086	-1.43816
F	1.332618	0.0	0.0
H	-1.537288	-0.228535	-1.358809
H	-0.373434	1.043385	-1.76595
N	-0.453269	1.215189	0.795689
O	-0.853493	1.099064	1.93917
O	-0.240749	2.277979	0.213524
N	-0.348229	-1.285758	0.746391
O	0.112532	-1.373272	1.883461
O	-0.902085	-2.186912	0.135108
C	0.355569	-0.91249	-2.335601
H	0.27563	-1.951939	-2.014063
H	-0.040674	-0.854806	-3.353539
H	1.413867	-0.640128	-2.374179
F	-2.520356	0.0	0.0
