16

C	0.0	0.0	0.0
C	-0.498068	-0.059396	-1.419872
F	1.338552	0.0	0.0
H	0.136081	-0.815741	-1.897664
H	-1.541506	-0.382951	-1.308028
N	-0.389814	1.225424	0.825018
O	0.120347	2.258202	0.386773
O	-1.057594	1.138439	1.835848
N	-0.345048	-1.265797	0.778
O	-0.775032	-2.225802	0.156382
O	0.011048	-1.276448	1.95476
C	-0.431016	1.255717	-2.184583
H	-0.674555	1.057761	-3.233097
H	0.548891	1.736479	-2.139423
H	-1.177995	1.941581	-1.785632
F	-2.567044	0.0	0.0
