16

C	0.0	0.0	0.0
C	-0.460618	-0.09705	-1.437841
F	1.3386	0.0	0.0
H	-1.557171	-0.143374	-1.351989
H	-0.07012	-1.065055	-1.767872
N	-0.430405	1.249533	0.755842
O	-0.943547	1.189014	1.856042
O	-0.096147	2.28283	0.175678
N	-0.354714	-1.24668	0.806716
O	0.04455	-1.247363	1.969291
O	-0.846823	-2.200176	0.224331
C	0.062584	0.998729	-2.359901
H	1.13574	1.174602	-2.242098
H	-0.116211	0.691957	-3.39556
H	-0.455464	1.941077	-2.190908
F	-2.536983	0.0	0.0
