16

C	0.0	0.0	0.0
C	-0.395362	-0.066431	-1.477043
F	1.355661	0.0	0.0
H	-1.337837	-0.595343	-1.514337
H	-0.609029	0.956747	-1.781335
N	-0.397672	1.288215	0.700497
O	-0.503198	2.275388	-0.020081
O	-0.411927	1.31574	1.923155
N	-0.397677	-1.265924	0.740855
O	-0.487519	-2.259512	0.024742
O	-0.43079	-1.283325	1.962169
C	0.683931	-0.674283	-2.372139
H	1.578725	-0.052872	-2.444206
H	0.977653	-1.664331	-2.022059
H	0.274576	-0.788087	-3.380302
F	-2.312495	0.0	0.0
