16

C	0.0	0.0	0.0
C	-0.468326	0.011621	-1.436904
F	1.352615	0.0	0.0
H	0.265825	0.640534	-1.958153
H	-1.452802	0.473429	-1.391544
N	-0.325742	1.308042	0.715453
O	-0.777417	2.233477	0.059673
O	0.061586	1.381736	1.878737
N	-0.391382	-1.182133	0.87679
O	-1.0062	-1.039292	1.915104
O	0.068048	-2.244642	0.453819
C	-0.593465	-1.346704	-2.109749
H	-1.413409	-1.886662	-1.638744
H	0.315423	-1.948299	-2.058045
H	-0.846062	-1.185722	-3.162846
F	-2.48584	0.0	0.0
