16

C	0.0	0.0	0.0
C	-0.44801	-0.049913	-1.444247
F	1.348222	0.0	0.0
H	0.177796	-0.836927	-1.881479
H	-1.498101	-0.347077	-1.384731
N	-0.413045	1.201685	0.835437
O	-0.029509	2.265653	0.347056
O	-0.957845	1.074665	1.914565
N	-0.336427	-1.294501	0.734344
O	-0.791535	-2.225482	0.08806
O	0.047428	-1.356402	1.900063
C	-0.279787	1.242338	-2.231168
H	-1.022341	1.970892	-1.909875
H	0.712719	1.685673	-2.124011
H	-0.447798	1.024204	-3.291026
F	-2.487945	0.0	0.0
