16

C	0.0	0.0	0.0
C	-0.337668	-0.044228	-1.51166
F	1.355342	0.0	0.0
H	0.646876	-0.125162	-1.991891
H	-0.714731	0.948791	-1.736027
N	-0.383896	1.327073	0.652356
O	-0.143493	2.298386	-0.063197
O	-0.751846	1.389026	1.810245
N	-0.329643	-1.205325	0.851172
O	-0.131642	-1.108614	2.057232
O	-0.575962	-2.252617	0.268404
C	-1.27972	-1.051736	-2.167067
H	-2.262644	-0.909015	-1.730671
H	-0.959121	-2.082027	-2.031966
H	-1.285141	-0.829793	-3.242279
F	-2.263341	0.0	0.0
