16

C	-0.375699	-0.047788	-1.464045
C	0.0	0.0	0.0
F	-0.058322	1.252813	-1.993806
H	1.098529	0.0	0.0
H	-0.376279	-0.917974	0.465885
C	0.530664	-1.010449	-2.198157
H	0.260235	-2.038291	-1.941379
H	1.550942	-0.802018	-1.856692
H	0.441586	-0.876842	-3.280854
N	-1.775592	-0.279952	-1.654135
H	-2.250506	0.357994	-1.021549
H	-2.026029	-0.036298	-2.607404
N	-0.661165	1.160832	0.633722
H	-0.450871	1.114311	1.624959
H	-0.155052	1.971068	0.290998
F	2.796382	0.0	0.0
