16

C	-0.129709	-0.021285	-1.509759
C	0.0	0.0	0.0
F	-1.467321	-0.208225	-1.929427
H	1.09415	0.0	0.0
H	-0.382329	-0.950001	0.405269
C	0.404217	1.264589	-2.097211
H	1.414619	1.38888	-1.698637
H	0.432295	1.186649	-3.186009
H	-0.216064	2.102105	-1.78228
N	0.65463	-1.131736	-2.034325
H	0.311941	-1.971484	-1.570017
H	1.583096	-0.968392	-1.625326
N	-0.543707	1.193241	0.64941
H	-1.414558	0.979474	1.1159
H	0.119318	1.49069	1.353562
F	2.749087	0.0	0.0
