11
Coordinates from ORCA-job run
  C   -0.21230321566180     -0.19671079113683      0.57999943729271
  C   0.48493033918628      0.01468436573407     -0.75936601885055
  H   0.46851039668074     -0.12296719489924      1.42549479768573
  H   -0.23954170716495     -0.04650805525818     -1.57253348313827
  H   -0.73254338306125     -1.15596625736091      0.61165257237304
  H   0.93806484426305      1.00904054327228     -0.79624847861819
  N   -1.26007195064456      0.85254436666659      0.78710795539565
  O   -1.40422916380215      1.27554965212631      1.92945022242077
  O   -1.91811660144579      1.18595936361334     -0.19525678345706
  C   1.52425901945025     -0.99582574791137     -0.94316148576610
  N   2.35104142220019     -1.81880024484606     -1.06713873533773
