11
Coordinates from ORCA-job run
  C   -0.01024417890187      0.46009756446322      0.45595968341849
  C   0.32531331115765     -0.54771960834851     -0.63759102664825
  H   0.15912955528612      1.48479348490994      0.11975540470779
  H   0.08519092515917     -1.56100314720109     -0.30426854866473
  H   0.54205865315426      0.28307145422319      1.37652392686176
  H   -0.27058780297862     -0.34530758743597     -1.52848024990368
  N   -1.46236825435761      0.37316183945594      0.81061542572598
  O   -1.75587583263066      0.53442391196516      1.99058094144624
  O   -2.25228480572873      0.18135640370759     -0.11048697459635
  C   1.74770834400339     -0.47282481685747     -0.96392101770039
  N   2.89196008583691     -0.39204949888201     -1.20968756464686
