12

C	-0.206578	-0.065254	-1.525877
C	0.0	0.0	0.0
F	-0.309854	1.245558	-2.001514
H	1.094871	0.0	0.0
H	-1.136982	-0.562784	-1.826951
H	-0.315117	-0.953495	0.43773
N	0.918513	-0.694794	-2.150801
H	1.74996	-0.511325	-1.560499
H	0.767839	-1.693268	-2.199987
C	-0.657206	1.093656	0.678758
N	-1.213608	1.968629	1.232415
F	2.659926	0.0	0.0
