12

C	-0.459313	0.006442	-1.440033
C	0.0	0.0	0.0
F	-0.117604	-1.23009	-2.027589
H	1.091856	0.0	0.0
H	0.110664	0.757793	-1.99172
H	-0.316476	0.94294	0.458776
N	-1.861785	0.25243	-1.595035
H	-2.117925	0.127479	-2.567749
H	-2.371278	-0.435161	-1.049692
C	-0.600933	-1.09958	0.730126
N	-1.112128	-1.990522	1.303142
F	2.585494	0.0	0.0
