12

C	-0.246574	-0.450619	-1.456601
C	0.0	0.0	0.0
F	-0.754647	0.684223	-2.160288
H	1.093192	0.0	0.0
H	-1.043987	-1.195926	-1.557893
H	-0.40684	0.995247	0.179345
N	0.968097	-0.88054	-2.02019
H	0.950903	-1.790022	-2.441482
H	1.790628	-0.69289	-1.420818
C	-0.520607	-0.955079	0.956634
N	-0.947757	-1.742698	1.719464
F	2.674755	0.0	0.0
