12

C	-0.396297	0.123264	-1.464671
C	0.0	0.0	0.0
F	-0.182174	-1.135585	-2.041522
H	1.091584	0.0	0.0
H	0.319753	0.780826	-1.966983
H	-0.378453	-0.948328	0.391314
N	-1.759788	0.502509	-1.700306
H	-2.18802	0.88273	-0.869405
H	-1.84115	1.167611	-2.45387
C	-0.516574	1.101609	0.784025
N	-0.958383	2.00795	1.390725
F	2.581315	0.0	0.0
