12

C	-0.408525	0.060415	-1.4563
C	0.0	0.0	0.0
F	-0.066845	-1.189368	-2.02082
H	1.092079	0.0	0.0
H	0.201628	0.793146	-1.985525
H	-0.357947	-0.94339	0.426621
N	-1.789641	0.337352	-1.677248
H	-2.006498	0.242871	-2.661755
H	-2.351778	-0.324366	-1.159064
C	-0.521072	1.114074	0.767648
N	-0.919442	2.008938	1.41857
F	2.584014	0.0	0.0
