12

C	-0.484021	-0.038873	-1.440179
C	0.0	0.0	0.0
F	-0.112207	-1.254698	-1.992092
H	1.092808	0.0	0.0
H	0.034299	0.749446	-1.995777
H	-0.3071	0.958772	0.436481
N	-1.910727	0.089508	-1.67824
H	-2.193431	1.029502	-1.425311
H	-2.389442	-0.551359	-1.051611
C	-0.600079	-1.069818	0.772299
N	-1.124253	-1.932659	1.375759
F	2.583683	0.0	0.0
