19

C	0.0	0.0	0.0
C	-0.549001	0.04042	-1.443798
Cl	1.801317	0.0	0.0
H	-1.620299	0.251945	-1.338338
C	-0.45684	1.209313	0.803014
H	-0.098083	1.113969	1.830997
H	-0.073024	2.138745	0.383944
H	-1.550284	1.229634	0.796632
C	-0.480188	-1.278571	0.667634
H	-1.574767	-1.283973	0.640989
H	-0.14661	-1.28915	1.707731
H	-0.0827	-2.165051	0.170947
N	-0.367388	-1.122156	-2.256661
H	0.553997	-1.522771	-2.132136
H	-1.082459	-1.797441	-2.023547
N	0.045636	1.216596	-2.180266
O	1.014689	1.006615	-2.904445
O	-0.466136	2.318973	-1.988801
Cl	-3.785417	0.0	0.0
