19

C	0.0	0.0	0.0
C	-0.3379	-0.25268	-1.503873
Cl	1.800304	0.0	0.0
H	0.190031	0.511244	-2.075277
C	-0.521907	1.382132	0.345411
H	-0.21495	1.65791	1.356794
H	-1.615627	1.355257	0.304231
H	-0.139963	2.135465	-0.349202
C	-0.535412	-1.028598	0.97336
H	-0.149423	-2.024966	0.767666
H	-1.627786	-1.03606	0.907763
H	-0.254379	-0.739281	1.989408
N	-1.697043	-0.313842	-1.91628
H	-2.076951	0.607536	-2.080962
H	-2.325868	-0.737919	-1.236545
N	0.310811	-1.535059	-1.987714
O	-0.116471	-2.591921	-1.530633
O	1.181458	-1.440694	-2.850873
Cl	-4.196947	0.0	0.0
