19

C	0.0	0.0	0.0
C	-0.34874	-0.747954	-1.322021
Cl	1.803445	0.0	0.0
H	0.236181	-0.271597	-2.11045
C	-0.50372	1.42675	-0.142053
H	-0.139922	2.033936	0.690275
H	-0.15533	1.878871	-1.075793
H	-1.597301	1.415412	-0.120758
C	-0.523591	-0.627018	1.27756
H	-0.114132	-1.621825	1.44015
H	-0.254361	0.010669	2.124957
H	-1.614308	-0.68822	1.222887
N	-1.706199	-0.850678	-1.732411
H	-1.983628	-0.024034	-2.243538
H	-2.386503	-0.948392	-0.977747
N	0.209684	-2.160265	-1.301756
O	1.087353	-2.435037	-2.118985
O	-0.286941	-2.952758	-0.506371
Cl	-4.200997	0.0	0.0
