19

C	0.0	0.0	0.0
C	-0.543985	0.013378	-1.432176
Cl	1.804605	0.0	0.0
H	-1.634186	0.096304	-1.324835
C	-0.459891	1.205782	0.805498
H	-0.126441	1.084917	1.838694
H	-1.552484	1.237476	0.776476
H	-0.055666	2.139329	0.416221
C	-0.470978	-1.284105	0.668188
H	-0.111131	-1.303879	1.699856
H	-1.564947	-1.282435	0.664168
H	-0.103642	-2.157353	0.133087
N	-0.178674	-1.141097	-2.176776
H	0.794316	-1.078585	-2.450288
H	-0.750315	-1.20817	-3.008242
N	-0.108925	1.301174	-2.144707
O	-0.718592	2.334381	-1.881841
O	0.824906	1.221708	-2.945684
Cl	-3.816613	0.0	0.0
