16

C	0.0	0.0	0.0
C	-0.395037	-0.078412	-1.504301
Cl	1.764214	0.0	0.0
H	0.48099	0.249558	-2.06952
H	-0.398975	-0.83686	0.56362
N	-0.338247	1.22929	0.831097
O	0.027525	2.318968	0.412801
O	-0.833004	0.995959	1.926981
N	-1.439868	0.845731	-2.112538
O	-2.020875	0.39103	-3.092076
O	-1.471286	2.008298	-1.746377
C	-0.713221	-1.529769	-1.814923
H	-1.672255	-1.769488	-1.35338
H	-0.774447	-1.690486	-2.889035
H	0.074969	-2.168481	-1.406192
Br	-3.432777	0.0	0.0
