20

C	0.0	0.0	0.0
C	-0.516898	0.169636	-1.433603
Br	1.987424	0.0	0.0
H	-1.600441	0.030039	-1.313583
C	-0.461463	1.129074	0.90592
H	-0.159593	0.929349	1.937055
H	-0.046705	2.0936	0.609087
H	-1.555897	1.159235	0.855112
C	-0.445598	-1.341639	0.558772
H	-0.108124	-2.15358	-0.083383
H	-0.058521	-1.48293	1.571489
H	-1.54054	-1.328951	0.587374
N	-0.02493	-0.916847	-2.285393
H	0.897523	-0.674441	-2.63175
H	-0.642829	-0.999101	-3.084257
C	-0.28127	1.556675	-2.028691
H	-0.645563	1.565813	-3.06039
H	0.785449	1.804891	-2.037953
H	-0.823746	2.331899	-1.484448
Cl	-3.898962	0.0	0.0
