20

C	0.0	0.0	0.0
C	-0.372577	0.256187	-1.504054
Br	1.981203	0.0	0.0
H	0.344004	1.011022	-1.850852
C	-0.453949	1.157292	0.874008
H	-0.123641	2.116138	0.464049
H	-1.546711	1.139357	0.926351
H	-0.050634	1.057725	1.884813
C	-0.5216	-1.312224	0.55197
H	-0.12593	-2.172762	0.011846
H	-1.615175	-1.298314	0.468775
H	-0.258937	-1.4142	1.608339
N	-1.690672	0.801967	-1.750067
H	-2.447755	0.246828	-1.349263
H	-1.782728	1.717625	-1.329288
C	-0.208311	-0.99341	-2.362494
H	-1.007473	-1.706007	-2.141868
H	-0.304834	-0.707235	-3.411443
H	0.75746	-1.480619	-2.209799
Cl	-4.29504	0.0	0.0
