20

C	0.0	0.0	0.0
C	-0.549176	0.194229	-1.424979
Br	1.972241	0.0	0.0
H	-1.610294	0.418381	-1.241722
C	-0.462853	1.133485	0.905528
H	-0.085693	0.984158	1.920176
H	-1.557177	1.112561	0.919768
H	-0.119121	2.108568	0.555078
C	-0.462614	-1.330545	0.571467
H	-1.558088	-1.331195	0.544982
H	-0.131693	-1.435615	1.607774
H	-0.066794	-2.161993	-0.011856
N	-0.412047	-1.039225	-2.213688
H	-0.554835	-0.799755	-3.189865
H	-1.188106	-1.645015	-1.965222
C	0.074252	1.341955	-2.202112
H	-0.541569	1.560887	-3.080116
H	0.139448	2.254924	-1.609626
H	1.077844	1.070453	-2.536442
Cl	-3.904935	0.0	0.0
