12

C	0.0	0.0	0.0
C	-0.387227	0.159195	-1.483913
F	1.381568	0.0	0.0
H	0.255462	0.972111	-1.844128
H	-0.36598	-0.931284	0.432556
H	-0.361094	0.852002	0.577786
N	-1.749082	0.473883	-1.847712
H	-2.444176	-0.034929	-1.292418
H	-1.930106	1.448069	-1.639804
C	0.066869	-1.048181	-2.205086
N	0.444569	-2.010424	-2.76136
Cl	-4.241257	0.0	0.0
