12

C	0.0	0.0	0.0
C	-0.570627	0.429769	-1.355412
F	1.37407	0.0	0.0
H	-1.46267	1.029881	-1.142739
H	-0.356693	-1.003197	0.229901
H	-0.333113	0.690133	0.776144
N	-0.908311	-0.756967	-2.155342
H	-1.751496	-1.114751	-1.701116
H	-1.212836	-0.441214	-3.070339
C	0.388495	1.271392	-2.080188
N	1.109628	1.975271	-2.682033
Cl	-3.453579	0.0	0.0
