12

C	0.0	0.0	0.0
C	-0.233894	0.030018	-1.520643
F	1.388946	0.0	0.0
H	0.395617	-0.802089	-1.881868
H	-0.372931	-0.903283	0.473863
H	-0.377272	0.893571	0.487658
N	0.264453	1.327574	-2.009963
H	1.254405	1.37339	-1.795415
H	0.160704	1.353701	-3.018143
C	-1.525975	-0.212754	-2.182786
N	-2.175256	-0.430995	-3.142217
Cl	-3.160478	0.0	0.0
