12

C	0.0	0.0	0.0
C	-0.28685	0.041203	-1.571698
F	1.376994	0.0	0.0
H	0.527439	-0.556159	-2.000247
H	-0.379488	0.905539	0.466719
H	-0.377618	-0.898802	0.487396
N	-0.105842	1.424144	-2.016351
H	-0.920101	1.939778	-1.688361
H	-0.125626	1.451325	-3.02927
C	-1.523804	-0.516854	-2.201565
N	-2.3498	-0.876607	-2.980113
Cl	-3.181773	0.0	0.0
