12

C	0.0	0.0	0.0
C	-0.499422	0.296029	-1.406249
F	1.385155	0.0	0.0
H	-1.574682	0.487125	-1.3014
H	-0.346519	0.759112	0.702762
H	-0.364052	-0.978077	0.315279
N	-0.317196	-0.798968	-2.359371
H	0.576087	-1.246017	-2.183563
H	-1.052876	-1.472835	-2.178211
C	0.157698	1.506436	-1.92329
N	0.683774	2.475246	-2.326187
Cl	-3.44109	0.0	0.0
