17

C	0.0	0.0	0.0
C	-0.308834	-0.047832	-1.543691
Br	1.962158	0.0	0.0
H	0.525471	0.444121	-2.049831
C	-0.435755	1.340849	0.582389
H	-0.068755	1.42344	1.610785
H	-0.063489	2.184867	-0.001328
H	-1.528574	1.317494	0.570236
N	-0.587983	-1.131549	0.649009
H	-1.606383	-0.965511	0.485192
H	-0.435921	-1.038804	1.649908
N	-1.51723	0.66077	-1.919865
H	-2.29425	0.375531	-1.275774
H	-1.74331	0.416852	-2.877879
C	-0.253066	-1.457287	-2.010025
N	-0.219027	-2.50573	-2.541064
F	-3.054406	0.0	0.0
