17

C	0.0	0.0	0.0
C	-0.370742	0.144968	-1.497665
Br	2.022101	0.0	0.0
H	0.423526	-0.375572	-2.055362
C	-0.547568	1.077014	0.886246
H	-0.208206	2.059687	0.552545
H	-1.647773	0.894291	0.764108
H	-0.209154	0.917694	1.918166
N	-0.372354	-1.301704	0.429298
H	-0.609359	-1.324564	1.404714
H	0.300273	-2.013589	0.184028
N	-0.341759	1.548886	-1.910259
H	-0.337648	1.575275	-2.925387
H	-1.216189	1.954371	-1.591543
C	-1.628948	-0.545154	-1.909078
N	-2.397894	-1.007117	-2.673558
F	-2.819979	0.0	0.0
