17

C	0.0	0.0	0.0
C	-0.498815	0.013798	-1.459344
Br	1.954807	0.0	0.0
H	-1.595294	0.073811	-1.294344
C	-0.431454	1.274684	0.719518
H	-0.080049	1.240693	1.75522
H	-0.01821	2.167916	0.245647
H	-1.525678	1.260183	0.680293
N	-0.531767	-1.207258	0.583854
H	-1.558423	-1.006598	0.559769
H	-0.219059	-1.26327	1.546056
N	-0.055634	-1.191396	-2.173234
H	-0.751614	-1.402993	-2.877763
H	-0.104368	-1.930016	-1.476895
C	-0.049311	1.208051	-2.179913
N	0.273995	2.170714	-2.77001
F	-2.900784	0.0	0.0
