17

C	0.0	0.0	0.0
C	-0.280802	0.06049	-1.536551
Br	2.042885	0.0	0.0
H	0.471024	0.726628	-1.979463
C	-0.561289	1.208555	0.706809
H	-0.206928	1.23633	1.741619
H	-0.273773	2.129297	0.199925
H	-1.652872	1.067609	0.662167
N	-0.498557	-1.175545	0.555534
H	-0.792669	-1.114655	1.515185
H	-0.024706	-2.027921	0.307459
N	-1.607084	0.559241	-1.809085
H	-1.885997	0.26191	-2.736983
H	-2.343499	0.223817	-1.084743
C	-0.006368	-1.286073	-2.099305
N	0.162269	-2.342532	-2.588022
F	-3.272749	0.0	0.0
