14

C	0.0	0.0	0.0
C	-0.526088	0.213224	-1.414067
Br	1.932425	0.0	0.0
H	-1.62393	0.226367	-1.34569
H	-0.194215	-0.622933	-2.033867
N	-0.481926	1.072246	0.983246
O	-0.781203	2.15196	0.503963
O	-0.455623	0.759067	2.163545
C	-0.409881	-1.315372	0.479438
N	-0.562272	-2.418925	0.855371
N	-0.103018	1.442747	-2.157636
O	-0.720351	1.610568	-3.206725
O	0.798967	2.162751	-1.746652
Cl	-3.320447	0.0	0.0
