15
Coordinates from ORCA-job run
  C   0.57392886697203      0.61320416291235      0.28423689954534
  C   -0.55903797470334     -0.12887566561259     -0.40777220824375
  F   0.36582806172642      0.46065103827474      1.65976364518352
  H   -0.46922477014423     -0.01607766069664     -1.49093468965107
  H   0.48936785315866      1.67941223938554      0.06687955388970
  C   1.93503867119791      0.07152988729030     -0.07276723751741
  H   2.70008511997903      0.60545451572547      0.49299086276433
  H   1.98954341289020     -0.99155525614490      0.15732148358233
  H   2.13126316530288      0.21147869200275     -1.13837931197845
  N   -1.85169996690909      0.65147726200262     -0.07956856820411
  O   -2.72261443410560      0.07486032445300      0.56223835038598
  O   -1.90482462449810      1.80302235612738     -0.50007225605108
  N   -0.60229718071621     -1.48863382555395     -0.02845904441515
  H   -1.36364882894302     -1.97894979761552     -0.47668717700789
  H   -0.71270737120754     -1.56599827255054      0.97420969771771
