15
Coordinates from ORCA-job run
  C   0.82019201611557     -0.24557691298019     -0.27209136383151
  C   -0.68592777847959     -0.03445055066797     -0.26659739527299
  F   1.18055790858469     -0.30347539650060     -1.62621052684976
  H   -0.92587850553271      0.96406760955901     -0.65011082101553
  H   1.04361067054222     -1.22199033598159      0.15999578106402
  C   1.60037989389681      0.86202652702329      0.38968102642076
  H   1.34907956389554      1.82671338545139     -0.05630521456786
  H   2.66784789836324      0.68593693008044      0.25033631356250
  H   1.39485133643603      0.89247835166474      1.45993598926201
  N   -1.19106011538934     -0.01241349151503      1.15677151359619
  O   -2.19251574027013      0.67125256302116      1.35858383303978
  O   -0.61615575170810     -0.71128176415383      1.98619187687529
  N   -1.35759622936124     -1.11952501566613     -0.92447317439056
  H   -0.81253332862586     -1.41766753823970     -1.72241282219007
  H   -2.27485183846714     -0.83609436109498     -1.24329501570228
