15
Coordinates from ORCA-job run
  C   0.53708510370713      0.59514613034401      0.27053882395597
  C   -0.68047968641989     -0.07850893452597     -0.36276688906735
  F   0.41406573031317      0.43488622959764      1.65248414211002
  H   -0.62831355726442      0.02416936253104     -1.44809595656558
  H   0.50841057468787      1.66873860954450      0.06721614507744
  C   1.84169284467424     -0.01773130676114     -0.17528401631143
  H   2.67106146897688      0.46614669173408      0.34215792466735
  H   1.98188573072346      0.11210578322223     -1.25103706114109
  H   1.86518783266989     -1.08218005996407      0.06299980609156
  N   -1.87271106238403      0.77173849745614      0.04304598512841
  O   -2.60071227488594      0.35896907645722      0.93448518896908
  O   -1.96794231455358      1.85225802379776     -0.53604252212986
  N   -0.92417213573698     -1.43323693525329     -0.00125902173591
  H   -0.73898876233246     -1.59584003929685      0.97866513601293
  H   -0.40406949217534     -2.07666112888331     -0.57810768506153
