15
Coordinates from ORCA-job run
  C   0.74031588154818      0.41839312894972     -0.63367026142911
  C   -0.70754641556519     -0.06389163525736     -0.58392724023584
  F   0.72148404014674      1.79888856069808     -0.79828170020385
  H   -1.22412801125386      0.27778405458275     -1.48151664552039
  H   1.17083900881050     -0.01669922694493     -1.54004641282060
  C   1.58416586048022      0.08231641790063      0.57300267475068
  H   2.58632695643653      0.48593028604587      0.42160586146932
  H   1.16606897507499      0.51845440613341      1.48002118379064
  H   1.67177218961057     -0.99806383759151      0.69994387983430
  N   -1.41579298929356      0.67306665820469      0.55146903763312
  O   -2.00057419240417      1.71389472668756      0.27181498491129
  O   -1.32613281666617      0.17165229006759      1.67264919523709
  N   -0.76630427790013     -1.47933424457548     -0.46127468946776
  H   -1.70019718230161     -1.82152119488464     -0.64483505507181
  H   -0.50129702672304     -1.76187039001638      0.47404518712292
