15
Coordinates from ORCA-job run
  C   0.57103835822633      0.70136634500824      0.25530532771375
  C   -0.54988350767164     -0.10682187280384     -0.39059169368676
  F   0.27295104856888      0.81595234297985      1.60784977474077
  H   -0.45428405153047     -0.04444826379570     -1.48134361046175
  H   0.56901041462232      1.71222717347606     -0.15935379291211
  C   1.90905025985742      0.02444369012630      0.09913452037817
  H   2.68377615550606      0.62439957642925      0.57855451261843
  H   2.16807811399499     -0.09224924146908     -0.95681673711746
  H   1.87185236210943     -0.95533330240268      0.57469916094973
  N   -1.84191851465155      0.64477476398212     -0.10643786625689
  O   -1.87912930287168      1.80055340967687     -0.51215890240715
  O   -2.74047613285818      0.06656773032224      0.49460071680912
  N   -0.61811235432306     -1.44892932890659      0.11780687557652
  H   -1.53923673168196     -1.63021521492639      0.49558059163375
  H   -0.42171611729689     -2.11428780769664     -0.61582887757811
