15
Coordinates from ORCA-job run
  C   0.67777883004570      0.34650774212404     -0.63413752802031
  C   -0.80292567057924     -0.03038851011088     -0.51097427148085
  F   0.74744788330009      1.68897122797334     -0.99278086351554
  H   -1.32520097249652      0.36431271818976     -1.38320631599870
  H   1.06685694109158     -0.23220718932483     -1.48028545522857
  C   1.53010212941693      0.13152792342912      0.59440616297493
  H   1.48288496088180     -0.90192420353493      0.94189817652385
  H   2.56799164127300      0.36219412513183      0.34979627254486
  H   1.20985080545838      0.78567498569124      1.40482264133157
  N   -1.38193956929672      0.70726207751453      0.66377464720440
  O   -1.23860720416008      0.17463614161768      1.76251146694810
  O   -1.90750730540024      1.79460971648604      0.44870330241304
  N   -1.10306216710403     -1.42299118838081     -0.34887986298585
  H   -0.95767545665407     -1.92703983241011     -1.21235168754211
  H   -0.56599484577657     -1.84114573439605      0.39770331483117
