17

C	-0.45781	0.034318	-1.470359
C	0.0	0.0	0.0
Br	-0.090971	-1.71166	-2.430486
H	1.095685	0.0	0.0
N	-1.872189	0.208775	-1.533461
H	-2.103247	0.941399	-0.868197
H	-2.166687	0.462072	-2.468397
N	0.33416	1.077987	-2.047724
H	1.325508	0.882869	-1.898393
H	0.162229	1.149197	-3.044284
N	-0.512608	-1.182607	0.750867
O	-1.492605	-1.025509	1.481371
O	0.092525	-2.238235	0.601067
N	-0.529602	1.214825	0.61811
H	0.047422	1.967447	0.250489
H	-0.360598	1.158929	1.616864
Br	3.467098	0.0	0.0
