17

C	-0.235372	0.029751	-1.529793
C	0.0	0.0	0.0
Br	-2.236426	0.272069	-1.892279
H	1.094519	0.0	0.0
N	0.358971	1.27048	-1.97091
H	1.362771	1.192476	-1.789808
H	0.202986	1.391593	-2.964632
N	0.211691	-1.145493	-2.176678
H	0.665582	-1.789609	-1.54061
H	0.81432	-0.926613	-2.955681
N	-0.5093	-1.285803	0.575969
O	0.15727	-2.305236	0.382056
O	-1.572855	-1.252108	1.187626
N	-0.497462	1.087017	0.767827
H	-1.45139	1.299761	0.499728
H	0.085048	1.89025	0.571763
Br	3.450126	0.0	0.0
