17

C	-0.518255	0.007877	-1.453699
C	0.0	0.0	0.0
Br	0.182495	1.749466	-2.240885
H	1.091352	0.0	0.0
N	-0.030282	-1.13289	-2.112067
H	-0.272872	-1.104238	-3.093375
H	0.973258	-1.231392	-1.985884
N	-1.943468	0.092499	-1.639077
H	-2.273056	0.961791	-1.236975
H	-2.366199	-0.683378	-1.137083
N	-0.419331	-1.360438	0.558472
O	0.383336	-2.281928	0.538933
O	-1.581867	-1.447083	0.980274
N	-0.542331	1.059223	0.783541
H	0.124205	1.318158	1.499516
H	-1.412783	0.76554	1.209117
Br	3.485893	0.0	0.0
