17

C	-0.419336	0.216794	-1.455881
C	0.0	0.0	0.0
Br	-0.157942	-1.819313	-2.40562
H	1.091347	0.0	0.0
N	-1.765007	0.526311	-1.650045
H	-2.344334	-0.20994	-1.26918
H	-1.981721	0.676061	-2.626299
N	0.482076	1.058197	-2.064256
H	1.446353	0.851512	-1.806839
H	0.368222	1.128236	-3.065169
N	-0.555119	-1.291525	0.550447
O	-1.790174	-1.380922	0.548038
O	0.205601	-2.111636	1.04183
N	-0.426714	1.110541	0.789859
H	0.101832	1.144081	1.650924
H	-1.421826	1.094039	0.96193
Br	3.473686	0.0	0.0
