17

C	-0.21563	0.046144	-1.527221
C	0.0	0.0	0.0
Br	-2.13204	0.279495	-2.020225
H	1.094202	0.0	0.0
N	0.447486	1.26513	-1.94844
H	0.378609	1.357434	-2.956828
H	1.434245	1.163298	-1.697015
N	0.207268	-1.203486	-2.096779
H	0.290356	-1.107833	-3.10274
H	1.124206	-1.42997	-1.710936
N	-0.510426	-1.291224	0.550728
O	-1.675872	-1.295922	0.949981
O	0.247731	-2.257322	0.558582
N	-0.509325	1.078169	0.779448
H	-1.462793	1.283558	0.504548
H	0.065722	1.888829	0.593629
Br	3.466299	0.0	0.0
