15

C	-0.350336	0.005751	-1.471031
C	0.0	0.0	0.0
Br	0.162925	1.845541	-2.163982
H	1.087999	0.0	0.0
H	-0.457847	0.820741	0.543164
N	0.276957	-1.058026	-2.095416
H	1.261713	-1.092095	-1.837661
H	0.133049	-1.09117	-3.093059
N	-1.852838	-0.012969	-1.758552
O	-2.226189	-0.715615	-2.693464
O	-2.559604	0.703405	-1.06559
N	-0.485682	-1.28342	0.598004
O	0.346165	-2.132064	0.901532
O	-1.705778	-1.39993	0.740478
Cl	3.303771	0.0	0.0
