15

C	-0.632838	-0.004939	-1.382348
C	0.0	0.0	0.0
Br	0.333044	-1.103091	-2.660127
H	1.085187	0.0	0.0
H	-0.36983	0.862623	0.554616
N	-1.982705	-0.41176	-1.34645
H	-2.428641	-0.257221	-2.24067
H	-2.484065	0.061309	-0.603173
N	-0.495254	1.438196	-1.959439
O	-1.292731	1.731989	-2.847014
O	0.371281	2.165577	-1.498151
N	-0.49363	-1.194143	0.735157
O	-0.004665	-2.282384	0.45824
O	-1.385455	-1.003416	1.570398
Cl	3.308188	0.0	0.0
