15

C	-0.544035	0.04178	-1.404969
C	0.0	0.0	0.0
Br	-2.587851	-0.15229	-1.338888
H	1.089982	0.0	0.0
H	-0.320322	0.911686	0.506828
N	-0.143002	1.210628	-2.041572
H	-0.518392	1.295341	-2.975919
H	-0.270965	2.044034	-1.487905
N	-0.076603	-1.088167	-2.321175
O	0.699591	-1.909662	-1.865925
O	-0.477843	-1.01598	-3.478956
N	-0.491173	-1.10177	0.863533
O	-0.845955	-2.15946	0.353552
O	-0.474557	-0.866093	2.070124
Cl	3.255484	0.0	0.0
