15

C	-0.316901	0.143393	-1.473867
C	0.0	0.0	0.0
Br	-2.244981	0.495551	-1.817407
H	1.091144	0.0	0.0
H	-0.437146	-0.894451	0.424492
N	0.482605	1.086391	-2.096014
H	1.422141	1.077914	-1.695098
H	0.500582	0.962644	-3.099481
N	-0.154558	-1.293248	-2.117478
O	0.219868	-1.300737	-3.284009
O	-0.423894	-2.276999	-1.440877
N	-0.492316	1.15635	0.781206
O	-1.357117	0.923893	1.628235
O	-0.004116	2.257841	0.553988
Cl	3.254301	0.0	0.0
