15

C	-0.45124	0.017475	-1.439524
C	0.0	0.0	0.0
Br	0.193453	1.765032	-2.223103
H	1.087993	0.0	0.0
H	-0.421572	0.832173	0.557404
N	-0.011603	-1.121811	-2.10107
H	-0.303544	-1.16524	-3.069389
H	0.993419	-1.236419	-1.991573
N	-1.967718	0.159057	-1.586145
O	-2.495828	-0.48755	-2.485771
O	-2.529804	0.93031	-0.824796
N	-0.502237	-1.265795	0.622302
O	-1.726365	-1.393182	0.699013
O	0.318431	-2.086782	1.013523
Cl	3.335802	0.0	0.0
