14

C	-0.586464	0.069904	-1.406381
C	0.0	0.0	0.0
F	-0.00955	1.17177	-2.036743
H	1.096838	0.0	0.0
H	-0.357773	-0.926477	0.460655
C	-0.249259	-1.130596	-2.19776
N	-0.030578	-2.10835	-2.808594
N	-2.013326	0.253072	-1.42591
H	-2.249967	0.714073	-0.550766
H	-2.497647	-0.632524	-1.50123
N	-0.548813	1.14348	0.75055
H	-0.347627	0.990228	1.731762
H	-0.000992	1.954725	0.481941
Br	3.643014	0.0	0.0
