14

C	-0.389487	-0.042985	-1.468738
C	0.0	0.0	0.0
F	-1.705531	-0.501286	-1.617318
H	1.099651	0.0	0.0
H	-0.345688	-0.948229	0.418249
C	-0.409753	1.32538	-2.054346
N	-0.391121	2.395032	-2.539466
N	0.482752	-0.942158	-2.150323
H	0.474192	-0.791531	-3.149949
H	1.434194	-0.847442	-1.800077
N	-0.622471	1.123365	0.697482
H	-0.723683	0.878416	1.675265
H	0.021592	1.907152	0.66682
Br	3.595439	0.0	0.0
