18

C	-0.467089	0.004772	-1.449411
C	-0.021988	-0.099979	0.011179
F	0.004806	-1.181458	-2.079569
H	1.070179	-0.17951	-0.008338
N	-1.893609	0.059347	-1.56734
H	-2.29078	-0.797786	-1.195645
H	-2.137321	0.119765	-2.55
C	0.198974	1.163591	-2.15547
H	-0.280249	2.103193	-1.875893
H	0.104096	1.018831	-3.23661
H	1.254617	1.192477	-1.858123
C	-0.637812	-1.275989	0.615986
N	-1.170903	-2.204569	1.10343
C	-0.321668	1.168155	0.809562
H	-1.33815	1.525795	0.631843
H	-0.184657	0.978296	1.876732
H	0.423138	1.911869	0.516289
H	2.695573	0.830533	-0.194281
