18

C	-0.33583	-0.001963	-1.439827
C	-0.03345	-0.063091	0.063353
F	-1.736854	0.172954	-1.600973
H	1.057974	-0.170746	0.11154
N	0.337071	1.142544	-1.956896
H	0.382198	1.064626	-2.968798
H	1.326611	1.075943	-1.600997
C	0.006275	-1.305741	-2.138945
H	-0.561439	-2.147037	-1.733743
H	1.079404	-1.47897	-2.02252
H	-0.226833	-1.207878	-3.203797
C	-0.686086	-1.212503	0.683294
N	-1.21045	-2.123018	1.210671
C	-0.419933	1.227953	0.788052
H	-0.23816	1.128162	1.86151
H	-1.473656	1.459318	0.621479
H	0.189847	2.040593	0.397217
H	2.720274	0.540509	-0.821538
