18

C	-0.439091	0.043847	-1.453385
C	-0.018418	-0.093896	0.011561
F	-0.022743	-1.161601	-2.086476
H	1.068079	-0.232486	0.004273
N	-1.859238	0.174311	-1.588202
H	-2.087058	0.253556	-2.573347
H	-2.305505	-0.663167	-1.227546
C	0.295887	1.170275	-2.143129
H	0.205707	1.038614	-3.226339
H	1.348074	1.140369	-1.83378
H	-0.135526	2.132213	-1.861584
C	-0.702555	-1.239423	0.601316
N	-1.277166	-2.148508	1.078179
C	-0.258812	1.183719	0.814847
H	-0.146249	0.979866	1.882329
H	0.529716	1.887077	0.536591
H	-1.251738	1.597737	0.626808
H	2.744376	0.690293	-0.156736
