15

C	-0.40941	0.008824	-1.483729
C	0.0	0.0	0.0
Cl	-2.216738	0.018003	-1.658466
H	1.09764	0.0	0.0
C	0.089441	1.214781	-2.150884
N	0.473262	2.173644	-2.711556
C	0.080917	-1.181086	-2.184104
N	0.441109	-2.129857	-2.77693
C	-0.490517	-1.218682	0.631229
N	-0.895584	-2.178639	1.17471
C	-0.448778	1.248662	0.755403
H	-0.016188	2.134272	0.285707
H	-1.535691	1.342395	0.795606
H	-0.055201	1.190362	1.771406
Br	3.345703	0.0	0.0
