15

C	-0.40743	0.015496	-1.484443
C	0.0	0.0	0.0
Cl	-2.213652	0.027844	-1.661742
H	1.097623	0.0	0.0
C	0.094016	1.224484	-2.145124
N	0.438736	2.203501	-2.696041
C	0.08294	-1.173422	-2.186536
N	0.427184	-2.136812	-2.765013
C	-0.490015	-1.222789	0.623493
N	-0.875661	-2.206162	1.138494
C	-0.448061	1.246059	0.76022
H	-0.013224	2.133335	0.295794
H	-0.056315	1.182129	1.776624
H	-1.534912	1.341805	0.79903
Br	3.347463	0.0	0.0
