15

C	-0.446409	0.004809	-1.478642
C	0.0	0.0	0.0
Cl	0.212312	-1.426035	-2.32668
H	1.095997	0.0	0.0
C	-1.911743	-0.03093	-1.581723
N	-3.086139	-0.046484	-1.630358
C	0.031309	1.215356	-2.156837
N	0.394119	2.175477	-2.729055
C	-0.50146	-1.206846	0.647648
N	-0.918219	-2.150845	1.209933
C	-0.471439	1.253593	0.739421
H	-1.561353	1.341234	0.756786
H	-0.034788	2.139968	0.27542
H	-0.10358	1.204366	1.765595
Br	3.378093	0.0	0.0
