14

C	0.0	0.0	0.0
C	-0.248997	0.03357	-1.530398
Br	1.945979	0.0	0.0
H	0.21011	-0.89087	-1.890476
H	0.345107	0.859954	-1.920006
N	-0.346024	1.379015	0.636001
O	-0.481888	1.378888	1.852535
O	-0.404358	2.352142	-0.103064
N	-0.560785	-1.081855	0.664661
H	-1.581843	-1.020279	0.503641
H	-0.393505	-0.995878	1.660037
C	-1.54227	0.145115	-2.214786
N	-2.282089	0.256611	-3.122562
Br	-3.606085	0.0	0.0
