14

C	0.0	0.0	0.0
C	-0.494336	0.183973	-1.443647
Br	1.938976	0.0	0.0
H	-1.591711	0.265694	-1.370023
H	-0.085903	1.089322	-1.890814
N	-0.406292	1.265629	0.778277
O	-0.696065	1.140204	1.956666
O	-0.363196	2.316942	0.148946
N	-0.486674	-1.120836	0.705906
H	-0.271058	-1.963475	0.185817
H	-1.506928	-1.019452	0.767434
C	-0.147177	-0.982176	-2.242166
N	0.117614	-1.934772	-2.875571
Br	-3.64798	0.0	0.0
