14

C	0.0	0.0	0.0
C	-0.376426	-0.016947	-1.47889
Br	2.008759	0.0	0.0
H	-1.426656	0.254948	-1.619561
H	0.267566	0.690778	-2.000012
N	-0.428435	1.307618	0.655258
O	-0.673414	1.272	1.850769
O	-0.411739	2.291642	-0.061524
N	-0.381218	-1.06845	0.749595
H	-0.327048	-0.99305	1.747303
H	-0.557566	-1.966068	0.342313
C	-0.129433	-1.34627	-2.033265
N	0.044401	-2.417542	-2.480013
Br	-3.442573	0.0	0.0
