14

C	0.0	0.0	0.0
C	-0.535025	-0.235585	-1.409463
Br	1.937691	0.0	0.0
H	-0.38782	-1.299823	-1.611406
H	-1.621114	-0.050538	-1.367015
N	-0.337632	1.458061	0.447833
O	-0.322795	1.654814	1.65755
O	-0.563797	2.290477	-0.419287
N	-0.526837	-0.956175	0.878631
H	-1.550684	-0.918439	0.771643
H	-0.29365	-0.702594	1.832124
C	0.078992	0.539485	-2.477364
N	0.537616	1.111719	-3.393991
Br	-3.687402	0.0	0.0
