18

C	0.0	0.0	0.0
C	-0.388593	0.011017	-1.516944
Br	1.976799	0.0	0.0
H	0.549529	0.142259	-2.074645
C	-0.542341	1.074897	0.812357
N	-0.583834	1.934743	1.628247
C	-0.237355	-1.362039	0.713197
H	0.34218	-2.148694	0.226442
H	-1.297108	-1.600267	0.721185
H	0.126187	-1.26285	1.737863
N	-1.125536	1.259834	-1.909121
O	-0.616346	2.319792	-1.545525
O	-2.079588	1.170558	-2.677693
C	-1.088224	-1.213271	-2.069416
H	-0.563096	-2.123716	-1.76746
H	-2.109398	-1.231646	-1.685418
H	-1.101398	-1.165604	-3.162082
H	-2.136364	0.0	0.0
