18

C	0.0	0.0	0.0
C	-0.22383	-0.012731	-1.554772
Br	1.966389	0.0	0.0
H	0.409017	-0.824071	-1.918172
C	-0.668656	1.047024	0.759557
N	-0.683199	1.950336	1.536626
C	-0.263868	-1.402381	0.603715
H	-1.332782	-1.581151	0.662951
H	0.180349	-1.433709	1.602341
H	0.225079	-2.163245	-0.010937
N	0.399627	1.206726	-2.186904
O	0.09161	2.305851	-1.73692
O	1.113838	1.021358	-3.174195
C	-1.57634	-0.135705	-2.247951
H	-2.091566	-1.034911	-1.92031
H	-2.217336	0.710575	-2.022706
H	-1.372338	-0.195267	-3.329324
H	-2.197234	0.0	0.0
