11
Coordinates from ORCA-job run
  C   -0.65651844280698     -0.00935561264799     -0.58893012212012
  C   0.28669792693048     -0.01861260221661      0.59506937421394
  F   -0.60146321351748      1.23089029378187     -1.19036006301244
  H   0.08520367856841      0.81284131590828      1.26766793588735
  H   -0.34974582802623     -0.75498842404238     -1.32486474570464
  H   0.23983319597286     -0.96938952361681      1.12933634806967
  C   -2.02712371997078     -0.27955179505016     -0.13510515399913
  N   -3.11163096152383     -0.51127593566658      0.24835294987335
  N   1.69572138534189      0.13716905984999      0.11226467821563
  O   2.02576575169778     -0.54682883327665     -0.85197397733153
  O   2.41426022733388      0.90810205697704      0.73754277590791
