11
Coordinates from ORCA-job run
  C   -0.60533604963971     -0.42765002088228     -0.48173591452128
  C   0.23384944572265      0.40290734866380      0.46540121682405
  F   -0.44822991559918      0.06302219215951     -1.76112949984587
  H   0.09922490958385      0.07990472172356      1.49945228750016
  H   -0.26990773284792     -1.46639045318854     -0.47549005194182
  H   0.01438847211680      1.46387351993302      0.36214709533501
  C   -2.01902261321555     -0.35023472804315     -0.09007780282487
  N   -3.14022058096948     -0.28868184653060      0.25046142391614
  N   1.68529424328937      0.22157761114378      0.14315558143983
  O   2.38682590443085      1.22605180491872      0.16928772329278
  O   2.06213391712831     -0.92438014989782     -0.08247205917412
