11
Coordinates from ORCA-job run
  C   -0.67426268593111     -0.17177372057172     -0.54232074034563
  C   0.30547608779853      0.13845286117753      0.56920806973835
  F   -0.67916092661166      0.87890259122662     -1.43612597230258
  H   0.09868367994103      1.10694624618417      1.02038983729781
  H   -0.36646226720133     -1.07057225366313     -1.07999582401394
  H   0.30599526183325     -0.64895830533152      1.32527250558190
  C   -2.02028565426445     -0.35209739579008      0.01763894473749
  N   -3.08435245748893     -0.50611631998059      0.48765964619288
  N   1.69299924006401      0.20070596085108      0.00948146678115
  O   2.01446408356585     -0.69518874408813     -0.76542900623346
  O   2.40590563829482      1.11969907998577      0.39522107256602
