15

C	0.0	0.0	0.0
C	-0.402687	0.040499	-1.468365
F	1.42449	0.0	0.0
H	-1.497955	0.097353	-1.447586
H	-0.316282	-0.949217	0.438301
N	-0.505265	1.069087	0.789224
H	-1.515674	0.846824	0.840737
H	-0.448759	1.900661	0.20746
N	-0.011226	-1.164419	-2.217418
H	-0.659628	-1.906546	-1.967497
H	0.908681	-1.450317	-1.8904
N	0.14219	1.257005	-2.058379
H	1.153701	1.177127	-2.062415
H	-0.160781	1.285051	-3.024124
H	-3.131108	0.0	0.0
