15

C	0.0	0.0	0.0
C	-0.486659	-0.140213	-1.432325
F	1.385077	0.0	0.0
H	-1.565966	-0.318712	-1.331199
H	-0.286901	-0.915041	0.532405
N	-0.531623	1.199347	0.576793
H	-1.558919	1.055472	0.48848
H	-0.327098	1.195554	1.572189
N	0.138929	-1.316761	-2.026517
H	1.094367	-1.050648	-2.241363
H	-0.317762	-1.494636	-2.913857
N	-0.187318	1.095066	-2.177826
H	-0.972035	1.28338	-2.795492
H	-0.177731	1.847283	-1.493491
H	-3.195455	0.0	0.0
