15

C	0.0	0.0	0.0
C	-0.295019	0.08668	-1.528541
F	1.394087	0.0	0.0
H	0.07604	-0.879122	-1.920891
H	-0.299885	-0.978847	0.395858
N	-0.519433	1.120578	0.713743
H	-0.442744	0.936094	1.70779
H	-1.525197	1.130941	0.507879
N	0.514875	1.119774	-2.192423
H	0.101598	1.998871	-1.895914
H	1.457548	1.087607	-1.822183
N	-1.664145	0.373776	-1.832703
H	-2.367751	0.095775	-1.111082
H	-1.916222	-0.018487	-2.727873
H	-3.455061	0.0	0.0
