15

C	0.0	0.0	0.0
C	-0.632343	0.036405	-1.371748
F	1.41257	0.0	0.0
H	-1.70915	0.14415	-1.145774
H	-0.286581	-0.918114	0.521749
N	-0.444554	1.129054	0.731427
H	-0.332175	1.948822	0.149241
H	0.082271	1.223772	1.588088
N	-0.324461	-1.200401	-2.110593
H	-0.987	-1.245069	-2.881223
H	-0.574131	-1.981029	-1.509376
N	-0.172672	1.212998	-2.089854
H	-0.844877	1.45195	-2.809359
H	0.708102	0.975443	-2.534754
H	-3.826728	0.0	0.0
