15

C	0.0	0.0	0.0
C	-0.399809	0.011233	-1.479979
F	1.402188	0.0	0.0
H	0.33175	0.675743	-1.972978
H	-0.295154	-0.951209	0.449101
N	-0.488257	1.127618	0.716245
H	-1.039593	0.819421	1.505709
H	-1.128182	1.625807	0.104514
N	-1.700141	0.582078	-1.646295
H	-2.456674	0.206615	-1.016952
H	-2.015594	0.537531	-2.607386
N	-0.241009	-1.376892	-1.975934
H	-0.477309	-1.382713	-2.962923
H	0.747075	-1.610754	-1.910332
H	-3.749667	0.0	0.0
