15

C	-0.502086	0.014214	-1.413981
C	0.0	0.0	0.0
Cl	0.38235	1.117276	-2.42791
H	1.091004	0.0	0.0
H	-0.398269	-0.889864	0.490993
N	-0.472065	-1.361317	-2.079953
O	-1.018577	-1.438602	-3.176147
O	0.074392	-2.274779	-1.480559
N	-2.002343	0.350498	-1.437991
O	-2.403238	1.367767	-1.974082
O	-2.689941	-0.47426	-0.840627
N	-0.43651	1.256017	0.625123
H	-1.045455	1.071788	1.410871
H	0.402811	1.701428	0.97539
F	2.60726	0.0	0.0
