15

C	-0.440856	-0.00689	-1.432742
C	0.0	0.0	0.0
Cl	0.378934	1.233092	-2.357329
H	1.091388	0.0	0.0
H	-0.343531	0.947549	0.434364
N	-0.169052	-1.382578	-2.04063
O	0.993397	-1.639258	-2.298601
O	-1.133072	-2.132479	-2.150527
N	-1.955143	0.194067	-1.63887
O	-2.650808	0.209217	-0.627488
O	-2.360932	0.317621	-2.787227
N	-0.456363	-1.202187	0.675336
H	-1.311721	-1.051598	1.190823
H	0.283206	-1.498341	1.297971
F	2.604084	0.0	0.0
