15

C	-0.462039	0.006889	-1.420964
C	0.0	0.0	0.0
Cl	-2.220017	-0.163154	-1.62477
H	1.095393	0.0	0.0
H	-0.351662	-0.944229	0.425739
N	-0.031176	1.259359	-2.179853
O	-0.507349	1.41737	-3.299717
O	0.787066	1.980928	-1.627722
N	0.21916	-1.155745	-2.137022
O	1.115016	-0.885441	-2.924812
O	-0.156423	-2.273712	-1.804216
N	-0.528765	1.175961	0.694587
H	-1.041292	0.889989	1.518125
H	0.283007	1.698174	0.997539
F	2.590222	0.0	0.0
