15

C	-0.476615	-0.006252	-1.4176
C	0.0	0.0	0.0
Cl	-2.22302	-0.266359	-1.604955
H	1.102302	0.0	0.0
H	-0.346753	-0.940417	0.437135
N	-0.111108	1.277092	-2.16204
O	-0.687704	1.494116	-3.222285
O	0.76888	1.960908	-1.661056
N	0.24741	-1.124798	-2.163187
O	-0.012589	-2.257131	-1.78273
O	1.047147	-0.809175	-3.033065
N	-0.538044	1.17798	0.6839
H	0.266149	1.734094	0.94751
H	-1.011978	0.898702	1.530749
F	2.591088	0.0	0.0
