15

C	-0.43477	-0.020434	-1.434984
C	0.0	0.0	0.0
Cl	-0.16339	1.524668	-2.215209
H	1.101866	0.0	0.0
H	-0.372424	0.938758	0.416455
N	0.274303	-1.117341	-2.23978
O	0.337158	-0.981377	-3.454857
O	0.677552	-2.074666	-1.596104
N	-1.924603	-0.367367	-1.552885
O	-2.688938	0.434563	-1.035889
O	-2.236408	-1.421427	-2.092784
N	-0.579866	-1.150061	0.706086
H	0.173918	-1.810927	0.846107
H	-0.889926	-0.847045	1.61938
F	2.600053	0.0	0.0
