15

C	-0.468761	-0.117092	-1.418028
C	0.0	0.0	0.0
Cl	-2.217609	-0.35255	-1.594153
H	1.095417	0.0	0.0
H	-0.349682	-0.905466	0.504411
N	-0.073621	1.088785	-2.268889
O	-0.603856	1.191649	-3.368412
O	0.772867	1.833011	-1.799372
N	0.237793	-1.310598	-2.057922
O	-0.077495	-2.405692	-1.610556
O	1.079197	-1.082574	-2.914453
N	-0.541664	1.224791	0.588387
H	0.257787	1.801096	0.819001
H	-1.030077	1.011475	1.446789
F	2.599843	0.0	0.0
