15

C	-0.497455	0.0283	-1.413451
C	0.0	0.0	0.0
Cl	-0.096786	-1.462177	-2.250837
H	1.100814	0.0	0.0
H	-0.353104	-0.941245	0.436627
N	-2.02283	0.175604	-1.54362
O	-2.687781	-0.053377	-0.538618
O	-2.4686	0.450559	-2.650972
N	0.06557	1.226991	-2.171411
O	1.077582	1.060061	-2.832834
O	-0.530418	2.282435	-1.98966
N	-0.416266	1.194827	0.713794
H	-1.19365	1.022613	1.333506
H	0.384256	1.52393	1.236505
F	2.587456	0.0	0.0
