12
Coordinates from ORCA-job run
  C   -0.60032491977516     -0.03034359397084      0.43385771371372
  C   0.51431519510105      0.22885167115501     -0.55470273593675
  F   -0.39283015658465     -1.32556626605942      0.94248716753389
  H   0.49065588623895     -0.48294994402714     -1.37864663860739
  H   -0.52193035093722      0.64566603950688      1.28491324874844
  H   0.46447302197040      1.25438839563779     -0.91943955158828
  N   -1.85388283463105      0.12451888932784     -0.19897327681402
  H   -1.98622843326202     -0.56792774018745     -0.92510015622277
  H   -2.61196675811001      0.05262585852117      0.46559060130250
  N   1.83612245326729      0.06606832325797      0.11602029705756
  O   2.01450079210628      0.72838691307281      1.13490489643446
  O   2.64809610461614     -0.69471854623463     -0.40091156562135
