12
Coordinates from ORCA-job run
  C   -0.59018571131908     -0.09384888305348      0.52706639186366
  C   0.46351545374710      0.07060144177737     -0.55184760737878
  F   -0.25406690178642     -1.26753509048051      1.20391654457555
  H   0.32669029783891      1.01446228401180     -1.08056453031337
  H   -0.51567319899874      0.71430608202156      1.25537559800942
  H   0.44913747664565     -0.77352642468327     -1.24070838962241
  N   -1.90116547496212     -0.17352866867438      0.00911954841741
  H   -1.98214924827123     -0.48726400518550     -0.94417276762980
  H   -2.49090734556947      0.61429545948990      0.21092051936875
  N   1.82641113771205      0.11023657741251      0.05213865846204
  O   2.01092132272267      0.96698122672183      0.91336445539030
  O   2.65747219224066     -0.69517999935781     -0.35460842114279
