12
Coordinates from ORCA-job run
  C   -0.70116146671349      0.37713234201037      0.37707817555258
  C   0.74724336688649     -0.03385114968042      0.56849641187475
  F   -1.27402926676709      0.29654652722318      1.66351287318405
  H   0.81949681962752     -1.06999070239977      0.89561046805325
  H   -0.77151794619581      1.42163337866188      0.07403879163412
  H   1.23970488656800      0.63054282304583      1.27701390784506
  N   -1.33199432035863     -0.43851672331941     -0.57937397125611
  H   -1.33942320847229     -1.41277707474121     -0.30786842448422
  H   -2.27065105504139     -0.13039140557654     -0.78915769012267
  N   1.45659516718414      0.08468380869166     -0.73164924022574
  O   1.87356624638063     -0.94478649494765     -1.25346628519644
  O   1.55217077690191      1.21977467103209     -1.19223501685863
