12
Coordinates from ORCA-job run
  C   -0.72052750720255      0.38272142102304      0.42425973832441
  C   0.49355273841831      0.70034534474543     -0.43156550217280
  F   -0.22652329990206      0.13988150558051      1.72469066126057
  H   0.96916803341317      1.62057959671841     -0.10193980352091
  H   -1.32952721328038      1.28629461377797      0.50903241299567
  H   0.21432932805998      0.75697420636379     -1.48388555647821
  N   -1.51226987222279     -0.66451027920099     -0.08479258225274
  H   -0.97410736575662     -1.51412926736892     -0.18631464340489
  H   -2.32013883484394     -0.82689277612499      0.50005437797311
  N   1.53909754182426     -0.35971793745496     -0.31222030457923
  O   2.67675426918967     -0.00095887472724     -0.02942182222949
  O   1.19019218230293     -1.51958755333206     -0.52789697591549
