12
Coordinates from ORCA-job run
  C   -0.60628671788376     -0.32440872021600      0.40880248141903
  C   0.47959879533003      0.30409176607780     -0.44582444226302
  F   -0.24119172175036     -1.66100179779947      0.55523069798268
  H   0.31159149315964      1.37650844569138     -0.55067828330831
  H   -0.60250805433865      0.11362563939670      1.40742239621999
  H   0.53889588538048     -0.18303498281103     -1.41864413780934
  N   -1.89816408940382     -0.22769934876997     -0.16141301768536
  H   -1.91897769427324     -0.17762471368345     -1.16799205599039
  H   -2.49032627747294      0.46479683964803      0.26426856100526
  N   1.81248764797992      0.14071279224227      0.20271571896873
  O   2.70057852179470     -0.40849052782587     -0.44121204899670
  O   1.91530221147800      0.58152460804963      1.34532413045743
