12
Coordinates from ORCA-job run
  C   -0.69997101695106      0.19543352170327      0.63250232267215
  C   0.76686590102719     -0.20127424163682      0.52648163554347
  F   -1.08050111576418     -0.26114755895719      1.90275089803340
  H   1.35608236032037      0.26970894262260      1.31055318858352
  H   -0.80357358492772      1.28180537026245      0.66175206005302
  H   0.86334670881760     -1.28535456284739      0.55803206993802
  N   -1.49424238185401     -0.36491157877309     -0.38041262662048
  H   -2.03117207836538      0.28470867265596     -0.92612305008615
  H   -1.07237322831731     -1.08961800328097     -0.93741245775008
  N   1.28668461266014      0.26603676498037     -0.78187519412100
  O   1.50283025667658      1.47129637639117     -0.88809881203981
  O   1.40502356667780     -0.56768370312036     -1.67915003420603
