12
Coordinates from ORCA-job run
  C   -0.68395079232532      0.29949144696819      0.46760304387962
  C   0.78317044643644     -0.08628112011856      0.51147029326760
  F   -1.16931936613314      0.02729288163018      1.76377940821352
  H   1.30526793364012      0.49142886388369      1.27278944970835
  H   -0.79894199111733      1.37252327443855      0.31538691095476
  H   0.90140078395241     -1.15433169453935      0.68791771732284
  N   -1.35630205442651     -0.39952605009375     -0.55076822812111
  H   -1.32229573276973     -1.40130185311734     -0.41588643270318
  H   -2.31368163812448     -0.09665170105055     -0.65877967740816
  N   1.40331849431041      0.23034387264405     -0.80106266178651
  O   1.44183779098034      1.41986005839525     -1.10643833380188
  O   1.80949612557680     -0.70484797904033     -1.48401148952584
