12
Coordinates from ORCA-job run
  C   -0.70309524083751      0.25996439196160      0.60414774365610
  C   0.79690303914608      0.00823068501698      0.52087810090924
  F   -1.00030778611296      0.06640915158798      1.96158500333129
  H   1.34475475040974      0.70732575048332      1.14920696351644
  H   -0.92963435384061      1.30715438984842      0.39453591483293
  H   1.01810417676428     -1.02278266007833      0.79225717480701
  N   -1.44928316631760     -0.59552220060069     -0.21974147739806
  H   -0.96718089342182     -1.38774373608826     -0.61070558004383
  H   -2.07245978940411     -0.15202453365374     -0.86973980198661
  N   1.23120890314974      0.21485181976198     -0.88215419383082
  O   1.30586419040226      1.37946246037999     -1.26807878539420
  O   1.42512617006255     -0.78532551861925     -1.57219106239949
