12
Coordinates from ORCA-job run
  C   -0.74475254688911      0.25146711430756      0.53780977437373
  C   0.51869240087166      0.74436964418640     -0.16693687821633
  F   -0.31896426502907     -0.13197995997548      1.81378031514243
  H   0.98269434902392      1.55361004353750      0.39213851887598
  H   -1.40725122415933      1.10995186639157      0.68059196386576
  H   0.29263232082531      1.04170891434226     -1.19082866845286
  N   -1.44936859766256     -0.79592352519829     -0.08552882762472
  H   -2.33206934839187     -0.53028433095482     -0.48492016258235
  H   -0.89486743770090     -1.37591998976606     -0.69431528451020
  N   1.53247614407269     -0.34495159087459     -0.24308406081899
  O   1.26406693864708     -1.29667775794468     -0.97926858181439
  O   2.55571126639216     -0.22437042805137      0.42056189176192
