13
Coordinates from ORCA-job run
  C   0.81677853189872      0.41220408326879     -0.17292010113988
  C   -0.49518038708159     -0.37691767329546     -0.32169765546482
  Cl  1.79390215494210      0.04792384420375     -1.69345925787564
  H   -0.24399451397822     -1.37536762616556     -0.69305883586958
  H   0.63570362486354      1.48518357829169     -0.24936208802145
  N   1.46045072353213      0.12136897677048      1.04377053862197
  H   1.53949311596860     -0.87095906174811      1.21967101497519
  H   2.36334303410483      0.57014400214366      1.11356318040794
  C   -1.32589784612025      0.28010079125318     -1.35173122368095
  N   -2.04717676505289      0.80823809045385     -2.11356670467949
  N   -1.15702613453510     -0.53207489974774      0.96520481040744
  H   -2.07704057912275     -0.93491195438540      0.83157106179285
  H   -1.26335495941913      0.36606784895686      1.42101526052644
