13
Coordinates from ORCA-job run
  C   0.80333948555330      0.37576925548013     -0.15999862869559
  C   -0.60338783905131     -0.21551540764944     -0.29610980655890
  Cl  1.66954743527705      0.18087118218347     -1.74627494002224
  H   -0.48592091050170     -1.28493665661970     -0.54037112146963
  H   0.71747714756087      1.44838077457606      0.01054960315461
  N   1.46580357807900     -0.24223605130796      0.93851468073981
  H   1.74157991356605     -1.18920759906845      0.70503638188193
  H   2.29200639390326      0.27470532953600      1.20875018813022
  C   -1.33272641952482      0.40326005720602     -1.40904343149151
  N   -1.94689605328193      0.86840722409790     -2.29392203183251
  N   -1.31009295124370      0.06224019221016      0.94582460348844
  H   -2.23502394080832     -0.34878626102534      0.92779819453640
  H   -0.77670583952777     -0.33295203961885      1.71024630813896
