13
Coordinates from ORCA-job run
  C   0.87133243761384      0.39917228456789     -0.21892802344613
  C   -0.47356073197676     -0.32615249986168     -0.33653330169619
  Cl  1.64029423830446      0.44933240668645     -1.83383764690125
  H   -0.24393771890475     -1.33395506129740     -0.69450908535476
  H   0.69484477358699      1.45201020180349      0.04016860351280
  N   1.69250431334322     -0.34110992391464      0.69159337226562
  H   1.14437716446074     -0.52841901847744      1.52396033150293
  H   2.52511326506082      0.18002793099556      0.93375452144820
  C   -1.35435402526341      0.33491527906253     -1.31476950026352
  N   -2.11911299928033      0.87469769677667     -2.02411964753812
  N   -1.07146387771339     -0.42791949271293      0.99267507977820
  H   -1.76149794907469     -1.16829837771758      1.00967757999723
  H   -1.54453889015671      0.43669857408907      1.22986771669498
