13
Coordinates from ORCA-job run
  C   0.94782854251535      0.02333824361720     -0.32389382150557
  C   -0.51563308194407     -0.35298801437261     -0.59640892942840
  Cl  1.96891218767349     -1.42560748303783     -0.43706289427545
  H   -0.57320639480394     -0.81580206326043     -1.58648283981519
  H   1.29170002335620      0.69115232606870     -1.12212389327576
  N   1.04569961348409      0.57958438953959      1.01239961941766
  H   0.73845688816335      1.54666328619184      0.99622866002802
  H   2.00593947908772      0.55969583692442      1.33113640974746
  C   -1.27171198156277      0.92140785888823     -0.64395622991456
  N   -1.86496636663440      1.93597861007660     -0.63367951938003
  N   -0.98574636586554     -1.28887511361178      0.39879255094999
  H   -1.97341221902170     -1.47395486661112      0.28470105618570
  H   -0.81586032444777     -0.89959301041281      1.31834983126615
