13
Coordinates from ORCA-job run
  C   0.95811253999404      0.02790725135726     -0.29299883501530
  C   -0.49620827634347     -0.34227400819290     -0.61888410416911
  Cl  1.98218036636280     -1.41953688974403     -0.39784777678504
  H   -0.52217828861124     -0.78478190225732     -1.61956107483397
  H   1.32819193621851      0.70845470998203     -1.06853633181574
  N   1.01344872277633      0.56018391681588      1.05519079812241
  H   1.96550238890162      0.54782082413829      1.39798039760560
  H   0.69339206402920      1.52348133574135      1.04833812556837
  C   -1.25050848362111      0.93298535196440     -0.66500111313358
  N   -1.84506518301837      1.94671725957845     -0.65300442738876
  N   -0.99739732456935     -1.29833834173431      0.34211577579659
  H   -0.84911530779755     -0.93051690203185      1.27426903512224
  H   -1.98335515432143     -1.47210260561725      0.19893953092629
