13
Coordinates from ORCA-job run
  C   0.75576718014122     -0.41996050835430     -0.32400621994206
  C   -0.65187048370046      0.21734194259395     -0.26731917806021
  F   0.62816293101139     -1.57339845534239     -1.07583167858849
  H   -0.90634919385523      0.46133262540105     -1.31079421102142
  C   1.22907965713897     -0.77163141596444      1.02111689931861
  N   1.63446643865245     -1.03723188321027      2.09074936970789
  C   1.70923217177007      0.47660591102519     -0.99443261647292
  N   2.44037102633900      1.20660196379986     -1.55367911284366
  C   -0.58608626534468      1.46416649874050      0.49683521956301
  N   -0.55292794640329      2.46547481450694      1.10893056471876
  N   -1.53584915053496     -0.73382089797293      0.37590143692758
  H   -1.78194520629196     -1.47218291240619     -0.27075460391989
  H   -2.38105115892253     -0.28329768281697      0.70128413061280
