13
Coordinates from ORCA-job run
  C   0.79416062860302     -0.44483650441187     -0.35866504032883
  C   -0.64371692086787      0.13863075601620     -0.36582216254234
  F   0.79635602397181     -1.56799655202286     -1.14500087236826
  H   -0.89817534757416      0.25521710407837     -1.42451044885278
  C   1.16837772251787     -0.81026160090782      1.01670435006729
  N   1.41887057577137     -1.08740071220991      2.13029822068958
  C   1.75313881104835      0.52446507108528     -0.91322357556014
  N   2.49701050503648      1.30120112619295     -1.38604892594845
  C   -0.63400880319509      1.46666304750267      0.27387642196429
  N   -0.66863058092964      2.49881571670149      0.83478154378736
  N   -1.53728834337669     -0.82362916526587      0.23424616214519
  H   -1.57345403947011     -0.72049419115465      1.24111791221231
  H   -2.47264023153535     -0.73137409560398     -0.13775358526522
