13
Coordinates from ORCA-job run
  C   0.78432296531372     -0.37684189141761      0.14021322090457
  C   -0.52071223793194      0.39902518469920     -0.14331499414601
  F   0.45629080874297     -1.49377854089197      0.87988214716459
  H   -0.25811201187084      1.26486559161470     -0.76038649070815
  C   1.73422067223740      0.44627364179695      0.90447189779403
  N   2.48050254554003      1.12670557895292      1.50468001938032
  C   1.39302482553150     -0.79877324829577     -1.13041502887759
  N   1.90915744771756     -1.10813816655109     -2.13859877976920
  C   -1.07384805667326      0.88577161936155      1.13607705832419
  N   -1.57257603800172      1.24580179977267      2.13700306590765
  N   -1.39363533560095     -0.47058869461009     -0.89844071389003
  H   -1.80119859779408     -1.17697330602079     -0.29877995083527
  H   -2.13843698721038      0.05665043158934     -1.33439145124909
