13
Coordinates from ORCA-job run
  C   0.70547355038063     -0.39858228195835     -0.35423699409577
  C   -0.70192299499753      0.27857407029486     -0.33091193121579
  F   0.57090798610395     -1.54460107100180     -1.11487269675031
  H   -0.92885443231467      0.50158589047101     -1.38033244008940
  C   1.10000647389458     -0.77838888962423      1.00860337140709
  N   1.35189178217741     -1.07973474667071      2.11589409600878
  C   1.70938929594328      0.47310968816792     -0.97496541659153
  N   2.47693926899309      1.19300448867850     -1.49801070477288
  C   -0.60213208177507      1.53806692030965      0.41213960895339
  N   -0.50324024413377      2.53098651832142      1.03082418169784
  N   -1.74718359370778     -0.55023949950768      0.20497479165797
  H   -1.61177066904907     -0.74368135499852      1.19003887906078
  H   -1.81950434151506     -1.41809973248207     -0.31014474527016
