17

C	-0.205889	0.000165	-1.523634
C	0.0	0.0	0.0
F	-1.575942	0.000435	-1.849492
H	1.097284	0.0	0.0
C	0.435828	1.251834	-2.086083
H	1.46493	1.269751	-1.718727
H	-0.095081	2.142507	-1.743046
H	0.414419	1.227654	-3.178391
C	0.43533	-1.25175	-2.086163
H	0.416218	-1.226489	-3.178358
H	-0.097374	-2.142006	-1.745137
H	1.463638	-1.271214	-1.717034
C	-0.520255	-1.196505	0.638722
N	-0.924051	-2.179699	1.141439
C	-0.520232	1.196355	0.639027
N	-0.924017	2.179565	1.141722
F	2.540404	0.0	0.0
