17

C	-0.298774	0.03102	-1.521734
C	0.0	0.0	0.0
F	0.07389	-1.233799	-1.998527
H	1.096811	0.0	0.0
C	-1.765796	0.200161	-1.861669
H	-2.345942	-0.606961	-1.407573
H	-1.901794	0.158532	-2.946048
H	-2.140049	1.157547	-1.494193
C	0.625626	1.046	-2.164971
H	0.603991	0.923487	-3.250388
H	0.316745	2.064149	-1.914453
H	1.627269	0.861733	-1.763077
C	-0.568178	-1.171844	0.64019
N	-1.034442	-2.122013	1.152432
C	-0.470127	1.218991	0.632929
N	-0.85449	2.218266	1.119863
F	2.525847	0.0	0.0
