17

C	-0.30845	-0.045564	-1.518049
C	0.0	0.0	0.0
F	0.051683	-1.336	-1.932583
H	1.103539	0.0	0.0
C	-1.775618	0.119137	-1.856409
H	-1.91849	0.016217	-2.935908
H	-2.136447	1.101036	-1.543276
H	-2.363412	-0.652119	-1.352285
C	0.616496	0.928894	-2.219513
H	0.321978	1.960215	-2.005995
H	0.573614	0.762663	-3.299862
H	1.622647	0.753198	-1.826342
C	-0.566062	-1.134335	0.705229
N	-1.023137	-2.057253	1.272841
C	-0.455682	1.254211	0.571828
N	-0.801774	2.293116	1.000996
F	2.519016	0.0	0.0
