17

C	-0.319262	-0.171152	-1.505923
C	0.0	0.0	0.0
F	0.031023	1.048993	-2.102544
H	1.104242	0.0	0.0
C	0.606227	-1.23081	-2.070939
H	1.61366	-0.999126	-1.711966
H	0.557417	-1.215014	-3.163137
H	0.317784	-2.223915	-1.715731
C	-1.788515	-0.388178	-1.804514
H	-2.140243	-1.31906	-1.355047
H	-2.376446	0.442325	-1.405599
H	-1.942227	-0.436086	-2.886391
C	-0.454197	-1.154017	0.753756
N	-0.798697	-2.111851	1.343806
C	-0.552457	1.229056	0.537258
N	-0.985527	2.234874	0.965033
F	2.516357	0.0	0.0
