17

C	-0.180101	0.00059	-1.528195
C	0.0	0.0	0.0
F	-1.542985	0.001378	-1.881516
H	1.100307	0.0	0.0
C	0.47513	1.252049	-2.07835
H	0.474982	1.227569	-3.170779
H	-0.060484	2.143813	-1.746664
H	1.497694	1.267285	-1.692237
C	0.473992	-1.251197	-2.07811
H	-0.063468	-2.142473	-1.746997
H	0.475076	-1.225547	-3.17099
H	1.496401	-1.268105	-1.69075
C	-0.525767	-1.197316	0.631344
N	-0.929289	-2.178712	1.137467
C	-0.525656	1.196908	0.632081
N	-0.929077	2.177986	1.138811
F	2.541733	0.0	0.0
