17

C	-0.305879	0.201077	-1.506126
C	0.0	0.0	0.0
F	0.060363	-1.003647	-2.123844
H	1.104331	0.0	0.0
C	-1.773445	0.412322	-1.816835
H	-2.139318	1.329318	-1.350146
H	-1.914255	0.484152	-2.899123
H	-2.358054	-0.433065	-1.444859
C	0.616875	1.279441	-2.03863
H	1.622481	1.046144	-1.675382
H	0.317319	2.262358	-1.664895
H	0.578795	1.287285	-3.131435
C	-0.565607	-1.235311	0.508036
N	-1.025229	-2.239535	0.911926
C	-0.462566	1.142218	0.767113
N	-0.822041	2.093453	1.358695
F	2.518673	0.0	0.0
