17

C	-0.302935	-0.203391	-1.507006
C	0.0	0.0	0.0
F	0.060008	1.002818	-2.12415
H	1.103552	0.0	0.0
C	0.62344	-1.278916	-2.038666
H	1.627993	-1.042513	-1.674218
H	0.326844	-2.263155	-1.665611
H	0.586217	-1.286249	-3.13124
C	-1.769303	-0.419752	-1.820371
H	-2.131318	-1.341885	-1.359665
H	-1.909024	-0.485704	-2.903221
H	-2.35779	0.420803	-1.443512
C	-0.459992	-1.143342	0.767253
N	-0.814832	-2.095799	1.359287
C	-0.570199	1.233805	0.505095
N	-1.036569	2.237235	0.902918
F	2.519126	0.0	0.0
