17

C	-0.312978	0.08538	-1.515891
C	0.0	0.0	0.0
F	0.031355	1.391952	-1.893176
H	1.10371	0.0	0.0
C	0.620443	-0.856833	-2.249635
H	0.339011	-1.897993	-2.06941
H	1.626421	-0.682391	-1.854972
H	0.571566	-0.656713	-3.323395
C	-1.780227	-0.085775	-1.853755
H	-1.92991	0.04713	-2.928872
H	-2.127477	-1.081027	-1.569221
H	-2.374896	0.662059	-1.323133
C	-0.455402	-1.267621	0.540838
N	-0.802883	-2.316374	0.944844
C	-0.561033	1.117157	0.73477
N	-1.006578	2.031645	1.323162
F	2.518129	0.0	0.0
