17

C	-0.300744	-0.072488	-1.519181
C	0.0	0.0	0.0
F	0.076245	1.177329	-2.032987
H	1.108036	0.0	0.0
C	0.618768	-1.109155	-2.134904
H	1.624186	-0.910149	-1.750605
H	0.585615	-1.028163	-3.224727
H	0.313234	-2.117907	-1.844269
C	-1.767916	-0.246945	-1.853221
H	-1.902985	-0.230182	-2.938339
H	-2.143185	-1.195567	-1.464263
H	-2.347925	0.570221	-1.417112
C	-0.48288	-1.193087	0.669319
N	-0.87702	-2.179453	1.176251
C	-0.547443	1.199454	0.605864
N	-0.972755	2.181775	1.091579
F	2.519259	0.0	0.0
