15

C	-0.567864	0.110236	-1.413155
C	0.0	0.0	0.0
Br	0.213002	1.548491	-2.42577
H	1.105772	0.0	0.0
H	-1.646157	0.261656	-1.40867
N	-0.377387	-1.200495	-2.135768
O	-1.390175	-1.904862	-2.193063
O	0.733344	-1.495237	-2.548612
C	-0.450892	-1.293986	0.690895
H	0.017139	-2.150494	0.203031
H	-1.537399	-1.41763	0.678908
H	-0.101126	-1.274742	1.724017
C	-0.47964	1.160387	0.746863
N	-0.915192	2.065752	1.354934
Cl	3.286783	0.0	0.0
