15

C	-0.364781	-0.213624	-1.448596
C	0.0	0.0	0.0
Br	-2.286139	-0.263497	-1.794103
H	1.106538	0.0	0.0
H	0.041442	-1.158756	-1.802673
N	0.210694	0.829834	-2.36899
O	0.155174	1.998307	-2.008851
O	0.668152	0.411313	-3.428573
C	-0.411815	-1.209002	0.847861
H	-1.496941	-1.315691	0.913677
H	-0.001905	-1.087205	1.851699
H	0.020746	-2.116899	0.420408
C	-0.533814	1.223036	0.582823
N	-0.994376	2.143524	1.149816
Cl	3.232255	0.0	0.0
