15

C	-0.364812	-0.023186	-1.465182
C	0.0	0.0	0.0
Br	-2.285799	-0.019579	-1.81244
H	1.095751	0.0	0.0
H	0.036883	-0.916388	-1.939308
N	0.215325	1.127908	-2.245129
O	0.21805	2.230967	-1.71634
O	0.613862	0.857488	-3.374242
C	-0.413934	-1.308301	0.683191
H	-1.498993	-1.42319	0.729285
H	-0.008724	-1.315647	1.695986
H	0.022851	-2.153348	0.145531
C	-0.541467	1.136358	0.733924
N	-1.021149	1.972752	1.405142
Cl	3.236062	0.0	0.0
