15

C	-0.573275	0.003049	-1.41574
C	0.0	0.0	0.0
Br	0.233713	1.332966	-2.54855
H	1.097712	0.0	0.0
H	-1.64805	0.178495	-1.419076
N	-0.416994	-1.367631	-2.024419
O	-1.445513	-2.049447	-2.023242
O	0.685543	-1.724005	-2.409166
C	-0.451615	-1.234635	0.792263
H	-1.538542	-1.353247	0.798319
H	0.0093	-2.128589	0.368709
H	-0.093167	-1.136642	1.817918
C	-0.476577	1.215932	0.655457
N	-0.90988	2.165095	1.19666
Cl	3.285272	0.0	0.0
