15

C	-0.568358	-0.043337	-1.416261
C	0.0	0.0	0.0
Br	0.184406	1.302423	-2.568525
H	1.106027	0.0	0.0
H	-1.649611	0.085643	-1.425386
N	-0.349019	-1.41511	-2.004157
O	-1.343549	-2.144992	-1.986734
O	0.76733	-1.723352	-2.39057
C	-0.443996	-1.217038	0.8233
H	-1.529465	-1.347971	0.825435
H	-0.094098	-1.086636	1.848269
H	0.029071	-2.117378	0.428507
C	-0.484711	1.2289	0.622737
N	-0.924901	2.188304	1.13919
Cl	3.283832	0.0	0.0
