14
Coordinates from ORCA-job run
  C   0.66527079806488      0.43478524858933     -0.07349213750445
  C   -0.31416597999962     -0.73600370346095     -0.13732715618583
  Cl  0.90593089974379      1.17098705302286     -1.65837072846298
  H   0.08957014566850     -1.44410498999581     -0.86710194944376
  H   -0.29497799955185     -1.21200137247158      0.84865481403281
  C   0.24260945741769      1.45491709998796      0.87842792115834
  N   -0.16639695362625      2.27246220066111      1.61702252646953
  N   2.00357082242296     -0.15696548464432      0.42501606747025
  O   2.12066807912255     -0.20287967728877      1.64289481225347
  O   2.76685721813540     -0.60454315505573     -0.41304051151162
  C   -1.73221396560395     -0.31585450924264     -0.49839466932097
  H   -2.37689473877201     -1.19633311837472     -0.52233766639629
  H   -1.77053701183629      0.15690772019769     -1.48014829196792
  H   -2.13929077118580      0.37862668807558      0.23919696940944
