14
Coordinates from ORCA-job run
  C   0.65771330509801      0.59585484129285     -0.12479695256665
  C   -0.84548328232822      0.31322787318204     -0.09403977479525
  Cl  1.29693634780702      0.59408345371661     -1.76595401548201
  H   -1.17866343288160      0.48947471038803      0.93236980698701
  H   -1.31787030560958      1.06457079285440     -0.73212861742040
  C   0.97794695514114      1.86423824646409      0.52026629596805
  N   1.19274940104253      2.90667056964180      1.01844528120670
  N   1.32735104862782     -0.52244359296699      0.70752088390877
  O   1.92416265640482     -1.41073778340630      0.12603211260336
  O   1.10705967415357     -0.43123845828195      1.90868244954794
  C   -1.20606175886587     -1.09764644346609     -0.54143335973686
  H   -0.79812485267370     -1.32674948963082     -1.52646835177717
  H   -0.84369694377014     -1.84593471882502      0.16590200701577
  H   -2.29201881214579     -1.19237000096267     -0.59339776545927
