14
Coordinates from ORCA-job run
  C   0.72631504186838      0.62175464608043     -0.15757114980498
  C   -0.44664405857524     -0.01082183867503     -0.89491400360576
  Cl  1.83742838915321      1.40596623343927     -1.29074936548639
  H   -0.02221882940764     -0.66365749567281     -1.66126590449445
  H   -0.97936026382148      0.79858033447738     -1.40114968133808
  C   0.29516996101902      1.58633005018713      0.84678384976930
  N   -0.11734418842818      2.38705884282743      1.60163116805512
  N   1.48661362387210     -0.51762129025643      0.54587651292515
  O   1.97401092468784     -1.35858068284632     -0.19276047027508
  O   1.47866993636742     -0.51805204822747      1.77015916357191
  C   -1.37455682871076     -0.78172263073851      0.03754925904719
  H   -1.75964844181099     -0.14869981747672      0.83962485870769
  H   -0.87186929463839     -1.64092057251469      0.48596212390270
  H   -2.22656597157522     -1.15961373060367     -0.53017636097432
