14
Coordinates from ORCA-job run
  C   0.64442312924396      0.60963214615052     -0.12787273246473
  C   -0.85252343288935      0.29799332731139     -0.07465203236134
  Cl  1.25432264889602      0.64333990047717     -1.77951016922030
  H   -1.17011986820243      0.45263908645286      0.96015083659686
  H   -1.35057848818442      1.04959297806764     -0.69259814488847
  C   0.95127629891487      1.87479006798634      0.53001900914018
  N   1.15472898505091      2.91440235294072      1.03866823269234
  N   1.34930304580255     -0.50698543425849      0.67667593315924
  O   1.14859260954507     -0.43680416071551      1.88261658915556
  O   1.95218425691237     -1.37571952097097      0.07233601517526
  C   -1.19513869666955     -1.11253897502289     -0.53691735988752
  H   -2.27997336013865     -1.22769968177873     -0.56677336900831
  H   -0.80465083564068     -1.31796753021253     -1.53418558105537
  H   -0.80284629264067     -1.86467455642753      0.15004277296660
