14
Coordinates from ORCA-job run
  C   0.65491113675594      0.37502616791366     -0.07694101506548
  C   -0.35805545940488     -0.75947254533517     -0.12136495029912
  Cl  0.92477521851352      1.06170942909663     -1.68238919383040
  H   0.03364754874754     -1.51574767019305     -0.80773475322841
  H   -0.38821873558001     -1.20305332734735      0.87495607373937
  C   0.25844316366201      1.43167940187642      0.84959071235955
  N   -0.06690678311991      2.25713623727562      1.62078505001237
  N   2.02372158144683     -0.14668945392712      0.46549519360399
  O   1.95591575251588     -1.11019851471378      1.21642921540952
  O   3.02316529518822      0.47294755996943      0.14679958198967
  C   -1.74692311241714     -0.29563793361454     -0.54453604049549
  H   -2.43065896289927     -1.14622750237820     -0.53211923459869
  H   -2.13982990789054      0.45763031060124      0.14188861626685
  H   -1.74498673551821      0.12089784077622     -1.55185925586372
