14
Coordinates from ORCA-job run
  C   0.71180653866732      0.54271136464774     -0.06499774644728
  C   -0.75088496499321      0.27269595890665     -0.42446448056148
  Cl  1.80543565735246      0.10311398730406     -1.37369441673922
  H   -0.95210321814393      0.82342253012100     -1.34696712036514
  H   -1.35781528949565      0.71739930737864      0.36901906741787
  C   0.92212673626531      1.93988500496454      0.29720299159350
  N   1.05385860742302      3.08008387884648      0.54900673197506
  N   1.01509407788183     -0.30841696199794      1.18901743207548
  O   0.47272008331115      0.10944145911782      2.20415952687102
  O   1.66691593903797     -1.32959022910193      1.06138198314826
  C   -1.07471613365239     -1.20727489141138     -0.58329430020587
  H   -2.10142601960798     -1.31422858551671     -0.93741544280791
  H   -0.99721172321792     -1.73830317199690      0.36719993877286
  H   -0.41480029082797     -1.69093965126207     -1.30415416472716
