14
Coordinates from ORCA-job run
  C   0.72444227176240      0.61981766527825     -0.17338844182918
  C   -0.44476570955423     -0.03690440858127     -0.89542934203307
  Cl  1.83605554973999      1.37583456930613     -1.32505166671166
  H   -0.01637512286403     -0.70917349027222     -1.64251802650632
  H   -0.97942096116844      0.75616368412087     -1.42493643312783
  C   0.28764374161368      1.61045789325798      0.80271585967125
  N   -0.12988550688214      2.43002750411324      1.53421875460834
  N   1.48660052823718     -0.49740173857207      0.56327198288282
  O   1.47760084599562     -0.46280325219095      1.78697752698420
  O   1.97596961021997     -1.35811964206966     -0.15084106282862
  C   -1.37161140596055     -0.78528970586183      0.05632188222507
  H   -2.22322245617126     -1.17831770437818     -0.50163268722804
  H   -0.86759967998394     -1.63230432813786      0.52587610100786
  H   -1.75743170498425     -0.13298704601242      0.84241555288518
