13

C	-0.53925	1.4e-05	-1.412451
C	0.0	0.0	0.0
F	-0.136291	1.137001	-2.106914
H	1.093729	0.0	0.0
H	-1.637343	0.02443	-1.415307
H	-0.32829	-0.933624	0.474826
C	-0.125298	-1.191289	-2.18518
N	0.183573	-2.130326	-2.816887
C	-0.503619	1.210156	0.777001
H	-0.073228	1.200172	1.781638
H	-1.596749	1.237202	0.865997
H	-0.171284	2.130107	0.293447
H	3.003548	0.0	0.0
