13

C	-0.443531	0.023715	-1.443348
C	0.0	0.0	0.0
F	-0.088424	-1.153958	-2.093981
H	1.093646	0.0	0.0
H	0.047694	0.847493	-1.97294
H	-0.364875	-0.925117	0.457197
C	-1.910147	0.170064	-1.589453
N	-3.074085	0.298201	-1.681193
C	-0.482718	1.229281	0.761724
H	-0.124985	2.142516	0.276359
H	-1.572281	1.286819	0.847882
H	-0.053682	1.218346	1.765684
H	3.002595	0.0	0.0
