15

C	-0.410452	-0.053389	-1.465723
C	0.0	0.0	0.0
Br	-2.449684	-0.656967	-1.474419
H	1.095425	0.0	0.0
H	-0.332009	-0.905227	0.51151
N	-0.262403	1.179032	-2.0934
H	-0.500664	1.161702	-3.074282
H	-0.719266	1.944504	-1.615796
C	0.327956	-1.154113	-2.193691
H	0.13128	-2.121577	-1.731083
H	1.397259	-0.930634	-2.118241
H	0.020049	-1.200803	-3.240808
C	-0.530478	1.168112	0.686469
N	-0.94859	2.119482	1.233782
Br	3.519289	0.0	0.0
