15

C	-0.523307	0.027437	-1.449768
C	0.0	0.0	0.0
Br	-0.029284	-1.715243	-2.226724
H	1.093298	0.0	0.0
H	-0.345177	-0.901737	0.51478
N	-1.964499	0.138386	-1.591978
H	-2.244174	1.044436	-1.229598
H	-2.414856	-0.573181	-1.024858
C	0.16256	1.12543	-2.240235
H	-0.153309	1.082873	-3.283441
H	1.246785	1.021569	-2.159693
H	-0.123869	2.097157	-1.821614
C	-0.50507	1.174063	0.706459
N	-0.952129	2.134845	1.214094
Br	3.538526	0.0	0.0
