15
Coordinates from ORCA-job run
  C   -0.75241401957456     -0.20487750095654     -0.17586631704764
  C   0.65607886379186      0.20010427458168      0.25725561205863
  H   -0.75691476743896     -1.29880301838136     -0.21778245995171
  H   0.78013133421857      1.28522289028889      0.18919032274715
  N   -1.01189223157215      0.30453505659153     -1.50807207477419
  H   -1.79193175568572     -0.17795670303120     -1.93441018898511
  H   -1.22304099467694      1.29476618568934     -1.48303467262168
  C   -1.71470720577691      0.23189269179656      0.85422716126857
  N   -2.49239167333674      0.59867320803777      1.65525898107255
  N   1.57953445289174     -0.33459082615332     -0.83034304327543
  O   2.36760525357466      0.46724390003722     -1.32296737929446
  O   1.48276155689421     -1.52325235167027     -1.10353779423967
  N   1.03985489808393     -0.36139609735485      1.50633845047193
  H   1.56312364340073      0.27841405631290      2.08308879938290
  H   0.27520264520628     -0.75897576578834      2.03065460318815
