15
Coordinates from ORCA-job run
  C   -0.75847443011327      0.36080645191990     -0.09780900416328
  C   0.63005622277639      0.08670533178336      0.53520068800775
  H   -0.94559000137803      1.44315807277507     -0.07894739075180
  H   0.58400796432526      0.41748126969816      1.57571718979106
  N   -1.72895140019976     -0.42743442475904      0.66306765982548
  H   -1.99874526380860      0.08860137590281      1.49278788187814
  H   -2.56549526631435     -0.59148369875082      0.11690965124529
  C   -0.74919148142248     -0.08216001719866     -1.49350244407915
  N   -0.73628477152228     -0.45902128213923     -2.60533114878324
  N   1.59674498091537      1.02374034094421     -0.13232884637244
  O   2.33994082343841      0.56332890705352     -0.99253276309128
  O   1.51366364972993      2.20353579633467      0.20234641999499
  N   1.11640191748555     -1.25024913366827      0.46082015454172
  H   0.41437178820697     -1.86451231341706      0.85620370710442
  H   1.28854526788089     -1.51349667647861     -0.50260175514766
