15
Coordinates from ORCA-job run
  C   -0.83497073039117      0.44708880109094     -0.02769062075945
  C   0.52382797185211      0.05572907819124      0.55902111614700
  H   -0.96057409688931      1.52569607510540      0.09074219778611
  H   0.51543308714536      0.31566854405607      1.61858536613346
  N   -1.85533362308788     -0.23971735656217      0.74088250188614
  H   -1.71302320104509     -1.23949391516380      0.65768393176943
  H   -2.77813604427658     -0.00836681322339      0.39442830838718
  C   -0.83548089091710      0.13169208002729     -1.47415801248328
  N   -0.85244565225726     -0.17369549740841     -2.60898235269612
  N   1.57049208302690      0.99189339236238     -0.06590374765241
  O   2.44139100778532      0.49022818250646     -0.76951428272578
  O   1.43875156807170      2.18534524595838      0.18876433312907
  N   0.78500041739568     -1.32194540950593      0.36811627590738
  H   1.56211398541410     -1.63669988854233      0.93276873277342
  H   0.99195411817323     -1.52242251889212     -0.60374374760215
