13

C	-0.361358	0.04343	-1.469695
C	0.0	0.0	0.0
Cl	-2.139775	0.290949	-1.666481
H	1.092503	0.0	0.0
H	-0.139707	-0.921497	-1.921556
H	-0.387805	0.857164	0.548251
N	0.348659	1.077104	-2.182371
H	0.218842	1.960509	-1.699519
H	1.341131	0.852954	-2.11311
N	-0.496844	-1.213905	0.683627
O	-0.933356	-1.085861	1.827158
O	-0.423303	-2.280394	0.074943
Br	3.460917	0.0	0.0
