13

C	-0.527424	0.013429	-1.420833
C	0.0	0.0	0.0
Cl	-0.154515	-1.615319	-2.19324
H	1.086857	0.0	0.0
H	0.103988	0.705149	-1.979498
H	-0.363424	0.900139	0.502916
N	-1.892385	0.398791	-1.532599
H	-2.183335	0.389961	-2.501317
H	-2.465356	-0.243309	-1.000079
N	-0.532927	-1.139423	0.798062
O	-1.741117	-1.384006	0.69135
O	0.231184	-1.739761	1.541366
Br	3.566554	0.0	0.0
