13

C	-0.448133	-0.167679	-1.440555
C	0.0	0.0	0.0
Cl	-0.315168	1.519696	-2.227357
H	1.08779	0.0	0.0
H	-1.514595	-0.379982	-1.522635
H	-0.42873	0.885565	0.459492
N	0.331161	-1.164139	-2.048081
H	1.322733	-1.027708	-1.863882
H	0.155365	-1.257135	-3.03767
N	-0.517775	-1.165823	0.768099
O	0.236406	-2.09965	1.011827
O	-1.709989	-1.115689	1.08903
Br	3.535382	0.0	0.0
