14
Coordinates from ORCA-job run
  C   -0.85224521713127     -0.52061373065082     -0.23635424212369
  C   0.50729093430269      0.15280181245907     -0.23505731489431
  Cl  -1.31091833827676     -1.04292932902850     -1.85295137586992
  H   0.59812122148825      0.82848061174196     -1.09140178528180
  H   -0.87688547884822     -1.36860556460406      0.44157565597328
  N   -1.88468545834463      0.45949031469037      0.25050002747531
  O   -1.73933463546819      1.63297076233271     -0.08654273447688
  O   -2.80075884020695     -0.00041664605909      0.91992232084948
  N   1.57418957371522     -0.89567458469080     -0.44254504872129
  O   1.28711243402282     -2.07801879464056     -0.29568906602763
  O   2.68558002957769     -0.44448847126265     -0.70486956933926
  N   0.77133732354928      0.73063004387656      1.06295916573786
  H   1.76247004824842      0.93241476513894      1.13675981915736
  H   0.27672640337165      1.61195881069687      1.13369414754150
