14
Coordinates from ORCA-job run
  C   -0.87922662771747      0.38718128008834     -0.02444816672956
  C   0.60037527901512      0.08252900011806     -0.31945694223867
  Cl  -1.11742064252938      1.05024306931946      1.57565767103337
  H   0.63377131479535     -0.45781109980481     -1.26654557282722
  H   -1.23160122659014      1.10717090563119     -0.76277118175822
  N   -1.72755701335269     -0.85278244186444     -0.27003719075061
  O   -2.31022097766826     -1.38748547699035      0.65664670893567
  O   -1.72455192959171     -1.19595492519185     -1.44784226015296
  N   1.06864026089473     -0.90401782229602      0.73085306926424
  O   1.80771549768435     -0.49246119690130      1.61415701102912
  O   0.61650898320512     -2.04084836705455      0.61742335796308
  N   1.47928813559806      1.19382790551968     -0.35126520803987
  H   1.39360437499490      1.71849606514704     -1.20948023109290
  H   1.38867457126202      1.79291310427956      0.45710893536452
