14
Coordinates from ORCA-job run
  C   -0.94902776666047      0.38847591242175     -0.04908400705175
  C   0.48709316943349      0.04420844106980     -0.42280929741244
  Cl  -1.02630648636945      1.36878841590192      1.39886980372389
  H   0.45844872685458     -0.71900466565494     -1.20232849984319
  H   -1.38172917416487      0.94668637005642     -0.87835112763968
  N   -1.79904188982024     -0.87146540682141      0.05910506069148
  O   -2.41321832479589     -1.10410373796258      1.08412677115889
  O   -1.79769214033402     -1.53229201624420     -0.97332260142478
  N   1.13109335118358     -0.66371074824292      0.78294501226901
  O   2.15848637317048     -0.18138134803227      1.24361876185693
  O   0.55404586443936     -1.67183770367258      1.17628404717943
  N   1.17770595046708      1.19465178347037     -0.86162213756251
  H   1.32310068953622      1.84894753839923     -0.10319398189116
  H   2.07704165706014      0.95303716531140     -1.25423780405412
