17

C	-0.520563	-0.058733	-1.426952
C	0.0	0.0	0.0
F	-0.427885	1.211633	-2.031353
H	1.096853	0.0	0.0
H	-1.593611	-0.302388	-1.413972
C	0.256439	-1.040293	-2.272417
H	-0.104067	-1.031199	-3.305523
H	1.315022	-0.773784	-2.237752
H	0.138762	-2.040811	-1.854889
N	-0.404399	-1.266077	0.645752
H	-1.119551	-1.085341	1.341241
H	0.411982	-1.623784	1.131521
C	-0.495456	1.226593	0.746087
H	-1.592399	1.233509	0.821157
H	-0.073726	1.231241	1.755408
H	-0.179356	2.140716	0.242277
H	3.064423	0.0	0.0
