17

C	-0.393005	0.00071	-1.460876
C	0.0	0.0	0.0
F	-1.777253	0.226101	-1.631464
H	1.104136	0.0	0.0
H	-0.208074	-1.001445	-1.868653
C	0.370644	1.024303	-2.270974
H	0.092318	2.035609	-1.964896
H	0.144859	0.916334	-3.335937
H	1.442373	0.887961	-2.09352
N	-0.520512	-1.224641	0.650942
H	-0.26542	-1.151241	1.632888
H	0.053678	-1.990842	0.303511
C	-0.515295	1.212378	0.751245
H	-1.60751	1.19958	0.796806
H	-0.115314	1.206397	1.770581
H	-0.18368	2.142709	0.286065
H	3.08761	0.0	0.0
