17

C	-0.445568	-0.025797	-1.456731
C	0.0	0.0	0.0
F	-0.313137	1.253276	-2.027631
H	1.097219	0.0	0.0
H	-1.524729	-0.254485	-1.516051
C	0.371634	-0.986046	-2.294793
H	1.430111	-0.753823	-2.154011
H	0.200861	-2.015853	-1.973142
H	0.097275	-0.899179	-3.349747
N	-0.39209	-1.247684	0.67662
H	0.37112	-1.908547	0.582669
H	-1.21861	-1.654383	0.248917
C	-0.550644	1.199486	0.747496
H	-0.193886	1.159558	1.778188
H	-0.21357	2.131639	0.291132
H	-1.648771	1.188132	0.761753
H	3.075832	0.0	0.0
