17

C	-0.651928	-0.095217	-1.519935
C	0.136444	-0.060232	-0.194327
Br	-2.571837	-0.036924	-1.233778
H	1.189261	-0.105007	-0.491577
N	-0.211567	1.135907	-2.337077
O	0.949562	1.06041	-2.719694
O	-0.987154	2.055192	-2.516095
C	-0.355985	-1.272182	-2.326056
N	-0.120074	-2.238051	-2.953884
C	-0.157996	-1.266536	0.687692
H	-1.183881	-1.232943	1.064742
H	0.539244	-1.205438	1.525301
H	-0.004354	-2.215522	0.164417
N	-0.068594	1.237783	0.410445
H	0.748407	1.382265	1.012739
H	-0.880884	1.20024	1.0177
Cl	2.597367	0.589271	2.123195
