17

C	-0.669844	0.008953	-1.517998
C	0.127816	-0.054814	-0.19902
Br	-2.586282	0.092264	-1.213211
H	1.177993	-0.104045	-0.507566
N	-0.207652	1.277829	-2.261896
O	0.948171	1.199695	-2.659794
O	-0.962795	2.224014	-2.375758
C	-0.406041	-1.122833	-2.39654
N	-0.193622	-2.051564	-3.085743
C	-0.186949	-1.307137	0.609095
H	-1.210248	-1.276937	0.993261
H	-0.053857	-2.224804	0.027603
H	0.515346	-1.31097	1.444727
N	-0.043806	1.207104	0.486276
H	-0.852943	1.150681	1.096257
H	0.779419	1.295874	1.090922
Cl	2.611722	0.399192	2.143527
