17

C	-0.615902	0.082161	-1.59739
C	0.107025	-0.040515	-0.232078
Br	-0.044269	-1.296773	-2.844602
H	1.176174	-0.071858	-0.463666
N	-2.12367	-0.060804	-1.357698
O	-2.605193	-1.184942	-1.360412
O	-2.711955	0.98057	-1.081458
C	-0.383284	1.375032	-2.227634
N	-0.170782	2.368372	-2.818407
C	-0.255569	-1.307497	0.532283
H	0.433687	-1.347965	1.377223
H	-1.283212	-1.258815	0.907026
H	-0.148017	-2.215193	-0.064842
N	-0.125484	1.192374	0.490433
H	-0.923352	1.088633	1.107742
H	0.705298	1.318067	1.075461
Cl	2.661392	0.354703	1.901736
