17

C	-0.382453	-0.026247	-1.51514
C	0.024143	-0.155516	-0.020983
Br	-2.317323	0.21072	-1.721811
H	1.118446	-0.21804	-0.05216
N	0.309757	1.194897	-2.137632
O	-0.188536	2.287782	-1.926764
O	1.337663	0.949776	-2.754172
C	-0.017641	-1.198008	-2.297756
N	0.243965	-2.178033	-2.893125
C	-0.559884	-1.431302	0.577987
H	-1.644118	-1.345975	0.681647
H	-0.322536	-2.326606	-0.00284
H	-0.134618	-1.533305	1.577029
N	-0.292986	0.994167	0.784031
H	0.520263	1.611792	0.774567
H	-1.116952	1.480925	0.456445
Cl	2.804156	1.70281	0.429009
