14

C	0.0	0.0	0.0
C	-0.360386	-0.456147	-1.412216
Cl	1.851115	0.0	0.0
H	-0.046875	-1.504337	-1.502653
H	-0.264923	1.047801	0.148179
H	0.245036	0.108449	-2.127286
N	-0.532082	-0.764965	1.075625
H	-1.459133	-0.422318	1.3068
H	-0.613467	-1.738538	0.811505
C	-1.83779	-0.296541	-1.735502
H	-2.502283	-0.798231	-1.035657
H	-2.139141	0.75215	-1.717734
H	-2.049002	-0.686368	-2.735287
Br	-4.912097	0.0	0.0
