14

C	0.0	0.0	0.0
C	-0.474278	-0.120629	-1.438047
Cl	1.798646	0.0	0.0
H	-1.55271	-0.296676	-1.399383
H	-0.273294	0.984782	0.397005
H	0.005877	-1.005113	-1.870369
N	-0.489973	-1.107804	0.776462
H	-0.315774	-0.925865	1.759433
H	-1.50748	-1.100693	0.654518
C	-0.204547	1.123844	-2.273024
H	-0.484137	0.953649	-3.315654
H	0.848962	1.413357	-2.250543
H	-0.805185	1.959444	-1.905599
Br	-3.820954	0.0	0.0
