14

C	0.0	0.0	0.0
C	-0.468765	0.188045	-1.433458
Cl	1.857038	0.0	0.0
H	-1.539258	0.416876	-1.360464
H	-0.256702	0.872808	0.597664
H	0.054709	1.05095	-1.859317
N	-0.535625	-1.145717	0.599168
H	-0.222078	-2.013664	0.196897
H	-0.498328	-1.152901	1.604053
C	-0.269883	-1.044192	-2.307394
H	0.763061	-1.403436	-2.276172
H	-0.943737	-1.842817	-1.989863
H	-0.513185	-0.812492	-3.347432
Br	-4.214023	0.0	0.0
