15
Coordinates from ORCA-job run
  C   0.55711320405825      0.08812516455299     -0.23345409528740
  C   -0.86413734268091      0.04641886109035     -0.78376881166451
  Cl  1.65899659271371      0.10637260233587     -1.72633863775094
  H   -0.95990964595286     -0.81939956894886     -1.44240640555248
  H   -1.01277883151766      0.94539665801363     -1.40348125364608
  C   0.92077391598855     -1.14406129470276      0.56725084775336
  H   0.26146903309329     -1.20894532396732      1.43188424957237
  H   1.96207967470543     -1.09154128018891      0.89392689968428
  H   0.79881239571197     -2.04000874473164     -0.04157201051115
  N   0.71910074777410      1.26568147222172      0.55126439086774
  H   1.62677170315178      1.28948217262444      0.99912909177049
  H   0.61892737249299      2.09820788715533     -0.01759416868094
  N   -1.79798782581222     -0.09253400541346      0.32594953623397
  H   -1.74623656971286      0.73544037015030      0.90577448061479
  H   -2.74299442401358     -0.17963497019167     -0.02556411340349
