15
Coordinates from ORCA-job run
  C   0.53171216790750      0.01438752614757     -0.12287330919999
  C   -0.98245207288102     -0.19421227695767     -0.19510308744039
  Cl  1.06947789130288      0.28208832900203     -1.86131734253125
  H   -1.30737267966888     -0.47255368634708      0.81379886599334
  H   -1.20127210285344     -1.03236994126494     -0.87014349191823
  C   1.25100334500896     -1.22375231547970      0.37066603325946
  H   2.32756253236143     -1.04807906693272      0.37150445679007
  H   1.03640874160744     -2.08105146232126     -0.26778562897962
  H   0.92626147641124     -1.45487608832789      1.39058907306390
  N   0.90523314441033      1.16153962400605      0.64080543933301
  H   0.16595723749800      1.85329558109258      0.58028094888187
  H   1.07801796684185      0.91181220467725      1.60519352307648
  N   -1.64402625997985      1.05606321826984     -0.54946954531333
  H   -2.63705930625053      0.98995707599449     -0.36918216841882
  H   -1.51845208171592      1.23675127844144     -1.53796376659648
