14

C	-0.137353	-0.130413	-1.535963
C	0.0	0.0	0.0
Br	-0.234818	1.780605	-2.419372
H	1.097507	0.0	0.0
H	-1.099299	-0.515204	-1.890461
N	0.959697	-0.869574	-1.95738
H	1.052661	-0.958468	-2.956457
H	1.825537	-0.578212	-1.452904
N	-0.417414	-1.227768	0.676393
H	-1.306964	-1.553859	0.309807
H	0.285282	-1.925092	0.466743
C	-0.651457	1.147589	0.603826
N	-1.230754	2.02793	1.124298
F	2.66261	0.0	0.0
