14

C	-0.598188	0.094945	-1.393526
C	0.0	0.0	0.0
Br	0.431947	-1.182052	-2.602365
H	1.097708	0.0	0.0
H	-0.384265	1.059633	-1.853288
N	-1.9788	-0.200545	-1.383181
H	-2.358357	-0.279607	-2.317673
H	-2.093157	-1.080031	-0.883863
N	-0.408558	-1.28395	0.618655
H	0.465335	-1.785213	0.764688
H	-0.811204	-1.118799	1.532746
C	-0.478915	1.134561	0.774146
N	-0.847916	2.053741	1.408463
F	2.557314	0.0	0.0
