14

C	-0.483041	-0.049823	-1.441186
C	0.0	0.0	0.0
Br	0.043384	-1.728953	-2.290171
H	1.094369	0.0	0.0
H	0.078504	0.704468	-2.005191
N	-1.93066	0.060755	-1.546767
H	-2.198511	0.063907	-2.52449
H	-2.198899	0.955832	-1.147404
N	-0.450464	-1.127007	0.799777
H	0.247681	-1.291114	1.513478
H	-1.349619	-0.964165	1.231463
C	-0.437758	1.292713	0.538814
N	-0.827477	2.315177	0.975381
F	2.56355	0.0	0.0
