14

C	-0.420843	0.032852	-1.427748
C	0.0	0.0	0.0
Br	-2.567026	-0.465246	-1.497418
H	1.10157	0.0	0.0
H	-0.063955	-0.845505	-1.956384
N	-0.19732	1.216017	-2.094445
H	-0.527192	2.031372	-1.598593
H	-0.501601	1.209924	-3.05486
N	-0.319528	-1.271378	0.625797
H	0.412761	-1.468522	1.298047
H	-1.2271	-1.264709	1.074335
C	-0.475574	1.181831	0.712926
N	-0.847671	2.14797	1.273385
F	2.513772	0.0	0.0
