14

C	-0.110852	0.161568	-1.501212
C	0.0	0.0	0.0
Br	-1.974375	0.640105	-2.120376
H	1.105175	0.0	0.0
H	7.9e-05	-0.836663	-1.933275
N	0.83024	1.151473	-1.915223
H	1.694054	0.941874	-1.383115
H	1.010208	1.07649	-2.908162
N	-0.540677	-1.263858	0.47039
H	-0.021645	-1.542079	1.293891
H	-1.514914	-1.157993	0.729702
C	-0.47408	1.167636	0.737507
N	-0.906647	2.027262	1.414454
F	2.623106	0.0	0.0
