14

C	-0.057917	0.020483	-1.522146
C	0.0	0.0	0.0
Br	-1.915128	0.324318	-2.25161
H	1.099889	0.0	0.0
H	0.129663	-1.005036	-1.863921
N	0.853334	1.008442	-1.998209
H	1.711003	0.863523	-1.433787
H	1.061753	0.857032	-2.977004
N	-0.540558	-1.178076	0.6492
H	-1.413555	-1.452409	0.210809
H	0.132764	-1.926155	0.545591
C	-0.513409	1.226415	0.592619
N	-0.917443	2.208475	1.095918
F	2.623555	0.0	0.0
