15

C	0.0	0.0	0.0
C	-0.519471	0.036681	-1.442373
Br	1.960452	0.0	0.0
H	-1.619558	0.052539	-1.232355
C	-0.341866	1.281404	0.658849
N	-0.541457	2.252088	1.291277
N	-0.543349	-1.152347	0.640842
H	-1.578074	-0.940023	0.546326
H	-0.290125	-1.136934	1.623921
C	-0.15796	-1.198658	-2.149719
N	0.132729	-2.11099	-2.832503
N	-0.104403	1.244847	-2.133691
H	0.809857	1.122524	-2.552348
H	-0.770134	1.456514	-2.865304
F	-2.772599	0.0	0.0
