15

C	0.0	0.0	0.0
C	-0.304238	0.299069	-1.521347
F	1.375051	0.0	0.0
H	0.520129	-0.22417	-2.027582
N	-0.594996	0.927562	0.877095
H	-1.623014	0.786419	0.677831
H	-0.427462	0.630352	1.83374
C	-0.367814	-1.428144	0.250194
N	-0.598483	-2.567993	0.419345
C	-0.048962	1.739326	-1.748433
N	0.186743	2.862558	-2.001394
N	-1.551812	-0.096374	-2.130625
H	-2.296164	-0.001047	-1.397432
H	-1.490512	-1.084557	-2.345578
F	-2.917717	0.0	0.0
