15

C	0.0	0.0	0.0
C	-0.249729	0.052115	-1.508872
F	1.385647	0.0	0.0
H	0.320148	0.952556	-1.793578
N	-0.475019	1.176434	0.640105
H	-0.201673	1.12948	1.614084
H	-1.512651	1.004811	0.565867
C	-0.430502	-1.281432	0.609333
N	-0.694759	-2.266598	1.203471
C	-1.625156	0.24186	-1.99663
N	-2.531307	0.304183	-2.750468
N	0.27927	-1.175655	-2.113351
H	0.03767	-1.186057	-3.09213
H	1.291238	-1.169426	-2.025157
F	-2.597244	0.0	0.0
