15

C	0.0	0.0	0.0
C	-0.254558	0.230979	-1.557018
F	1.408355	0.0	0.0
H	0.5805	-0.289302	-2.037036
N	-0.55696	0.881035	0.943722
H	-1.584688	0.687464	0.821076
H	-0.367691	1.834663	0.651094
C	-0.400115	-1.39187	0.311408
N	-0.606968	-2.522266	0.547546
C	-0.03252	1.66796	-1.790969
N	0.166502	2.815742	-1.93799
N	-1.49384	-0.195291	-2.167317
H	-2.233649	-0.00307	-1.451691
H	-1.454308	-1.208856	-2.214902
F	-2.824537	0.0	0.0
