15

C	0.0	0.0	0.0
C	-0.320349	-0.195291	-1.492625
F	1.41447	0.0	0.0
H	0.00407	0.762746	-1.930309
N	-0.476924	1.245239	0.477225
H	-1.513905	1.067898	0.403899
H	-0.237616	1.315861	1.462621
C	-0.360755	-1.1839	0.818209
N	-0.461608	-2.090475	1.558583
C	-1.714704	-0.412006	-1.922999
N	-2.487082	-0.704334	-2.767835
N	0.453578	-1.343397	-1.981479
H	1.433659	-1.092329	-2.000928
H	0.14625	-1.553875	-2.922839
F	-2.606015	0.0	0.0
