15

C	0.0	0.0	0.0
C	-0.380298	-0.229142	-1.516133
F	1.376017	0.0	0.0
H	0.558853	-0.507391	-2.008074
N	-0.511482	1.152822	0.653782
H	-0.306402	1.964408	0.077933
H	-1.541215	0.968473	0.600639
C	-0.394831	-1.193419	0.791586
N	-0.546172	-2.11386	1.502819
C	-0.784781	1.067315	-2.105363
N	-1.070283	2.067813	-2.651168
N	-1.348582	-1.293583	-1.689064
H	-2.165057	-0.971379	-1.123175
H	-1.599654	-1.352027	-2.66971
F	-2.753357	0.0	0.0
