15

C	0.0	0.0	0.0
C	-0.259644	0.197124	-1.558938
F	1.407811	0.0	0.0
H	0.565747	-0.348334	-2.0325
N	-0.571601	0.896568	0.919191
H	-1.598395	0.687667	0.802389
H	-0.396448	1.844349	0.601161
C	-0.399148	-1.387691	0.331741
N	-0.605661	-2.520441	0.557016
C	-0.018661	1.625715	-1.834611
N	0.192883	2.766978	-2.020203
N	-1.509967	-0.229191	-2.146424
H	-1.450354	-1.234896	-2.262471
H	-2.243459	-0.069857	-1.412207
F	-2.856348	0.0	0.0
