14
Coordinates from ORCA-job run
  C   0.84771289155878     -0.71026741362474     -0.11426672129844
  C   -0.18547410907799      0.15614878754000      0.04936934074449
  C   2.04422694355967     -0.62478696627973      0.67302750586006
  N   3.02389503506062     -0.54982738425888      1.31930558420976
  C   0.80709465142433     -1.76643506761665     -1.08466243306046
  N   0.76560276671340     -2.63037926332175     -1.88147498981693
  C   -0.13828800441839      1.25517878903081      1.06431294571340
  H   -0.26230933262026      2.22292933875879      0.56777143774220
  H   -0.97466564040848      1.14883844627648      1.76257273502009
  H   0.79138061938393      1.27055543272978      1.63267490528625
  C   -1.43065192000603      0.06104257984002     -0.77573041427099
  H   -1.58379213793920      0.99662413018579     -1.32319197280938
  H   -1.40691637013689     -0.76160109981351     -1.49032674906748
  H   -2.29881539309351     -0.06802030944641     -0.12138117425257
