14
Coordinates from ORCA-job run
  C   0.81188682653858     -0.74261645704161     -0.15414169298446
  C   -0.17820301218696      0.16289597184629      0.05734300044618
  C   2.12960234055364     -0.56755058710802      0.38601657578112
  N   3.20678996919564     -0.41744176191732      0.83342820743506
  C   0.60257024077340     -1.93143326618690     -0.92985366719983
  N   0.42691115655609     -2.90358022641825     -1.56790874129341
  C   0.04736498065920      1.40097950469406      0.86760978968144
  H   1.06275986771791      1.47708390802714      1.25627597293372
  H   -0.65266846108545      1.42494911002401      1.70893515242550
  H   -0.16154743660551      2.28547092484153      0.25728228958770
  C   -1.55150139088289     -0.02571244197662     -0.50720816172885
  H   -1.80730246186523      0.82307241578715     -1.14953940380525
  H   -2.28556661768282     -0.03995302360299      0.30481021714426
  H   -1.65209600168561     -0.94416407096848     -1.08504953842317
