14
Coordinates from ORCA-job run
  C   0.81775251772383     -0.75200230695013     -0.05437873169605
  C   -0.17967946398784      0.16554688698485      0.03515863261187
  C   2.01367977261724     -0.65385693109012      0.73254558332841
  N   2.99143155409598     -0.56998159775350      1.38068778599523
  C   0.73929308823551     -1.87866490073967     -0.93926521201637
  N   0.67124580852323     -2.80063155182383     -1.66631607983528
  C   -0.09093845527921      1.33698948573670      0.96272762456843
  H   -0.91118512660687      1.29662505744073      1.68691091566883
  H   0.85251604586754      1.37876147312692      1.50681082172565
  H   -0.21270691321532      2.26661121028489      0.39789042879048
  C   -1.42504034346900      0.05771414341657     -0.78817016833246
  H   -1.52294214740642      0.94240606304249     -1.42558395578498
  H   -1.44263484984605     -0.83019860141002     -1.41978975655222
  H   -2.30179148725260      0.04168156973411     -0.13322788847154
