14
Coordinates from ORCA-job run
  C   0.92294665879262     -0.62390916685664     -0.01485673616416
  C   -0.19892587735774      0.14083991606160      0.02766846224336
  C   1.57430059893010     -0.94776031212567     -1.25148180929694
  N   2.10067147191142     -1.21180012362066     -2.26939762505985
  C   1.52012498788506     -1.16408405714151      1.17294025968969
  N   2.00458465564544     -1.60683790813865      2.14884108230269
  C   -0.87938602276285      0.46823565432125      1.32023572649903
  H   -0.94222165980064      1.55439786350560      1.44014072703083
  H   -1.90745052260070      0.09233246981550      1.30126150517378
  H   -0.37036284060157      0.04848657169613      2.18761552499532
  C   -0.82235337839001      0.69583418804372     -1.21481836878766
  H   -0.85529656262965      1.78845362645382     -1.15432153920781
  H   -1.85946782308456      0.35403102618092     -1.29308783985350
  H   -0.29016368593692      0.41278025180460     -2.12273936956478
