14
Coordinates from ORCA-job run
  C   0.80444756262257     -0.76094892641786     -0.09831726872366
  C   -0.17652465787487      0.16744228904130      0.04572783074773
  C   0.63788537508598     -1.92137675066979     -0.92572358852048
  N   0.49682291860705     -2.87109285466503     -1.60486897996866
  C   2.06947594343287     -0.64091461985157      0.56805885467903
  N   3.10484624623753     -0.53846045699901      1.11626773589801
  C   0.00404290889039      1.37585755893552      0.91029851627068
  H   -0.76904161283726      1.39534453174917      1.68506371960479
  H   0.98144027656909      1.41316249554222      1.39088430889746
  H   -0.12674856332855      2.28222395527782      0.31045926704774
  C   -1.49419250085623      0.03505188629473     -0.65197467057124
  H   -1.56279468451245     -0.86284290247801     -1.26574191744085
  H   -2.30289575021823      0.01855671135338      0.08563507843675
  H   -1.66476346181788      0.90899708288713     -1.28876888635730
