14
Coordinates from ORCA-job run
  C   0.81516646107430     -0.75108811410710     -0.08591203478142
  C   -0.17928869983600      0.16511166492843      0.04281745327203
  C   0.69718160776217     -1.88477263379230     -0.95754081961771
  N   0.59607408015425     -2.81269790638578     -1.67292902260020
  C   2.04738015716752     -0.64386112896311      0.64145877220283
  N   3.05574141826588     -0.55204114826019      1.23965245397967
  C   -0.04937118657015      1.34497386928470      0.95467140060383
  H   -0.85602932854895      1.33082071224971      1.69457774838238
  H   0.90532943957897      1.37444876375845      1.47939146171455
  H   -0.16288503856111      2.27021235634020      0.38074221043949
  C   -1.46195644707107      0.04705813656788     -0.71957407553950
  H   -1.49519359063922     -0.83153265226813     -1.36347508008601
  H   -2.30421733104576      0.00277919080251     -0.02172388789386
  H   -1.60893154173082      0.93958888984476     -1.33615658007609
