14
Coordinates from ORCA-job run
  C   0.80247057233322     -0.76527972586782     -0.07800245839261
  C   -0.17669994853414      0.16829246211112      0.04151752872088
  C   2.04660713728285     -0.65789304643697      0.62842733362868
  N   3.06519898177875     -0.56567569881194      1.20896855319332
  C   0.65508789132406     -1.91925142084995     -0.91803927343104
  N   0.52996988116913     -2.86368370848054     -1.60755566192898
  C   -1.47176539369415      0.04992690222573     -0.69963298231046
  H   -1.52705740056994     -0.84473789079368     -1.31944419680477
  H   -1.61421066789832      0.92772769806477     -1.33799669818799
  H   -2.30460428721759      0.03675529905882      0.01065029461467
  C   -0.01624364111044      1.36899564218412      0.92067449272533
  H   -0.81157963302968      1.38523831739196      1.67269012048083
  H   -0.12487596526019      2.28122845221423      0.32552639681215
  H   0.94670247342641      1.39735671799017      1.43021655088000
