14
Coordinates from ORCA-job run
  C   0.81868041306895     -0.74280027860492     -0.11121541125372
  C   -0.18017858886826      0.16368438971919      0.04849454857181
  C   0.68259627942896     -1.88080824350150     -0.97462523298068
  N   0.56706924986363     -2.81200358644858     -1.68354654416781
  C   2.07358936146924     -0.62099349194065      0.57389909607668
  N   3.10013141698874     -0.51781914337622      1.13828590653593
  C   -0.03087491380985      1.34858191119120      0.95077215648924
  H   -0.17408213459221      2.27031752195266      0.37768178983974
  H   0.94158287999412      1.39016143926200      1.44104288828881
  H   -0.81040527366317      1.32909711026983      1.71909613788862
  C   -1.48710856840053      0.02914650343575     -0.66861589110795
  H   -1.66359686355435      0.91597750701479     -1.28563853889122
  H   -1.53403381804343     -0.85382435500450     -1.30560653954860
  H   -2.30436943988183     -0.01871728396906      0.05797563425916
