15

C	0.0	0.0	0.0
C	-0.439343	-0.064416	-1.46028
F	1.351299	0.0	0.0
H	0.445533	0.167973	-2.061067
H	-0.376918	0.898451	0.461498
N	-0.393208	-1.132623	0.893305
O	-0.413667	-0.856478	2.088957
O	-0.493579	-2.259196	0.421959
N	-1.395898	1.025086	-1.821842
O	-2.182078	0.81791	-2.733887
O	-1.131612	2.122351	-1.342805
N	-0.830793	-1.419473	-2.008369
O	-1.982129	-1.805161	-2.011051
O	0.141635	-2.032288	-2.458566
F	-2.26424	0.0	0.0
