17

C	-0.580399	0.020761	-1.428627
C	0.0	0.0	0.0
F	-0.131901	1.196043	-2.010617
H	1.09252	0.0	0.0
C	-0.114794	-1.08153	-2.290527
N	0.15564	-1.903181	-3.084533
C	-2.098871	0.059439	-1.422522
H	-2.41433	0.908625	-0.816116
H	-2.458731	0.192189	-2.444067
H	-2.516384	-0.864964	-1.018293
N	-0.435589	-1.305839	0.638268
O	-1.221919	-1.259539	1.588213
O	0.003615	-2.338482	0.143451
N	-0.460125	1.137304	0.733398
H	-1.18818	0.865261	1.380405
H	0.323286	1.511435	1.25445
Br	3.407063	0.0	0.0
