17

C	-0.432144	-0.116147	-1.471757
C	0.0	0.0	0.0
F	-1.830734	-0.248505	-1.519462
H	1.091598	0.0	0.0
C	-0.12771	1.173146	-2.12218
N	0.057971	2.188993	-2.681028
C	0.209204	-1.254636	-2.234554
H	1.293958	-1.192593	-2.11518
H	-0.133939	-2.204788	-1.828592
H	-0.063449	-1.187215	-3.289711
N	-0.496961	-1.25242	0.685002
O	-1.543742	-1.175475	1.322246
O	0.160258	-2.278507	0.519553
N	-0.484715	1.141417	0.695613
H	-1.398852	1.43999	0.387277
H	0.190544	1.890246	0.640989
Br	3.435818	0.0	0.0
