16

C	-0.405879	-0.05861	-1.473973
C	0.0	0.0	0.0
Cl	-2.205963	-0.029474	-1.621706
H	1.108985	0.0	0.0
C	0.120828	1.062553	-2.256347
N	0.527405	1.85919	-3.01867
C	0.135598	-1.354539	-2.074282
H	-0.324527	-2.214027	-1.587423
H	-0.086119	-1.383168	-3.141406
H	1.217565	-1.374063	-1.916634
C	-0.489008	-1.15892	0.728743
N	-0.876804	-2.129812	1.265606
N	-0.434702	1.250311	0.703477
O	-0.633524	1.16649	1.911037
O	-0.497307	2.274554	0.032718
Br	3.272248	0.0	0.0
