16

C	-0.485395	0.271818	-1.44684
C	0.0	0.0	0.0
Cl	0.114004	1.881195	-1.952136
H	1.092208	0.0	0.0
C	0.125266	-0.738375	-2.316394
N	0.500663	-1.565206	-3.062844
C	-1.999514	0.229314	-1.631927
H	-2.47542	1.002476	-1.031057
H	-2.232092	0.393787	-2.684904
H	-2.382241	-0.747098	-1.327136
C	-0.513908	-1.282626	0.457775
N	-0.922863	-2.331141	0.796308
N	-0.506685	1.076147	0.92176
O	-1.687891	0.998081	1.272305
O	0.281152	1.957859	1.238247
Br	3.330167	0.0	0.0
