16

C	-0.415301	0.054827	-1.472491
C	0.0	0.0	0.0
Cl	-2.219427	0.084949	-1.595811
H	1.094278	0.0	0.0
C	0.090846	1.23975	-2.168063
N	0.471229	2.112103	-2.856809
C	0.123287	-1.185862	-2.183368
H	1.208049	-1.215306	-2.043422
H	-0.112869	-1.129087	-3.246075
H	-0.329221	-2.084423	-1.764476
C	-0.484768	-1.214641	0.636763
N	-0.853491	-2.216381	1.127
N	-0.453892	1.192035	0.790493
O	-0.741561	0.999179	1.96632
O	-0.447798	2.275035	0.216495
Br	3.270159	0.0	0.0
