18

C	0.0	0.0	0.0
C	-0.292709	0.070883	-1.547872
Br	1.934722	0.0	0.0
H	0.43893	-0.596418	-2.010937
C	-0.688773	1.036013	0.827651
H	-0.433277	2.030716	0.459575
H	-0.407267	0.944666	1.876425
H	-1.77725	0.809367	0.677067
N	-0.365108	-1.39757	0.49795
O	-0.618222	-1.517185	1.68926
O	-0.298369	-2.317983	-0.311338
C	0.057193	1.427666	-1.982401
N	0.302681	2.509941	-2.368312
C	-1.6723	-0.301601	-2.103063
H	-1.794814	-1.381938	-2.024291
H	-2.486604	0.133669	-1.500443
H	-1.685056	-0.015964	-3.160947
F	-3.191682	0.0	0.0
