18

C	0.0	0.0	0.0
C	-0.624042	-0.079549	-1.390082
Br	1.932818	0.0	0.0
H	-1.691527	-0.330345	-1.093255
C	-0.499415	1.182958	0.802015
H	-0.131717	1.112445	1.82468
H	-0.135458	2.108504	0.354194
H	-1.595706	1.085493	0.750428
N	-0.364621	-1.285863	0.764513
O	-0.559611	-2.295847	0.101493
O	-0.371788	-1.230818	1.987693
C	-0.005715	-1.059514	-2.269249
N	0.449877	-1.793383	-3.067461
C	-0.684923	1.286092	-2.080705
H	0.276724	1.806543	-2.078504
H	-0.999667	1.1523	-3.118085
H	-1.441266	1.882314	-1.572972
F	-2.854057	0.0	0.0
