18

C	0.0	0.0	0.0
C	-0.603543	-0.152466	-1.392695
Br	1.946103	0.0	0.0
H	-1.672539	-0.388189	-1.098143
C	-0.487381	1.227753	0.73373
H	-0.127994	2.12294	0.224972
H	-0.106791	1.223013	1.75272
H	-1.58406	1.134163	0.698992
N	-0.371139	-1.240158	0.82766
O	-0.582709	-2.279825	0.217161
O	-0.37284	-1.122661	2.047253
C	0.029086	-1.177012	-2.209006
N	0.482475	-1.951313	-2.969773
C	-0.643754	1.172378	-2.157398
H	0.328649	1.675265	-2.178192
H	-1.392299	1.810669	-1.689003
H	-0.953411	0.985384	-3.187678
F	-2.829165	0.0	0.0
