18

C	0.0	0.0	0.0
C	-0.630904	-0.070777	-1.383164
Br	1.942265	0.0	0.0
H	-1.706917	-0.294623	-1.068277
C	-0.489491	1.179587	0.812141
H	-1.585604	1.092237	0.775291
H	-0.10894	1.107982	1.828955
H	-0.13187	2.106819	0.362882
N	-0.36195	-1.288279	0.765423
O	-0.620398	-2.283886	0.104417
O	-0.312586	-1.245995	1.988742
C	-0.042315	-1.07211	-2.257185
N	0.409215	-1.81545	-3.048695
C	-0.654963	1.28934	-2.08497
H	-0.992048	1.155495	-3.115454
H	0.329035	1.769714	-2.105196
H	-1.377788	1.924699	-1.573958
F	-2.856068	0.0	0.0
