13

C	0.0	0.0	0.0
C	-0.668799	0.015811	-1.334973
F	1.350375	0.0	0.0
H	-1.808114	0.020455	-0.991283
H	-0.31952	0.871091	0.566659
H	-0.424018	-0.842367	-1.956465
N	-0.614919	-1.147855	0.673989
O	-0.399439	-2.288383	0.203501
O	-1.713225	-0.769666	1.255361
N	-0.451093	1.240502	-2.069903
O	-0.186925	1.161159	-3.278122
O	-0.596264	2.311933	-1.466034
H	-2.769858	0.0	0.0
