19

C	-0.400967	-0.114195	-1.480926
C	0.0	0.0	0.0
Cl	-0.459781	1.526639	-2.209344
H	1.103445	0.0	0.0
C	0.556716	-0.945721	-2.302928
H	1.562903	-0.56082	-2.125255
H	0.517663	-1.981172	-1.97292
H	0.300141	-0.885879	-3.35922
N	-1.837339	-0.623903	-1.631141
O	-2.111053	-1.245041	-2.650962
O	-2.63047	-0.335429	-0.741413
N	-0.37198	-1.27134	0.714391
O	-0.358631	-1.256117	1.94007
O	-0.615354	-2.272678	0.038985
C	-0.470664	1.201425	0.796168
H	-0.013572	2.100812	0.388378
H	-1.555921	1.297676	0.788571
H	-0.116373	1.085701	1.818388
Cl	3.284354	0.0	0.0
