19

C	-0.410421	-0.021976	-1.483047
C	0.0	0.0	0.0
Cl	-0.528523	1.661305	-2.095455
H	1.103492	0.0	0.0
C	0.553781	-0.769829	-2.372781
H	0.548758	-1.824806	-2.109195
H	1.552522	-0.370247	-2.185246
H	0.276024	-0.649482	-3.418317
N	-1.839638	-0.558489	-1.650296
O	-2.115131	-1.108128	-2.709981
O	-2.625571	-0.350531	-0.732281
N	-0.375191	-1.313114	0.632264
O	-0.446596	-1.358957	1.855094
O	-0.54225	-2.284951	-0.105466
C	-0.467152	1.153973	0.865426
H	-1.550577	1.26789	0.847492
H	0.010462	2.069855	0.522104
H	-0.132605	0.968835	1.884032
Cl	3.279848	0.0	0.0
