19

C	-0.391319	-0.080381	-1.485523
C	0.0	0.0	0.0
Cl	-0.003508	1.468654	-2.260697
H	1.091608	0.0	0.0
C	0.333137	-1.182498	-2.225394
H	0.081299	-1.141843	-3.286302
H	0.068384	-2.158466	-1.827006
H	1.403494	-1.018599	-2.079227
N	-1.911386	-0.27021	-1.579772
O	-2.302698	-1.423767	-1.742369
O	-2.634191	0.707208	-1.424802
N	-0.457048	-1.277344	0.648597
O	-1.540058	-1.254111	1.243882
O	0.264351	-2.267744	0.543006
C	-0.52307	1.181186	0.789052
H	-0.209304	1.060647	1.827453
H	-0.0636	2.09148	0.406828
H	-1.607372	1.268082	0.751812
Cl	3.305521	0.0	0.0
