16

C	-0.575693	-0.184284	-1.395135
C	0.0	0.0	0.0
Cl	-0.033633	1.137358	-2.451961
H	1.095069	0.0	0.0
H	-0.353711	-0.837389	0.607083
N	-0.092933	-1.512407	-1.980169
O	0.152318	-1.589973	-3.180283
O	-0.103727	-2.46042	-1.193497
C	-2.091516	-0.249255	-1.423754
H	-2.467908	0.660795	-0.95922
H	-2.421477	-1.116368	-0.843564
H	-2.455566	-0.332254	-2.450919
N	-0.524656	1.262776	0.555681
H	0.166069	1.971573	0.325102
H	-0.486709	1.175596	1.564811
H	2.973936	0.0	0.0
