16

C	-0.561496	0.107861	-1.41561
C	0.0	0.0	0.0
Cl	0.086914	1.539701	-2.2278
H	1.094282	0.0	0.0
H	-0.353048	-0.951666	0.407761
N	-0.138154	-1.145094	-2.185717
O	0.537074	-1.06269	-3.200466
O	-0.573124	-2.194308	-1.708977
C	-2.076933	0.163719	-1.461271
H	-2.488465	-0.737762	-1.004629
H	-2.432518	0.247979	-2.491339
H	-2.385267	1.039901	-0.892235
N	-0.477542	1.141153	0.790919
H	-0.907812	0.808783	1.641875
H	0.347298	1.666444	1.062211
H	2.928761	0.0	0.0
