16

C	-0.406889	-0.060481	-1.455031
C	0.0	0.0	0.0
Cl	-2.21285	-0.13644	-1.646503
H	1.095632	0.0	0.0
H	-0.376234	0.919814	0.452521
N	-0.026856	1.261367	-2.117248
O	0.509391	1.221061	-3.221638
O	-0.30718	2.289999	-1.509299
C	0.233917	-1.212445	-2.172997
H	-0.085364	-2.121687	-1.665222
H	-0.043818	-1.240519	-3.225009
H	1.317243	-1.105191	-2.060137
N	-0.413785	-1.222513	0.685167
H	0.373313	-1.530038	1.245411
H	-1.197447	-1.045202	1.298027
H	2.887879	0.0	0.0
