16

C	-0.482117	-0.054748	-1.440091
C	0.0	0.0	0.0
Cl	-2.18458	-0.649356	-1.533685
H	1.091595	0.0	0.0
H	-0.303826	-0.947662	0.464964
N	-0.460804	1.3642	-1.995352
O	0.662902	1.787855	-2.246687
O	-1.503395	1.993734	-2.121125
C	0.413191	-0.93587	-2.281723
H	0.130312	-0.897609	-3.33641
H	1.446231	-0.611971	-2.129776
H	0.320743	-1.96308	-1.926502
N	-0.47604	1.184218	0.694819
H	-1.27548	0.985567	1.27927
H	0.282511	1.526247	1.271922
H	2.927552	0.0	0.0
