16

C	-0.488637	-0.061547	-1.434937
C	0.0	0.0	0.0
Cl	-2.220645	-0.576806	-1.514571
H	1.091597	0.0	0.0
H	-0.304328	-0.945235	0.46992
N	-0.405789	1.340442	-2.028562
O	0.723149	1.683007	-2.357224
O	-1.408745	2.037014	-2.099467
C	0.364209	-1.002287	-2.255869
H	1.412514	-0.71976	-2.113274
H	0.223044	-2.016916	-1.877529
H	0.084552	-0.976687	-3.311667
N	-0.467604	1.186838	0.695349
H	-1.257884	0.99276	1.295392
H	0.301333	1.528491	1.258362
H	2.913011	0.0	0.0
