16

C	-0.43887	0.007235	-1.445696
C	0.0	0.0	0.0
Cl	-0.205215	-1.620815	-2.158594
H	1.092966	0.0	0.0
H	-0.376868	-0.892028	0.505709
N	-1.950892	0.242368	-1.524568
O	-2.640529	-0.23054	-0.624442
O	-2.391286	0.867055	-2.486695
C	0.301573	1.036937	-2.256565
H	0.029543	0.994043	-3.310036
H	0.064911	2.021369	-1.850848
H	1.368836	0.842393	-2.11156
N	-0.434001	1.257573	0.613162
H	-1.194347	1.096349	1.258901
H	0.356817	1.634858	1.123043
H	2.929437	0.0	0.0
