16

C	-0.447679	0.008402	-1.442023
C	0.0	0.0	0.0
Cl	-0.163299	-1.601018	-2.173304
H	1.092983	0.0	0.0
H	-0.369412	-0.896895	0.502282
N	-1.966294	0.192231	-1.512341
O	-2.433398	0.773142	-2.488211
O	-2.63383	-0.280197	-0.595494
C	0.247335	1.070402	-2.249175
H	-0.022404	2.041153	-1.833063
H	1.320934	0.91404	-2.115661
H	-0.031712	1.024307	-3.300429
N	-0.440556	1.250123	0.622719
H	-1.194377	1.078574	1.273269
H	0.349381	1.631713	1.129795
H	2.939317	0.0	0.0
