17

C	-0.433087	0.043582	-1.466585
C	0.0	0.0	0.0
F	-1.85387	-0.011955	-1.48125
H	1.09601	0.0	0.0
N	-0.012439	1.218762	-2.135139
H	0.731866	1.050107	-2.795229
H	0.262977	1.897114	-1.43371
C	-0.004016	-1.163396	-2.201412
N	0.299751	-2.128756	-2.795772
C	-0.512417	-1.227834	0.738472
H	-0.165533	-2.150535	0.266111
H	-1.60605	-1.238636	0.769976
H	-0.126284	-1.216591	1.760902
N	-0.40393	1.278311	0.585744
H	-1.367569	1.234103	0.894258
H	0.188182	1.469686	1.383492
Br	3.613701	0.0	0.0
