17

C	-0.523117	0.003154	-1.437077
C	0.0	0.0	0.0
F	-0.1117	-1.147078	-2.090312
H	1.099648	0.0	0.0
N	-1.956179	0.040425	-1.430878
H	-2.315703	0.358869	-2.322007
H	-2.217628	0.699897	-0.70314
C	0.047482	1.145681	-2.203213
N	0.371921	2.100572	-2.805994
C	-0.487682	-1.230436	0.745065
H	-0.226766	-2.131576	0.190533
H	0.018618	-1.277428	1.713369
H	-1.569443	-1.207507	0.89817
N	-0.52068	1.226614	0.639432
H	0.122554	1.983156	0.419236
H	-0.452898	1.099086	1.643291
Br	3.599893	0.0	0.0
