17

C	-0.518856	0.008901	-1.438813
C	0.0	0.0	0.0
F	-0.103287	-1.136956	-2.096527
H	1.099667	0.0	0.0
N	-1.952438	0.04325	-1.438595
H	-2.306778	0.360439	-2.332149
H	-2.217212	0.70442	-0.713949
C	0.051249	1.156448	-2.197711
N	0.374589	2.114889	-2.795288
C	-0.48903	-1.23414	0.738148
H	0.016836	-1.286735	1.706303
H	-0.229497	-2.132475	0.178787
H	-1.570827	-1.210814	0.890784
N	-0.52157	1.224001	0.642746
H	0.130086	1.977982	0.439599
H	-0.472612	1.087332	1.646326
Br	3.60118	0.0	0.0
