17

C	-0.317266	0.090701	-1.488088
C	0.0	0.0	0.0
F	-1.665788	0.382571	-1.708135
H	1.106277	0.0	0.0
N	0.456574	1.157174	-2.050837
H	1.424655	1.064271	-1.741604
H	0.423985	1.134165	-3.062783
C	-0.101198	-1.214535	-2.170191
N	0.099415	-2.232235	-2.722002
C	-0.566815	-1.234383	0.669789
H	-0.113455	-2.148583	0.280751
H	-0.35452	-1.1861	1.740685
H	-1.651697	-1.269002	0.538031
N	-0.5274	1.212333	0.652157
H	-0.380399	1.98881	0.013913
H	0.086463	1.390357	1.441272
Br	3.563611	0.0	0.0
