17

C	-0.519256	0.027515	-1.438398
C	0.0	0.0	0.0
F	-0.104312	-1.110526	-2.110315
H	1.09968	0.0	0.0
N	-1.95286	0.061747	-1.436328
H	-2.21715	0.714499	-0.703719
H	-2.308581	0.388752	-2.325953
C	0.050798	1.184172	-2.183298
N	0.374053	2.150352	-2.768554
C	-0.488477	-1.244415	0.721247
H	-1.570624	-1.224074	0.872319
H	-0.227128	-2.134881	0.150281
H	0.01597	-1.309257	1.689404
N	-0.522338	1.215053	0.658813
H	0.1305	1.971137	0.468441
H	-0.476928	1.063715	1.660571
Br	3.600252	0.0	0.0
