17

C	-0.512058	0.007675	-1.435162
C	0.0	0.0	0.0
F	0.093282	-1.050272	-2.137076
H	1.094997	0.0	0.0
N	-1.937831	-0.118002	-1.483827
H	-2.255589	-0.048202	-2.443639
H	-2.190902	-1.032559	-1.129231
C	-0.144536	1.250402	-2.145404
N	0.086958	2.191968	-2.80611
C	-0.439778	-1.264129	0.736626
H	-1.512904	-1.254646	0.963605
H	-0.195937	-2.161334	0.162148
H	0.10494	-1.31939	1.681245
N	-0.426272	1.247929	0.619636
H	-1.32808	1.1458	1.066838
H	0.2629	1.529776	1.304334
Br	3.589061	0.0	0.0
