17

C	-0.30358	0.070152	-1.508767
C	0.0	0.0	0.0
F	-1.638213	0.484521	-1.70803
H	1.098393	0.0	0.0
N	0.55679	1.037959	-2.105176
H	1.502774	0.92866	-1.736861
H	0.577588	0.948026	-3.113166
C	-0.248398	-1.25817	-2.171245
N	-0.198428	-2.296309	-2.719505
C	-0.589528	-1.219712	0.67729
H	-0.180414	-2.147432	0.272727
H	-1.679655	-1.236506	0.567798
H	-0.350827	-1.16505	1.739637
N	-0.431506	1.222816	0.671334
H	-1.32799	1.508037	0.293599
H	0.231846	1.956489	0.453034
Br	3.554166	0.0	0.0
