17

C	-0.51512	-0.165347	-1.424857
C	0.0	0.0	0.0
F	0.095227	-1.295216	-1.998409
H	1.094044	0.0	0.0
N	-1.939498	-0.305173	-1.452212
H	-2.185843	-1.169978	-0.986766
H	-2.261484	-0.354726	-2.411479
C	-0.157987	0.986724	-2.278094
N	0.063149	1.848299	-3.042777
C	-0.434654	-1.169631	0.882822
H	-1.506301	-1.134343	1.115068
H	-0.192412	-2.127945	0.416187
H	0.117031	-1.112461	1.823525
N	-0.429419	1.31065	0.468056
H	-1.340076	1.262268	0.907571
H	0.249538	1.66707	1.127437
Br	3.587552	0.0	0.0
