17

C	-0.309373	-0.04141	-1.494205
C	0.0	0.0	0.0
F	-0.080109	1.263106	-2.012584
H	1.1053	0.0	0.0
N	0.516705	-1.003951	-2.112138
H	1.481223	-0.867483	-1.807951
H	0.453185	-0.949124	-3.120377
C	-1.735127	-0.308412	-1.791699
N	-2.862152	-0.531866	-2.03357
C	-0.50037	-1.244268	0.709462
H	-0.133286	-1.24403	1.73992
H	-0.12487	-2.143086	0.220388
H	-1.594139	-1.263254	0.727515
N	-0.608814	1.192021	0.584201
H	-0.14588	2.001338	0.186239
H	-0.379215	1.191808	1.572601
Br	3.607303	0.0	0.0
