17

C	-0.266371	-0.016694	-1.519203
C	0.0	0.0	0.0
F	-0.006481	1.294044	-2.007889
H	1.098592	0.0	0.0
N	0.554615	-0.983068	-2.134312
H	1.510681	-0.880234	-1.788751
H	0.537085	-0.896879	-3.143
C	-1.693804	-0.243262	-1.842693
N	-2.835416	-0.435247	-2.04317
C	-0.515802	-1.260476	0.668798
H	-0.151844	-2.152915	0.159081
H	-0.162378	-1.268776	1.700695
H	-1.612031	-1.282078	0.677169
N	-0.500408	1.178385	0.678409
H	-1.498145	1.279813	0.511369
H	-0.03568	1.995348	0.301224
Br	3.591264	0.0	0.0
