17

C	-0.373326	0.070369	-1.482177
C	0.0	0.0	0.0
F	-1.762576	0.260612	-1.565815
H	1.096033	0.0	0.0
N	0.260434	1.152723	-2.177306
H	0.211306	1.934099	-1.525606
H	1.248315	0.920628	-2.267215
C	-0.093858	-1.200908	-2.185666
N	0.092878	-2.204516	-2.764823
C	-0.554465	-1.218878	0.718052
H	-1.649752	-1.224258	0.684552
H	-0.233398	-1.20117	1.76269
H	-0.186994	-2.146773	0.273125
N	-0.398545	1.284474	0.580426
H	-1.328481	1.221464	0.976923
H	0.256502	1.521235	1.314767
Br	3.542076	0.0	0.0
