15
Coordinates from ORCA-job run
  C   0.95143516457331     -0.50331598001911      0.20043733824008
  C   -0.50297290857845     -0.16480300670987     -0.12188992637946
  Cl  1.43716212012686      0.11552936818982      1.80414310177490
  H   -0.62191208898630     -0.44313716125636     -1.18602346308732
  H   1.04478012310994     -1.59427898369902      0.29249183753975
  N   1.82608227317692      0.08940076442303     -0.79052969222424
  H   2.79219074895736     -0.11650216806012     -0.56735719658089
  H   1.61891752622007     -0.31275209214271     -1.69826397140608
  C   -0.80457242732325      1.31719128829861      0.01204427407852
  H   -1.77423885762709      1.54587240830179     -0.43934187533462
  H   -0.03690835879731      1.90855812870180     -0.48626940622958
  H   -0.83918049735165      1.59343207955508      1.06640389674596
  N   -1.37909632453171     -0.93201815464081      0.75399541529034
  H   -1.38295551169876     -1.91036771058387      0.48994231537198
  H   -2.32873098126993     -0.59080878035827      0.67121735220066
