15
Coordinates from ORCA-job run
  C   0.91406120646443     -0.45358448811085     -0.51894896592966
  C   -0.56803979976512     -0.23498072719029     -0.23608349623975
  Cl  1.20473921311493     -2.30445614226504     -0.46068766288037
  H   -1.12826477183729     -0.87443906790139     -0.93224651733645
  H   1.15495598562488     -0.21689994754779     -1.55534244639588
  N   1.71284534217078      0.27636056478087      0.37304218252875
  H   1.41725993512719      0.10053704362851      1.32530986440613
  H   2.70098187617077      0.10673316728789      0.25418668804557
  C   -0.94041708783333      1.21911965839998     -0.48774667889208
  H   -0.41659024281085      1.86845468599218      0.21336909632374
  H   -2.01889559947180      1.35849810615773     -0.36837361625982
  H   -0.67617629936224      1.51884218584306     -1.50438596574289
  N   -0.81501528344009     -0.56871783996701      1.16598641489163
  H   -0.82070687011596     -1.57506838295724      1.28349071646362
  H   -1.72173760403629     -0.21839881615061      1.44843038701746
