15
Coordinates from ORCA-job run
  C   0.89414971175777     -0.58270611138263     -0.41688227138207
  C   -0.60911665803185     -0.36196416022256     -0.28308169802622
  Cl  1.28231053779373     -2.32234371214483     -0.35327098755880
  H   -1.08945499700763     -0.95076581103447     -1.07300605612799
  H   1.21106572137435     -0.25793133270331     -1.41537393342197
  N   1.59780847055479      0.09426854395970      0.66624409699232
  H   1.74748478275359      1.06303707411345      0.40764058884930
  H   2.50757180216685     -0.32777519074693      0.80288787563931
  C   -0.92187914406311      1.12055649001220     -0.51482826998050
  H   -0.51085991269501      1.73035215160789      0.29402655229682
  H   -2.00408421295615      1.27354133413447     -0.52374502519561
  H   -0.52930670049962      1.48390355095504     -1.47078317945834
  N   -1.05613409504321     -0.87776584990644      0.99933319399504
  H   -2.02632444549834     -0.63325843502615      1.15311819659539
  H   -0.49423086060615     -0.45014854161544      1.72672091678334
