15
Coordinates from ORCA-job run
  C   0.97492275802981     -0.09090023988499     -0.11832724737525
  C   -0.55528488867308     -0.15408618501022     -0.07506102280624
  Cl  1.55041446730155     -0.27854193111187     -1.85622201078918
  H   -0.84362280873796     -1.15378777412251     -0.42786348940319
  H   1.31362345660831      0.90550052532246      0.17448852430875
  N   1.54740836106172     -1.06068362801761      0.75206073661468
  H   1.34569909050879     -1.99665803662585      0.41957192764048
  H   2.55141249279192     -0.95497174437407      0.81725150115778
  C   -1.22035646496214      0.88951940033279     -0.95744841951811
  H   -1.01382649582712      0.72884493207991     -2.01392771409988
  H   -2.29850230105986      0.85161098693141     -0.79540637364383
  H   -0.86931424713181      1.89241120864492     -0.69055536886693
  N   -1.04993417877258     -0.00050816051605      1.28871543390302
  H   -0.96143982327641      0.97053478185398      1.56977483764484
  H   -0.47119941786116     -0.54928413550232      1.91394868523307
