15
Coordinates from ORCA-job run
  C   0.96340304108735     -0.53667761826769      0.15041978529581
  C   -0.48967157604403     -0.24573208261622     -0.20724739503285
  Cl  1.29245928014165     -0.10888444292833      1.86703765565108
  H   -0.57427191347730     -0.52623711466147     -1.26729404908755
  H   1.10225026984203     -1.62247609289682      0.11551593739779
  N   1.86247018577939      0.23467928416642     -0.67783854880065
  H   2.82337478162042      0.02190241251486     -0.43781768493738
  H   1.71678260944638     -0.02695126069554     -1.64726335408280
  C   -0.85841139143328      1.22717623146930     -0.06413544721876
  H   -0.85190683221535      1.52083352871831      0.98744919727031
  H   -1.86436117183030      1.39564985697124     -0.45831548102107
  H   -0.15625080397004      1.86611091384152     -0.60156266699200
  N   -1.33764039963060     -1.17903750022066      0.52904594662309
  H   -2.29272378304447     -1.09607122286329      0.20124187392432
  H   -1.33650229627186     -0.92328489253163      1.51076423101066
