15
Coordinates from ORCA-job run
  C   0.88565772612848     -0.51188401690147      0.20933957233288
  C   -0.54963473250914     -0.18675503503314     -0.22545647590843
  Cl  1.16247188381054     -0.01613521462051      1.91641463858463
  H   -0.60917373288997     -0.52755173037868     -1.27003000745066
  H   0.99837850657476     -1.60452236186739      0.23592522853280
  N   1.84676327859957      0.17145787904483     -0.62015688069838
  H   2.78728557115389     -0.13546295451724     -0.40441707676240
  H   1.65607314296846     -0.03676659069409     -1.59409039786739
  C   -0.85091609844942      1.30258510453655     -0.18722536271223
  H   -0.09039209921973      1.87286192286713     -0.71985755567525
  H   -1.82883552260770      1.48025601906370     -0.63643648503641
  H   -0.87838905855804      1.66012683363490      0.84436210915694
  N   -1.57591496244847     -0.91278177588549      0.50647156619006
  H   -1.40895431359251     -1.91184739804733      0.46199525267440
  H   -1.54541958896071     -0.64258068120175      1.48316187463943
