15
Coordinates from ORCA-job run
  C   0.99999073742473     -0.18270156594337     -0.34517615352197
  C   -0.50545982259277     -0.15985358869149     -0.09730435750737
  Cl  1.32931077880054     -0.72807174620700     -2.01894886993550
  H   -0.90090763008521     -1.11681533974740     -0.46470623098606
  H   1.38839641422457      0.84256404641496     -0.29103359774253
  N   1.63368177842172     -1.10973557015106      0.57085033405136
  H   1.60710942668808     -0.67657728181868      1.48810517064627
  H   2.60609816691338     -1.23299438873404      0.31423879914483
  C   -1.17542794848459      0.99096296953049     -0.82715166578439
  H   -0.96323210182835      0.96393980501887     -1.89610580712926
  H   -0.81993120762287      1.94217011679836     -0.42086140404749
  H   -2.26013197700834      0.94676611366994     -0.69734289423990
  N   -0.68473336151621      0.00498932849472      1.34908052578498
  H   -0.66738005645910     -0.90437669562598      1.79441178060145
  H   -1.58738319687558      0.42073379699170      1.54194437066557
