15
Coordinates from ORCA-job run
  C   0.91320929382458     -0.44309245920240     -0.53067832965559
  C   -0.56812866402603     -0.24034674470433     -0.23140881673471
  Cl  1.22280334178455     -2.29033262830775     -0.48250022865318
  H   -1.12865698041692     -0.88247688676749     -0.92484709770093
  H   1.14141346316930     -0.19946668377824     -1.56838275551502
  N   1.71394933795241      0.29217427102559      0.35566662781798
  H   2.70228225971750      0.13104980181429      0.22639132889354
  H   1.42997879228001      0.11000112697347      1.31033855737676
  C   -0.95786639535962      1.21103722657738     -0.47267409377504
  H   -0.43525604379388      1.86191935846374      0.22797116543884
  H   -2.03683292613701      1.33827104382898     -0.34451603388391
  H   -0.70443657965455      1.51938004169515     -1.48950477861722
  N   -0.79670336738549     -0.58188589098517      1.17182222380656
  H   -1.70211340847627     -0.23857838850461      1.46675701580601
  H   -0.79364212347859     -1.58865318812861      1.28556521539593
