15
Coordinates from ORCA-job run
  C   -0.26797231812233      0.37165291639298      0.26295706638806
  C   1.04467143624403     -0.31330428176745     -0.07892058387906
  F   -0.40574241572997      0.37258654347740      1.62499164263851
  H   1.16603026977512     -0.29989548854640     -1.16231579758413
  H   1.85360969364918      0.28860868989948      0.36136153849833
  N   -0.14141876270752      1.82468542300015     -0.16604386759403
  O   -0.23105761877935      2.69719221044405      0.68638698971619
  O   0.05088005580979      1.99368414280337     -1.36796315933615
  C   -1.50082005930481     -0.21610001438225     -0.36892926095872
  H   -1.56094485734539     -1.26553995531079     -0.08555558330494
  H   -2.38260267670378      0.31605498133184     -0.00691313819266
  H   -1.44529822960170     -0.13274409236985     -1.45358486158210
  N   0.98473160222745     -1.68821321309549      0.39296681152267
  H   1.11663652975495     -1.71338625494975      1.39558429164945
  H   1.72029735083433     -2.23528160692731     -0.03302208798141
