15
Coordinates from ORCA-job run
  C   -0.38006635446067      0.16119861028042      0.24012009487571
  C   0.65470986638980     -0.94921375497165      0.10027919169419
  F   -0.44874306492177      0.52792837197104      1.55737935773995
  H   0.28639611101987     -1.78806780136984      0.69932640882466
  H   0.68650902601067     -1.26856341857192     -0.94234374073170
  N   0.15433316003865      1.36597181481709     -0.51583795745983
  O   0.42007344099369      2.38301062385972      0.10965707730400
  O   0.30366214451665      1.19118893444875     -1.72312758015889
  C   -1.76121594436611     -0.15861618628726     -0.26871954512854
  H   -2.14680311051491     -1.02324789128192      0.27413250624222
  H   -1.73364215791581     -0.38013109073349     -1.33458414036115
  H   -2.42536420186857      0.68930458564976     -0.09073082839268
  N   1.99170715244662     -0.60649230730614      0.53689972062708
  H   2.43036831825709      0.04493747038437     -0.10074652658688
  H   1.96807561437480     -0.18920796088892      1.45829596151187
