15
Coordinates from ORCA-job run
  C   -0.41411818330200      0.35926343359310      0.42732118149762
  C   0.76001326478788     -0.56882641907748      0.70299194977814
  F   -0.96030233559818      0.70774283452510      1.63258471936633
  H   0.37113103552747     -1.30591819124079      1.41083817794933
  H   1.52970106766130      0.01426741049992      1.22982359762334
  N   0.09670222192484      1.65841603438942     -0.18585851358954
  O   -0.39011040460548      2.70973677067740      0.20363095214925
  O   0.94449402161292      1.53429102111878     -1.06852714815373
  C   -1.47975355518211     -0.18685303221559     -0.48407789522844
  H   -1.06288648649042     -0.40876975641273     -1.46379434723444
  H   -2.28922763942741      0.54129920860102     -0.56381239433339
  H   -1.86842744268519     -1.11128336509920     -0.05435226572156
  N   1.21071492799787     -1.26550604511963     -0.49003677510435
  H   1.74985222465992     -0.63456738046069     -1.06728421618888
  H   1.80121728311861     -2.04329252377863     -0.22744702280968
