15
Coordinates from ORCA-job run
  C   -0.21332542373367      0.38838481335340      0.23872704066475
  C   1.13601872836421     -0.30440262030652      0.04340076955508
  F   -0.47501233503645      0.44947842481621      1.58125806353431
  H   1.38423526796331     -0.29510732262380     -1.01898909507594
  H   1.88346185063896      0.30249599632396      0.56456779417833
  N   -0.05270946191070      1.81706280424028     -0.24798867332224
  O   0.14893313888197      1.92982021104616     -1.45533299187933
  O   -0.10628167227582      2.72460852075278      0.57048143063607
  C   -1.39221326847571     -0.22926579263127     -0.46745515466938
  H   -1.22193102048838     -0.25999292311539     -1.54256005581246
  H   -1.54688995794360     -1.23989880352583     -0.08854192123615
  H   -2.29076564018619      0.35480281711926     -0.26045727620987
  N   1.20521546745306     -1.65838286499030      0.55014629080384
  H   0.91557375294668     -1.69202951477814      1.51861664630737
  H   0.62669057380231     -2.28957374568080      0.01312713252564
