15
Coordinates from ORCA-job run
  C   -0.46203689715597      0.34887221173180      0.39446548055269
  C   0.71733331725767     -0.54468675409055      0.72833214913821
  F   -0.99643786003709      0.82768141858685      1.57085532140921
  H   0.32288332889925     -1.43190457335775      1.23237383803964
  H   1.34006265532358     -0.00359076608943      1.44308887888141
  N   0.10240710037077      1.58311513837397     -0.30766136087456
  O   -0.42320196248355      1.95790056449418     -1.35008064479332
  O   1.04727607855275      2.12876340139154      0.25652329984478
  C   -1.53485592337489     -0.28981316285881     -0.43506802648025
  H   -2.32548146435022      0.42594498747136     -0.65342774325320
  H   -1.11211745734347     -0.65321579137049     -1.36981291361660
  H   -1.95260587087319     -1.12420266172512      0.13215881219045
  N   1.42426956228745     -0.87536685956590     -0.50234898654043
  H   2.35246039366191     -0.47885598555015     -0.50597111130836
  H   1.50204499926498     -1.87264116744151     -0.63242699318967
