15
Coordinates from ORCA-job run
  C   -0.23388090949131      0.38258316869115      0.22904025776543
  C   1.13926656388219     -0.27788925725286      0.09698742463766
  F   -0.56126123875163      0.43217382269816      1.55760596371269
  H   1.43679569107455     -0.26005336362754     -0.95255189450427
  H   1.84672924461592      0.34507131628762      0.65375741081870
  N   -0.08318385643980      1.81646189717675     -0.24512180393166
  O   0.17325301811382      1.93846187971516     -1.44119306073937
  O   -0.19615697170559      2.71942482283856      0.57242072575372
  C   -1.36257236878452     -0.25968646351046     -0.53477037968325
  H   -1.14056234142679     -0.28207457322442     -1.60057555330878
  H   -1.51065385322384     -1.27517879764947     -0.16628628763801
  H   -2.28380745732727      0.30178471579342     -0.36913062170725
  N   1.21603206807898     -1.63115102648289      0.60441902171311
  H   0.88032155340543     -1.67436582852655      1.55751391851583
  H   0.67968085797986     -2.27456231292663      0.03888487859545
