15
Coordinates from ORCA-job run
  C   -0.36583351659413      0.19531247798473      0.23691993900827
  C   0.66057628468904     -0.93072518064252      0.19259957678543
  F   -0.35990927860454      0.73954621873691      1.49314814418240
  H   0.63317230883497     -1.39058777852643     -0.79624249916319
  H   0.32794155358427     -1.67670184796776      0.92135845798914
  N   0.12294924516966      1.28159855001813     -0.70621650720534
  O   0.42164590091655      2.37323877842732     -0.24223040551696
  O   0.20420969232194      0.94155713296875     -1.88445076188991
  C   -1.77318925540997     -0.18231618071990     -0.14458927522233
  H   -1.80497090776636     -0.55197455186517     -1.16843946522499
  H   -2.12797205652288     -0.95877730307167      0.53524130160124
  H   -2.42668201995715      0.68725753971624     -0.05197810421956
  N   2.01999517154809     -0.54044722852973      0.50148694312934
  H   2.42052332502242      0.01468384525794     -0.24338037618374
  H   2.04854355276810     -0.00066447178684      1.35677303193020
