15
Coordinates from ORCA-job run
  C   -0.39917878998544      0.34386588912528      0.43423637601826
  C   0.81963129060296     -0.52216115807706      0.78641075278136
  F   -0.99532169042337      0.70606455846524      1.60907912521696
  H   1.50413715418271      0.10848258882247      1.36277395504475
  H   0.44096626610563     -1.28466667946587      1.47323429954674
  N   0.10553641203604      1.62526828104878     -0.20595251399490
  O   0.60566746397524      1.48834877910267     -1.32279496293531
  O   0.02282396332250      2.66895590647017      0.42544843345556
  C   -1.41792150401126     -0.28769575540494     -0.47679973323529
  H   -0.98779179000537     -0.50275571427767     -1.45239867446302
  H   -1.77470406607209     -1.21279336394175     -0.01950193955064
  H   -2.26528980704857      0.38893861592034     -0.60148100696763
  N   1.53972385544189     -1.16596887387204     -0.28728316569746
  H   0.96873985007396     -1.86426889939274     -0.74354198106273
  H   1.83298139180519     -0.49061417452289     -0.98042896415663
