15

C	-0.38445	-0.039889	-1.468494
C	0.0	0.0	0.0
Cl	-2.200853	-0.141967	-1.725074
H	1.097594	0.0	0.0
C	0.064995	1.165161	-2.172088
N	0.399725	2.128582	-2.755991
C	0.183643	-1.22403	-2.123959
N	0.62137	-2.163187	-2.67863
C	-0.393677	-1.253288	0.770008
H	0.002388	-1.161054	1.783323
H	0.089705	-2.120728	0.31341
H	-1.473516	-1.409771	0.815053
C	-0.501804	1.209096	0.616629
N	-0.915135	2.176892	1.14358
H	2.567254	0.0	0.0
