15

C	-0.444262	0.010064	-1.471187
C	0.0	0.0	0.0
Cl	0.289261	-1.388014	-2.346945
H	1.09616	0.0	0.0
C	-1.900932	-0.11943	-1.595619
N	-3.069789	-0.238921	-1.650815
C	-0.019019	1.238938	-2.153029
N	0.268157	2.21585	-2.740079
C	-0.449798	-1.241399	0.761404
H	-0.008045	-2.127854	0.30395
H	-0.054767	-1.169159	1.777125
H	-1.537632	-1.349197	0.807818
C	-0.486178	1.213398	0.630485
N	-0.882678	2.195051	1.145552
H	2.601659	0.0	0.0
