15

C	-0.446225	0.01332	-1.469971
C	0.0	0.0	0.0
Cl	0.295006	-1.375818	-2.353917
H	1.096127	0.0	0.0
C	-1.902118	-0.12589	-1.592402
N	-3.069789	-0.255843	-1.64627
C	-0.031094	1.247761	-2.146979
N	0.25375	2.229118	-2.727609
C	-0.446009	-1.244582	0.758349
H	-0.005891	-2.128476	0.295117
H	-1.53316	-1.35311	0.80908
H	-0.045693	-1.176307	1.772244
C	-0.487341	1.209635	0.636103
N	-0.888715	2.182682	1.163405
H	2.599589	0.0	0.0
