15

C	-0.445709	-0.041056	-1.468048
C	0.0	0.0	0.0
Cl	0.294673	-1.463328	-2.301273
H	1.108536	0.0	0.0
C	-1.900929	-0.183751	-1.586402
N	-3.069608	-0.309871	-1.629146
C	-0.025199	1.166434	-2.189555
N	0.270176	2.127552	-2.798731
C	-0.444107	-1.215376	0.804973
H	-0.033522	-1.113686	1.811803
H	-1.531615	-1.317661	0.870092
H	-0.013151	-2.117967	0.368609
C	-0.480505	1.231757	0.594149
N	-0.845158	2.224604	1.111367
H	2.579067	0.0	0.0
