15

C	-0.379603	-0.066924	-1.482864
C	0.0	0.0	0.0
Cl	0.170328	1.423035	-2.329707
H	1.108474	0.0	0.0
C	0.252248	-1.22756	-2.132414
N	0.635057	-2.181448	-2.702955
C	-1.82938	-0.181103	-1.680412
N	-2.992833	-0.293831	-1.815003
C	-0.396106	-1.26988	0.747981
H	-1.472737	-1.464069	0.741506
H	-0.058409	-1.170764	1.782228
H	0.138163	-2.119672	0.315863
C	-0.555546	1.186041	0.613198
N	-0.974016	2.140002	1.162362
H	2.565539	0.0	0.0
