15

C	-0.436742	0.030123	-1.471522
C	0.0	0.0	0.0
Cl	0.304594	-1.354383	-2.365713
H	1.10957	0.0	0.0
C	-1.892012	-0.100317	-1.609533
N	-3.060237	-0.219662	-1.67914
C	-0.008376	1.269808	-2.130931
N	0.281141	2.264485	-2.686089
C	-0.449025	-1.251885	0.743451
H	-1.536771	-1.364056	0.784998
H	-0.058037	-1.191787	1.761667
H	-0.003459	-2.131452	0.276206
C	-0.479611	1.203802	0.649543
N	-0.838017	2.172912	1.214695
H	2.577874	0.0	0.0
