15

C	-0.435617	0.020538	-1.471176
C	0.0	0.0	0.0
Cl	0.292121	-1.38095	-2.351554
H	1.110099	0.0	0.0
C	-1.892067	-0.09602	-1.610416
N	-3.061304	-0.204514	-1.683174
C	0.007675	1.248351	-2.143339
N	0.312605	2.229993	-2.713389
C	-0.453798	-1.242593	0.754843
H	-0.010996	-2.128292	0.296499
H	-0.063496	-1.174169	1.772636
H	-1.541827	-1.351195	0.796383
C	-0.46765	1.214617	0.638527
N	-0.800867	2.198659	1.192655
H	2.575693	0.0	0.0
