15

C	0.0	0.0	0.0
C	-0.475332	0.052939	-1.445297
F	1.351243	0.0	0.0
H	-1.568165	0.008064	-1.3329
H	-0.401037	-0.885643	0.475977
N	-0.421984	1.133836	0.895445
O	-0.46015	0.871806	2.09386
O	-0.566593	2.263357	0.430786
N	0.038524	-1.174346	-2.051254
H	0.961849	-0.957239	-2.412562
H	-0.552015	-1.415396	-2.837541
N	0.05608	1.229337	-2.160689
H	-0.528407	1.338886	-2.983646
H	-0.132866	2.040131	-1.580217
F	-2.610222	0.0	0.0
