15

C	0.0	0.0	0.0
C	-0.49684	0.099144	-1.453784
F	1.367667	0.0	0.0
H	0.417822	0.159545	-2.05681
H	-0.374479	-0.888121	0.494081
N	-0.331279	1.141195	0.92852
O	0.021347	2.266968	0.587075
O	-0.802312	0.846319	2.024983
N	-1.29211	1.29006	-1.704954
H	-2.128371	1.102639	-1.122414
H	-1.570242	1.249135	-2.681151
N	-1.142758	-1.195277	-1.709369
H	-1.411497	-1.206412	-2.689144
H	-2.005201	-1.084289	-1.145431
F	-2.761775	0.0	0.0
