15

C	0.0	0.0	0.0
C	-0.507593	-0.309641	-1.441646
F	1.351905	0.0	0.0
H	-1.327079	-1.003496	-1.270473
H	-0.359678	-0.764947	0.679074
N	-0.369704	1.279814	0.691418
O	-0.210152	2.339499	0.093038
O	-0.64725	1.187004	1.883936
N	0.508759	-0.968927	-2.259385
H	0.714297	-1.873253	-1.84564
H	1.365039	-0.426242	-2.232023
N	-0.965277	0.878807	-2.139784
H	-1.776953	1.138001	-1.575809
H	-1.322416	0.532494	-3.024661
F	-2.499843	0.0	0.0
