15

C	0.0	0.0	0.0
C	-0.445296	-0.198858	-1.495651
F	1.369313	0.0	0.0
H	0.510742	-0.233142	-2.036252
H	-0.385127	-0.758646	0.671319
N	-0.336029	1.306957	0.664042
O	-0.705476	1.273343	1.83249
O	-0.089016	2.338015	0.036537
N	-1.282858	0.817909	-2.088528
H	-2.101482	0.800334	-1.463647
H	-0.825657	1.712346	-1.967292
N	-1.129082	-1.478098	-1.6363
H	-0.563604	-2.197821	-1.194222
H	-1.955714	-1.317137	-1.041839
F	-2.606947	0.0	0.0
