12

C	0.0	0.0	0.0
C	-0.378709	-0.019121	-1.466883
F	1.353995	0.0	0.0
H	-1.46021	-0.100188	-1.518031
H	-0.014506	0.916376	-1.90206
H	0.145315	-0.854407	-1.934174
C	-0.507673	1.158936	0.738953
N	-0.607558	2.196984	1.283029
N	-0.403537	-1.26844	0.722207
O	-0.455617	-1.207468	1.945591
O	-0.485583	-2.291915	0.055164
F	-2.413002	0.0	0.0
