12

C	0.0	0.0	0.0
C	-0.380285	0.134395	-1.462834
F	1.353975	0.0	0.0
H	-1.464565	0.091021	-1.51749
H	0.018456	1.09384	-1.804148
H	0.110536	-0.673848	-2.007089
C	-0.4865	1.085514	0.856192
N	-0.598838	2.06519	1.4937
N	-0.421406	-1.329381	0.588361
O	-0.540047	-2.271161	-0.185284
O	-0.466527	-1.399057	1.812054
F	-2.417329	0.0	0.0
