16
Coordinates from ORCA-job run
  C   -0.70685568630132     -0.09002277855268      0.41509887429481
  C   0.74312339545054     -0.41020927792114      0.74581812473702
  Cl  -1.73477204379893     -0.53415444513764      1.80351752389527
  H   0.80924434481373     -1.49400944610004      0.87911326238717
  H   0.97518309933182      0.05158902481509      1.70704757054149
  N   -0.80390549913654      1.43231456920933      0.28097216091353
  O   -1.23255214697118      1.88272681382963     -0.77792216356836
  O   -0.39954941342432      2.09267696420218      1.22981666299694
  C   -1.24274048607103     -0.75726301082332     -0.82904926419212
  H   -0.67525780661420     -0.45397389107283     -1.70772184684071
  H   -1.16590500592507     -1.83825227681665     -0.70052291081780
  H   -2.28717317244701     -0.49355389236566     -0.98802453399206
  C   1.73004670211762      0.06305179161955     -0.31752332780667
  H   2.74752696817087     -0.16907861617839      0.00321381559621
  H   1.67553131342063      1.14393328378713     -0.46527773348177
  H   1.56905543738439     -0.42577481249455     -1.27955621466294
