16
Coordinates from ORCA-job run
  C   -0.59227362078905      0.08070017656507      0.32983376096119
  C   0.88009468062909      0.46060607299595      0.24824922234321
  Cl  -0.90895152644881     -0.86123800597453      1.81312462708136
  H   1.14487297038748      0.96155224172818      1.18086894395963
  H   0.97104931769869      1.20326891514280     -0.55398729963007
  N   -1.36237984310992      1.39651189255892      0.49783191654067
  O   -1.02475218919470      2.11196150567278      1.43268900995644
  O   -2.22946364554279      1.65764940939611     -0.33113473634230
  C   -1.12065747217892     -0.67541270150105     -0.86430499266890
  H   -0.91751074913777     -0.11928417694351     -1.78119333184867
  H   -2.19520833282787     -0.82670168494634     -0.77941903793665
  H   -0.63219554254257     -1.64805790472493     -0.91514933188419
  C   1.81044082838118     -0.71550752781159     -0.02043314573707
  H   1.65067005955464     -1.14409589785953     -1.01108567535886
  H   1.67923229997298     -1.50241672589471      0.72413620846349
  H   2.84803276514835     -0.37953558840363      0.02897386210072
