16
Coordinates from ORCA-job run
  C   -0.59488568557966     -0.15228441369475      0.23904008410142
  C   0.80749710456854     -0.52358683389737     -0.23065936270989
  Cl  -0.81723447709129     -0.59405811095831      1.94007913546721
  H   0.92597790974475     -1.59587056098501     -0.05048806953015
  H   0.83434161436162     -0.36348558763256     -1.31209849050292
  N   -0.70756137361445      1.36863025454129      0.09456526765683
  O   -0.66709124317466      1.75495876934230     -1.07155190475675
  O   -0.77794757239324      2.08010593505777      1.08525430811568
  C   -1.69553125813446     -0.78383052085984     -0.59051081587103
  H   -1.62650422754653     -1.86907796305046     -0.50439422729166
  H   -2.67591141337971     -0.46870544462172     -0.22885423407374
  H   -1.58458256039274     -0.49314928814677     -1.63471875231730
  C   1.92597260877187      0.26213119461027      0.44302816349355
  H   2.89517718488674     -0.11756554100015      0.11412512640999
  H   1.87848434171853      0.17600079029144      1.52928778337158
  H   1.88079904725467      1.32078732100386      0.17889598843718
