16
Coordinates from ORCA-job run
  C   -0.60739772573199     -0.05722969055047      0.24952121502885
  C   0.79602413214435     -0.58724002535031     -0.02340009104409
  Cl  -0.89981743010529      0.05702305714066      1.99307286799335
  H   0.86365855511189     -0.77088644328609     -1.09933226970123
  H   0.87178038013885     -1.55320196990295      0.48395008804188
  N   -0.66323845548811      1.34555280630204     -0.36357181241921
  O   -0.57323818304654      1.34933691453445     -1.58932463050137
  O   -0.74003903409258      2.33124320650153      0.35411149108069
  C   -1.70138935801941     -0.89076155399706     -0.38823518033168
  H   -1.67209899688633     -1.89655947760902      0.03297202455259
  H   -1.54654019712355     -0.94200562080828     -1.46553391788529
  H   -2.68169606826854     -0.45692288260318     -0.18335461200553
  C   1.91827703446344      0.34353165185270      0.41982587523717
  H   1.83400227184369      0.59872333071925      1.47688452660845
  H   1.91674661925249      1.26917063648894     -0.15957624560314
  H   2.88396645580763     -0.14077393943221      0.26299067094855
