16
Coordinates from ORCA-job run
  C   -0.71048561132050     -0.08902098087199      0.40718717794956
  C   0.73550221999562     -0.41154058922939      0.75239497123031
  Cl  -1.75232728949107     -0.52664722607897      1.78825803883236
  H   0.79961480495756     -1.49551461752063      0.88464134178685
  H   0.95803533079775      0.04900086138965      1.71651203357264
  N   -0.80338611488495      1.43261206357234      0.26746795816067
  O   -0.40548076995180      2.09485435292181      1.21776816366758
  O   -1.22340218967853      1.88043514326562     -0.79592896521018
  C   -1.23784732179338     -0.75990070764814     -0.83870588005683
  H   -0.66232050229563     -0.46222512754562     -1.71407833492671
  H   -1.16529505013558     -1.84052829075741     -0.70498427897996
  H   -2.28006993436146     -0.49360061441487     -1.00737982948622
  C   1.73399766600111      0.06509541399074     -0.29881729786783
  H   1.57147548285255     -0.40445603304731     -1.27014330339310
  H   2.74656789650602     -0.18660529912583      0.02273643767170
  H   1.69442138280229      1.14904165109999     -0.42692823295082
