15

C	-0.018286	0.009171	-0.007887
C	-0.484552	0.064355	-1.464757
F	1.387216	-0.016836	0.010217
H	-1.589104	0.060791	-1.333647
H	-0.369383	-0.942132	0.400535
N	-0.512405	1.04835	0.826487
H	-1.530898	0.84547	0.857617
H	-0.398725	1.939632	0.351464
C	-0.028448	-1.142443	-2.282235
H	1.061385	-1.203798	-2.313281
H	-0.409607	-1.094656	-3.305208
H	-0.420342	-2.050219	-1.815941
C	-0.071153	1.314875	-2.090914
N	0.268369	2.316085	-2.605353
H	-2.991966	-0.070062	0.109818
