13
Coordinates from ORCA-job run
  C   -0.39772958054684      0.30906126753149     -0.74447798800115
  C   0.14249395588185     -0.20790450672807      0.62050934851713
  Br  1.10548556142853      0.77124845888400     -1.91637826792015
  H   -0.74804936997391     -0.44757026266393      1.21401450827450
  C   -1.21425772563700      1.50414639820003     -0.54743957143088
  N   -1.87807932097298      2.45438271999978     -0.34887631461899
  C   -1.18095960675706     -0.74722861621290     -1.38035201258714
  N   -1.84340739224493     -1.58207203669958     -1.87615910316052
  C   0.86880353379266      0.87511701713005      1.30906596675203
  N   1.49292386951395      1.68902386720679      1.88296118466432
  N   0.89051293879726     -1.42367090088584      0.41333941376560
  H   0.92893995039517     -1.96904808264720      1.26452615278376
  H   1.83532318632331     -1.22548532311463      0.10826668296150
