13
Coordinates from ORCA-job run
  C   -0.32414524891066      0.35181554215016     -0.76264883538286
  C   0.08374273354561     -0.23585004536936      0.61960912950183
  Br  1.28522350215315      0.79361802858580     -1.79284044943063
  H   -0.86056134760825     -0.45940351301173      1.13055939872687
  C   -1.10724142759541      1.57161990378301     -0.58193402111457
  N   -1.74678598059239      2.53972891129030     -0.39069618077612
  C   -1.09384518743474     -0.64725027543672     -1.49948826569187
  N   -1.74732872318012     -1.43586234704533     -2.07625474716871
  C   0.79255845481333      0.79082298970318      1.40600296051321
  N   1.39806278358113      1.55505623052581      2.06231149324196
  N   0.79875240999249     -1.47331391698037      0.42544800026182
  H   0.75003246131238     -2.04788927885762      1.25678347115318
  H   1.77153556992348     -1.30309222933714      0.20214804616591
