16

C	0.0	0.0	0.0
C	-0.222202	0.012061	-1.541982
F	1.395605	0.0	0.0
H	0.35624	-0.866968	-1.86951
C	-0.52624	1.180948	0.763947
H	-0.155258	1.135436	1.790782
H	-1.619389	1.134131	0.757799
H	-0.183384	2.092386	0.275654
C	-0.398513	-1.295891	0.574437
N	-0.555647	-2.359129	1.047182
N	0.351379	1.264853	-2.05234
H	0.124686	1.352089	-3.034645
H	1.357094	1.218168	-1.953966
C	-1.531895	-0.160662	-2.184035
N	-2.261035	-0.299157	-3.098476
Br	-3.785949	0.0	0.0
