16

C	0.0	0.0	0.0
C	-0.375971	-0.129	-1.510692
F	1.38694	0.0	0.0
H	0.068575	0.762533	-1.9725
C	-0.559684	1.253639	0.628657
H	-0.243569	2.125857	0.050535
H	-0.187527	1.347924	1.651697
H	-1.652978	1.190864	0.652425
C	-0.424554	-1.202417	0.736262
N	-0.697078	-2.185433	1.31801
N	-1.761082	-0.201721	-1.884875
H	-2.25748	0.647986	-1.642191
H	-2.263793	-0.922889	-1.376047
C	0.349649	-1.287408	-2.066059
N	0.92083	-2.205186	-2.523724
Br	-4.41241	0.0	0.0
