16

C	0.0	0.0	0.0
C	-0.36508	-0.110228	-1.513376
F	1.390756	0.0	0.0
H	0.050928	0.806152	-1.953816
C	-0.572892	1.236586	0.643421
H	-1.664938	1.156893	0.651664
H	-0.212864	1.323516	1.670231
H	-0.265507	2.119809	0.077457
C	-0.410229	-1.222048	0.716088
N	-0.675496	-2.209959	1.292625
N	-1.741902	-0.227129	-1.900476
H	-2.212204	-0.986146	-1.417353
H	-2.282973	0.589324	-1.636491
C	0.400908	-1.23324	-2.089662
N	0.99724	-2.128636	-2.558879
Br	-4.373626	0.0	0.0
