16

C	0.0	0.0	0.0
C	-0.204991	-0.120073	-1.545202
F	1.395507	0.0	0.0
H	0.339071	-1.046503	-1.790089
C	-0.504447	1.269272	0.626834
H	-1.596546	1.232815	0.661378
H	-0.096206	1.35742	1.636935
H	-0.170701	2.105813	0.012922
C	-0.403916	-1.232374	0.692377
N	-0.552151	-2.260029	1.240875
N	0.423462	1.062742	-2.154189
H	1.428221	0.98097	-2.063328
H	0.186504	1.089632	-3.137966
C	-1.516992	-0.279394	-2.18519
N	-2.260965	-0.435818	-3.08452
Br	-3.761107	0.0	0.0
