17

C	-0.501241	0.006757	-1.425428
C	0.0	0.0	0.0
Br	0.335522	-1.479513	-2.393741
H	1.090289	0.0	0.0
C	-1.942087	-0.119881	-1.588732
N	-3.099061	-0.311508	-1.675201
N	-0.026837	1.264363	-2.184834
O	1.017503	1.762137	-1.805243
O	-0.753468	1.665048	-3.087059
C	-0.5665	-1.125051	0.841361
H	-0.286546	-2.092862	0.422794
H	-1.660644	-1.07152	0.91082
H	-0.135975	-1.05339	1.841062
N	-0.319355	1.334479	0.572959
O	-1.303864	1.950475	0.113073
O	0.048829	1.491655	1.762769
Cl	2.893626	0.0	0.0
