17

C	-0.516026	-0.004336	-1.44202
C	0.0	0.0	0.0
Br	-2.440125	0.32197	-1.524393
H	1.092825	0.0	0.0
C	0.12853	0.930046	-2.355026
N	0.585962	1.640475	-3.173221
N	-0.242013	-1.42774	-1.996873
O	0.868028	-1.576984	-2.487242
O	-1.106301	-2.277958	-1.849674
C	-0.464335	-1.170083	0.838339
H	-0.003557	-2.084506	0.464519
H	-1.549634	-1.280634	0.851544
H	-0.105745	-1.015706	1.853896
N	-0.382687	1.309686	0.625183
O	-0.269012	2.31334	-0.073232
O	-0.745162	1.308234	1.798649
Cl	3.165868	0.0	0.0
