17

C	-0.43419	-0.017998	-1.470299
C	0.0	0.0	0.0
Br	0.329305	1.484232	-2.407367
H	1.091631	0.0	0.0
C	0.00888	-1.249734	-2.109697
N	0.341204	-2.24255	-2.644734
N	-1.983039	-0.009831	-1.628477
O	-2.51239	-1.057783	-1.275247
O	-2.54037	0.98362	-2.054668
C	-0.489752	-1.165877	0.843435
H	-0.003369	-1.083255	1.818001
H	-0.173461	-2.107711	0.393006
H	-1.572114	-1.163157	0.96476
N	-0.497407	1.267402	0.625849
O	-1.72011	1.437036	0.606959
O	0.313596	2.020259	1.148682
Cl	3.245956	0.0	0.0
