17

C	-0.435146	-0.016998	-1.47006
C	0.0	0.0	0.0
Br	0.593105	1.21616	-2.538512
H	1.092944	0.0	0.0
C	-0.251974	-1.351018	-2.032332
N	-0.150144	-2.426611	-2.496862
N	-1.960156	0.263225	-1.650291
O	-2.669196	-0.418226	-0.918592
O	-2.332345	1.053781	-2.494314
C	-0.436491	-1.16918	0.87296
H	-0.178789	-2.109355	0.383797
H	-1.50484	-1.152444	1.087285
H	0.134524	-1.10722	1.798837
N	-0.427049	1.274808	0.653561
O	-1.088707	2.085561	0.002334
O	-0.086545	1.422521	1.821719
Cl	3.201942	0.0	0.0
