15

C	0.0	0.0	0.0
C	-0.244786	-0.041239	-1.578522
Cl	1.762332	0.0	0.0
H	0.557738	-0.683475	-1.944155
C	-0.620681	1.106616	0.693351
N	-0.665298	2.129626	1.293176
N	-0.36899	-1.313017	0.664444
O	-0.523051	-1.295521	1.880965
O	-0.298035	-2.314336	-0.041988
C	0.056184	1.33052	-2.046987
N	0.249783	2.395051	-2.507649
N	-1.48628	-0.55702	-2.134935
H	-2.217675	-0.278681	-1.467929
H	-1.642227	-0.123927	-3.040295
H	-2.137916	0.0	0.0
