15

C	0.0	0.0	0.0
C	-0.242033	-0.083065	-1.574292
Cl	1.762212	0.0	0.0
H	0.527889	-0.771869	-1.920428
C	-0.666649	1.109771	0.650666
N	-0.697433	2.149216	1.224882
N	-0.365936	-1.300316	0.690524
O	-0.303149	-2.319152	0.00678
O	-0.50743	-1.258012	1.908187
C	0.108425	1.26138	-2.087266
N	0.315709	2.298157	-2.598609
N	-1.507527	-0.556316	-2.116073
H	-2.234313	-0.131826	-1.532693
H	-1.575233	-0.22678	-3.077834
H	-2.100146	0.0	0.0
