15

C	0.0	0.0	0.0
C	-0.251276	0.055451	-1.569318
Cl	1.762058	0.0	0.0
H	0.517632	-0.59776	-1.986002
C	-0.728643	1.022379	0.73027
N	-0.761866	2.025813	1.372282
N	-0.357822	-1.374658	0.550317
O	-0.226009	-2.319379	-0.222143
O	-0.574595	-1.454762	1.753495
C	0.086339	1.438877	-1.977712
N	0.291032	2.506443	-2.424444
N	-1.507536	-0.391658	-2.14957
H	-2.265379	0.071534	-1.659055
H	-1.500792	-0.137143	-3.134782
H	-2.061592	0.0	0.0
