15

C	-0.434522	-0.179767	-1.446296
C	0.0	0.0	0.0
F	-1.768731	-0.676992	-1.454579
H	1.087193	0.0	0.0
H	-0.408334	0.914692	0.422642
N	-0.427734	1.111584	-2.072568
H	-1.172847	1.679012	-1.689269
H	-0.589578	1.01067	-3.065507
N	0.384142	-1.136567	-2.104113
H	0.385187	-0.985995	-3.105359
H	1.337543	-1.085744	-1.757018
N	-0.491027	-1.107744	0.852087
O	-0.028371	-2.227357	0.663013
O	-1.332841	-0.825891	1.709345
Cl	3.362797	0.0	0.0
