15

C	-0.426748	-0.09698	-1.459764
C	0.0	0.0	0.0
F	-0.290934	1.264857	-1.922339
H	1.088581	0.0	0.0
H	-0.412376	0.895601	0.457147
N	0.433688	-0.946188	-2.191984
H	1.387779	-0.857623	-1.848995
H	0.410593	-0.685972	-3.170421
N	-1.790128	-0.489879	-1.610938
H	-2.394989	0.280922	-1.362596
H	-1.971381	-0.768988	-2.566204
N	-0.512345	-1.155722	0.768555
O	-0.037586	-2.260645	0.531827
O	-1.399702	-0.931085	1.595181
Cl	3.369411	0.0	0.0
