15

C	-0.429556	0.021891	-1.461898
C	0.0	0.0	0.0
F	-0.27587	-1.335913	-1.925374
H	1.086807	0.0	0.0
H	-0.399957	0.875562	0.508693
N	-1.790801	0.404591	-1.652466
H	-2.045633	0.236873	-2.619708
H	-2.364419	-0.189535	-1.064922
N	0.461058	0.878488	-2.145731
H	1.42422	0.617129	-1.94575
H	0.293967	0.856515	-3.143797
N	-0.555216	-1.194188	0.679576
O	0.204551	-2.067983	1.073283
O	-1.787235	-1.229784	0.80326
Cl	3.413106	0.0	0.0
