18

C	-0.82178	0.010047	-1.450793
C	0.08104	0.09844	-0.216428
Br	-0.530006	1.536523	-2.675803
H	1.122611	0.085553	-0.552624
N	-0.382008	-1.235715	-2.230688
O	0.783614	-1.265283	-2.599589
O	-1.212966	-2.118248	-2.406481
N	-2.228049	-0.099001	-1.231032
H	-2.371549	-0.958259	-0.709001
H	-2.517546	0.689348	-0.663924
N	-0.148952	-1.133587	0.51672
H	-0.825188	-0.943469	1.253716
H	0.776315	-1.283952	1.046404
C	-0.13719	1.355236	0.618252
H	0.554385	1.274099	1.459751
H	-1.157587	1.38983	1.020236
H	0.058724	2.281479	0.07208
H	2.077391	-1.061408	1.804809
