12

C	0.0	0.0	0.0
C	-0.524949	0.355184	-1.366676
Cl	1.77693	0.0	0.0
H	-0.215617	1.374766	-1.603505
H	-1.617132	0.288512	-1.326978
H	-0.113818	-0.338892	-2.098619
C	-0.428415	0.917188	1.053438
N	-0.663118	1.71935	1.87882
N	-0.39494	-1.433205	0.393206
O	-0.502095	-1.664074	1.588154
O	-0.47444	-2.236487	-0.523564
Br	-3.698854	0.0	0.0
