14
Coordinates from ORCA-job run
  C   0.49281975834273     -0.30599373406887     -0.06249039167325
  C   -0.99282611078836     -0.15137750783316      0.18120613241467
  Cl  1.35246213864093     -0.48977669935437      1.50566500944150
  H   -1.40354207661343     -1.08690028676339      0.55857930499781
  H   -1.48549663813802      0.12977252132238     -0.74840848376593
  N   0.70801510990147     -1.37310288567963     -0.96898873454194
  H   0.34447763629037     -2.24443770348883     -0.60394197331137
  H   1.69873420197870     -1.48082388222892     -1.15788042237725
  N   1.07115506388981      0.91658066702736     -0.79376041845787
  O   0.27368470413163      1.63168529358402     -1.38221408195398
  O   2.29036377198925      0.99907038157201     -0.81535091108453
  N   -1.34689777170794      0.89173298945504      1.19050437117812
  O   -0.60068282112014      1.85601236395824      1.30989584737958
  O   -2.40326696679703      0.70855848249812      1.78718475175443
