14
Coordinates from ORCA-job run
  C   0.50823897805990     -0.29006590749906      0.01259634347732
  C   -0.98940440281697     -0.16219972336256      0.18732041847870
  Cl  1.32448057676604     -0.12667730151481      1.60559815350618
  H   -1.46511018477440     -0.10245442552769     -0.79048651240827
  H   -1.37064255412016     -1.01993566612894      0.73991733277894
  N   0.79677364477513     -1.50130072545658     -0.66392263004804
  H   1.79705597081316     -1.59746073677865     -0.80227471384369
  H   0.45758795460139     -2.30103642737927     -0.14411802394634
  N   1.05637861413079      0.79403603466346     -0.92954979717559
  O   2.27033394747425      0.93462469913676     -0.93548994096566
  O   0.24780469771700      1.33737025023728     -1.66760494591422
  N   -1.42191498159953      1.04684553874666      0.95145516123943
  O   -0.71034577926534      2.04317080631180      0.90867880485766
  O   -2.50123648176127      0.94508358455159      1.52588034996359
