14
Coordinates from ORCA-job run
  C   0.47945875406481     -0.41654757776772      0.04626988030416
  C   -1.00525184945141     -0.16462925235467      0.23571533606220
  Cl  1.27243431788250     -0.65202194228957      1.59347779483099
  H   -1.46849772791448      0.06816314498611     -0.72431509153765
  H   -1.45667908435971     -1.04611730370983      0.68345452759312
  N   0.63546804972919     -1.57981114822039     -0.75848006283714
  H   1.60485098516756     -1.87175089666664     -0.79376381636188
  H   0.29466515289769     -1.40152677870779     -1.69669625191989
  N   1.11219264346187      0.81535388296180     -0.67703133049529
  O   0.53541194859820      1.08324279910277     -1.72774880634084
  O   2.11812238836936      1.34102378172316     -0.23882589149062
  N   -1.29302435431187      0.98652446385216      1.13785826637521
  O   -0.58534053887380      1.98190948432078      1.01613752703776
  O   -2.24181068525990      0.85718734276984      1.90394791877986
