14
Coordinates from ORCA-job run
  C   0.52800986918715     -0.22257003768186      0.11761699359508
  C   -0.62657076081995      0.75017617430533      0.32377293260234
  Cl  1.23722743216231     -0.74039476425441      1.66179157184836
  H   -0.86312893098956      1.25125079347944     -0.61507617137876
  H   -0.39204448013650      1.47084118699109      1.10054168574789
  N   0.15925701676614     -1.33717553174065     -0.63494355037202
  H   0.95066024780685     -1.91981470745395     -0.87150115122503
  H   -0.38839446182818     -1.10157919876522     -1.45210341613280
  N   1.67128397327254      0.62309222118356     -0.54857454395083
  O   1.75904882009477      1.80042720806339     -0.22210804456567
  O   2.39498176216988      0.02137761781199     -1.33026996625085
  N   -1.84290467177155     -0.00709619681389      0.72742359056349
  O   -2.57397559852519     -0.39067306089853     -0.18390215001568
  O   -2.01245021738872     -0.19686170422628      1.92733221953450
