14
Coordinates from ORCA-job run
  C   0.61912815897223     -0.16978807242021      0.08679511027910
  C   -0.68485865916454      0.64193099453745      0.16419044936115
  Cl  1.14996507751375     -0.54828947262137      1.71653861241055
  H   -1.04998898293569      0.83591162946571     -0.84473214504216
  H   -0.53756189124901      1.56665889599315      0.72024662335477
  N   0.65891366448910     -1.34145560538139     -0.71839667445366
  H   0.04387673196163     -2.04610978373507     -0.33188734270842
  H   0.35876583965604     -1.11808387425562     -1.66029133589209
  N   1.60328573843979      0.81575521630318     -0.58416200261549
  O   2.52575504227487      1.29252707564054      0.05221372862762
  O   1.31957795533456      1.04235379305577     -1.75811168353800
  N   -1.73818237473549     -0.12909941852433      0.87823998005616
  O   -2.05813037810696     -1.20975961750031      0.38445210849094
  O   -2.21054592245027      0.36644823944249      1.89590457166953
