14
Coordinates from ORCA-job run
  C   0.50594849834133     -0.28943251898985      0.04714458871324
  C   -0.51619355164130      0.76141962493582      0.46251916427091
  Cl  1.25078153626035     -1.07665457245337      1.45475120377915
  H   -0.15228280990785      1.34515446479756      1.30187511316827
  H   -0.75520844873198      1.40360926066136     -0.38535992191955
  N   -0.03294178815517     -1.25068787326402     -0.80709882975997
  H   0.67086313432037     -1.87541517212806     -1.17591644031205
  H   -0.60415688248577     -0.85483665195472     -1.54200406832881
  N   1.69236971418461      0.51419783078410     -0.59653298011764
  O   2.29531018775894     -0.05345196524299     -1.49709030486017
  O   1.92931593972059      1.62531135049128     -0.13851625902185
  N   -1.78134293297711      0.08711007477041      0.86334252768195
  O   -2.60763578590394     -0.09717454983125     -0.02853655984137
  O   -1.89382681078307     -0.23914930257625      2.04042276654789
