14
Coordinates from ORCA-job run
  C   0.51224291554617     -0.16252882775631     -0.08707322258355
  C   -0.66716393779433      0.69976457044977      0.33156354736677
  Cl  1.14381100679866     -0.99766940735226      1.40930604457385
  H   -1.09814953545488      1.17685488755861     -0.54993251331737
  H   -0.36843646159004      1.43439800534214      1.07062006149539
  N   0.24980554825254     -0.98375974796569     -1.18153803955301
  H   1.04361249268744     -1.56265757628430     -1.42188754678751
  H   -0.59641231625467     -1.52201633924165     -1.05101823755317
  N   1.66826912932575      0.75717324731260     -0.50684968244073
  O   2.60552394304724      0.20066778445197     -1.05774842238651
  O   1.56074275052357      1.95406743536087     -0.26899533700117
  N   -1.74160623068301     -0.13065610915374      0.95433892035437
  O   -2.14164055022914      0.21550557127865      2.05943916522297
  O   -2.17059875417529     -1.08114349400068      0.30077526260967
