14
Coordinates from ORCA-job run
  C   0.60167646403976     -0.21945157420083      0.09836191622285
  C   -0.64779808601053      0.67236819803891      0.18975300563655
  Cl  1.02432666817031     -0.77153071069932      1.71007277117223
  H   -0.94886516861404      0.97562053950937     -0.81340376375479
  H   -0.46725158534531      1.53401039632396      0.83083005516503
  N   0.60326851561773     -1.31838157080398     -0.80436653084384
  H   0.36569719267205     -0.99575751066763     -1.73521771323245
  H   -0.07447223105362     -2.00901758410132     -0.50816675853881
  N   1.68133710695801      0.74754917310792     -0.43926584454328
  O   1.47088572298874      1.09393015442206     -1.59935926589364
  O   2.60168028037572      1.10085388934284      0.27584453767018
  N   -1.78466396516110     -0.08007860269460      0.78628638735506
  O   -2.27363030272476      0.36004677945298      1.82140148535038
  O   -2.15019061191296     -1.09016157703036      0.18622971823454
