14
Coordinates from ORCA-job run
  C   0.56657193704045     -0.36726681599157     -0.02950300726952
  C   -0.48728975103526     -0.07468215125776      1.01911677874241
  Cl  1.84817982311820     -1.36567800165672      0.81469219181591
  H   -0.08544966255070      0.58382532577807      1.78627936094624
  H   -0.86410080129089     -1.00020131204001      1.44981279793307
  N   0.01936040713286     -0.92644952454321     -1.18027099589513
  H   -0.45377557487174     -1.80179332860105     -1.00311995067583
  H   0.68491547522326     -1.00124364023415     -1.93723452020624
  N   1.32088186126322      0.91296169699447     -0.42082871709483
  O   1.54785832915778      1.70927774302140      0.47505112861984
  O   1.67864426942045      0.99328302259874     -1.58798647474935
  N   -1.64223613528633      0.61123395328270      0.36937615472313
  O   -2.72077467168075      0.02470798606138      0.38427226903859
  O   -1.41178550564056      1.70302504658771     -0.13865701592830
