14
Coordinates from ORCA-job run
  C   0.48892763619607     -0.38111993506886      0.13770232165497
  C   -1.00717453010978     -0.14530713612293      0.24619709751920
  Cl  1.25393063265761     -0.25526656112045      1.71109059796505
  H   -1.44365107401007     -0.93253210806819      0.85523920830724
  H   -1.45162920404956     -0.12321108539834     -0.75005466857191
  N   0.69836638184583     -1.68163837837340     -0.39978742743529
  H   0.37080378967600     -1.71797225838800     -1.35870042032669
  H   1.67717341596843     -1.93966157311264     -0.36031466706678
  N   1.09825638813250      0.69345289254098     -0.82044418528327
  O   2.06118895935330      1.35398492133803     -0.47850185674832
  O   0.55186551148327      0.69687383808828     -1.92028958068260
  N   -1.34209832572171      1.15420700101491      0.89364439483555
  O   -0.70062155204805      2.13602225547753      0.53087077743926
  O   -2.25433802937384      1.14316812719308      1.71334840839359
