14
Coordinates from ORCA-job run
  C   0.51203016377294     -0.15997975007378     -0.09365295271051
  C   -0.67144575263494      0.71878133601075      0.27515653151414
  Cl  1.24339738647581     -0.77914529139155      1.46134457593075
  H   -0.35938220892118      1.54873287167660      0.89881865919293
  H   -1.16024418020727      1.07083513121790     -0.63464336730323
  N   0.22236285249796     -1.12161518490072     -1.05941442733931
  H   1.02274333260717     -1.70458733195285     -1.26610843705342
  H   -0.59571297192413     -1.66257618622762     -0.81212790314270
  N   1.61602374066055      0.72783391556410     -0.68760590718206
  O   1.48400374734160      1.94209872025624     -0.59488408156791
  O   2.54061439863278      0.12896017507319     -1.21502966088627
  N   -1.68905287455508     -0.04958282645299      1.05387215180527
  O   -2.10893436513188     -1.09498146620946      0.55866920533996
  O   -2.05740326861433      0.43622588741019      2.11660561340235
