14
Coordinates from ORCA-job run
  C   0.54096450801352     -0.19772639031688      0.10338123927256
  C   -0.63910464480703      0.74233660937565      0.31682263779476
  Cl  1.33751258790166     -0.61269485694457      1.63621514113450
  H   -0.39759052069896      1.50735403920891      1.04765737186485
  H   -0.93573677337906      1.18896716514364     -0.63236225487893
  N   0.18170212820079     -1.36032586119497     -0.57743102995147
  H   -0.41491217611230     -1.18614924396856     -1.37541408943459
  H   0.98325511560620     -1.92386022049319     -0.82561113009860
  N   1.62067676750543      0.65402415323878     -0.65476540820843
  O   1.67621427500045      1.84909547302840     -0.39158285387514
  O   2.33345645752291      0.03997756488558     -1.43692254346595
  N   -1.80714185529380     -0.03731062411081      0.81075451698347
  O   -1.91818277208321     -0.17231667774691      2.02482544769904
  O   -2.56111309737658     -0.49237113010508     -0.04756704483606
