14
Coordinates from ORCA-job run
  C   0.51101317160387     -0.16560298458257     -0.09014726056105
  C   -0.66150320664587      0.70011057296022      0.33940273815842
  Cl  1.14035892092332     -1.01623988261262      1.39983084580814
  H   -0.35627981978217      1.42369188464079      1.08669479315048
  H   -1.09000954796513      1.19299433444589     -0.53470310313733
  N   0.24246131585081     -0.97656909718388     -1.19008690036948
  H   1.03411386722140     -1.55499058320062     -1.43851489326857
  H   -0.60468578804189     -1.51362558495104     -1.06116530080958
  N   1.67206421864494      0.75107599714954     -0.50365483209950
  O   2.60387779057738      0.19422289046438     -1.06342212629003
  O   1.57331272530357      1.94596404617691     -0.25257964967349
  N   -1.74342184767729     -0.12697347911392      0.95419741592433
  O   -2.16827357874112     -1.07917497197081      0.30061437641914
  O   -2.15402822127181      0.22511685777774      2.05353389674850
