14
Coordinates from ORCA-job run
  C   0.57330557491932     -0.46358092507526      0.17323175492805
  C   -0.60905016893284      0.06894868261939      0.95937762712143
  Cl  1.76772852631581     -1.04511725985834      1.35709970824637
  H   -0.29549545452898      0.78603524605781      1.71227100093363
  H   -1.13003600080015     -0.76704492218760      1.42672014333050
  N   0.25127539949018     -1.50113518283222     -0.71363134957524
  H   1.08208581301886     -1.86060004760569     -1.16627800712681
  H   -0.39884393567994     -1.16160024101022     -1.41234378808240
  N   1.28034362084557      0.74766693070355     -0.51803731135169
  O   1.88569731987962      0.49444410555887     -1.54952588103452
  O   1.19437887396880      1.83496230817619      0.03797840016632
  N   -1.61196763511625      0.78073544291884      0.10473366257182
  O   -1.48995404084215      0.71722492659483     -1.11798037595297
  O   -2.49846789253786      1.36806093593985      0.70838441582553
