14
Coordinates from ORCA-job run
  C   0.55062323563272     -0.51671915102283      0.05943244827586
  C   -0.47691300793973      0.02629307274685      1.03356669046282
  Cl  1.83268784517998     -1.28299641324509      1.02652668930119
  H   -0.01472941690839      0.64866978308553      1.79402390690745
  H   -1.00300015837510     -0.80914176616738      1.49624767579007
  N   0.03761369769508     -1.44673257650346     -0.85616222216319
  H   -0.66519777666118     -1.00289414257339     -1.43500751027521
  H   0.77368514796070     -1.82316584407612     -1.43992899878645
  N   1.26122818156589      0.69847015524678     -0.62171892981269
  O   1.33230277204746      1.73641290820738      0.02368896508694
  O   1.71137267563450      0.49490702407746     -1.73997548271396
  N   -1.51612995585669      0.88201448893629      0.37701025820866
  O   -1.55699780498432      0.91462620544179     -0.85229818808251
  O   -2.26554543499090      1.47925625584620      1.13659469780101
