14
Coordinates from ORCA-job run
  C   0.66056697522303     -0.46834210315700      0.03352457634033
  C   -0.46879361439353     -0.04768344391835      0.98675343000139
  Cl  1.85925914392319     -1.30564609541594      1.02606604886278
  H   -0.08456372720147      0.57386101387224      1.79260404823651
  H   -0.97533800890660     -0.93629584721092      1.36149103243821
  N   0.35616067553479     -1.25945493910114     -1.09748431708659
  H   0.05422366771924     -2.18262280025044     -0.81611330193973
  H   -0.34852338430446     -0.82170050315729     -1.67692332447723
  N   1.25869822943752      0.86565921530928     -0.46891898878999
  O   0.93985395674446      1.18991288002700     -1.60624812228375
  O   1.91189331900055      1.51861991556128      0.32991938086695
  N   -1.47613204445372      0.75861294797979      0.24037571588815
  O   -2.22260159780055      0.14021527345112     -0.51856807993946
  O   -1.46370359052243      1.97486448601038      0.41352190188243
