14
Coordinates from ORCA-job run
  C   0.48922605787364     -0.30874433563776     -0.07903000492613
  C   -0.98681010108907     -0.14631584652670      0.21350655278192
  Cl  1.39780848423422     -0.50217920376935      1.46033321404441
  H   -1.50789372319152      0.13921201678453     -0.69913330100805
  H   -1.39002721777105     -1.08031288712009      0.60254242118408
  N   0.66813100958625     -1.37461415181568     -0.99456288312296
  H   1.65121287668530     -1.48841040742872     -1.21667937731483
  H   0.30996297252877     -2.24462638349973     -0.62127858712123
  N   1.05104460087186      0.91198331167690     -0.82536625345398
  O   0.23916836462585      1.63408042754256     -1.38470057109877
  O   2.26929179925894      0.98657468561642     -0.88698525364366
  N   -1.30241210188232      0.89692115083249      1.23533898013532
  O   -0.54610099268273      1.85552557508958      1.33396466939151
  O   -2.34160202904813      0.71990604825555      1.86305039415236
