14
Coordinates from ORCA-job run
  C   0.50995197693713     -0.36988771663891      0.07891134427468
  C   -0.93900357182767     -0.10920618924817      0.45068519905747
  Cl  1.56424891192482     -0.08911587095674      1.45254886604849
  H   -1.56875719490498     -0.18606009095179     -0.43702507793144
  H   -1.24092691111406     -0.82426150849697      1.21141580317806
  N   0.62516319838879     -1.72084671494337     -0.35150903388834
  H   0.11781789828876     -1.85352354340502     -1.21937791688455
  H   1.59562729407570     -1.98297111115911     -0.47684435038920
  N   0.91035537920833      0.59377728189889     -1.08496121155844
  O   0.15985563686893      0.49048717845040     -2.05150664457196
  O   1.91568347450728      1.27480735333785     -1.00745771703172
  N   -1.15486068068323      1.25375367301383      1.01254699358544
  O   -0.60643278403459      2.18639029007930      0.43258330635427
  O   -1.88972262763521      1.33665696901982      1.99099043975724
