14
Coordinates from ORCA-job run
  C   0.58725445512710     -0.46027929967150      0.12806308939645
  C   -0.68638347781435     -0.15920721809342      0.89398679970515
  Cl  1.72034891648279     -1.21272367834890      1.27559371239615
  H   -0.48172654855712      0.40243862007872      1.80064808435951
  H   -1.18586719740715     -1.09785376451894      1.13525316559317
  N   0.40654634307131     -1.30880577425223     -0.97385744051069
  H   1.29279320670641     -1.52489844161799     -1.41233308508200
  H   -0.20849180520834     -0.86640091425719     -1.64626943898354
  N   1.26447962358712      0.89991485094942     -0.23976892658329
  O   1.06095639160317      1.84533647007956      0.51096479758690
  O   1.96660605193477      0.89289353821580     -1.24054852829950
  N   -1.66372751733047      0.66290021228664      0.11186196923716
  O   -2.63103718900692      1.07150253175999      0.73844850612093
  O   -1.44275125318833      0.85618286739004     -1.08304270493640
