14
Coordinates from ORCA-job run
  C   0.60766538439279     -0.26944192066093      0.00190610896312
  C   -0.85276127186286     -0.16240103631522      0.42748328767372
  Cl  1.64872578590018      0.13836610127251      1.35287942467817
  H   -1.06389132549124     -0.90646375017106      1.19305606478294
  H   -1.49220790060690     -0.30051825121320     -0.44565512997000
  N   0.97312947574881     -1.55547717556833     -0.51017069597393
  H   1.00978608103234     -2.24579716167270      0.22776348854737
  H   0.33601412840635     -1.84245488280441     -1.24350576481538
  N   0.84785963194456      0.68668002059959     -1.18396727689851
  O   0.11032844464366      0.43998974181796     -2.13365071546467
  O   1.72284735486419      1.52734574649536     -1.12787805877640
  N   -1.19418702032541      1.16692966178408      1.00907548305714
  O   -1.80418147606264      1.17394694412379      2.07340414888807
  O   -0.84912729258384      2.14929596231255      0.35825963530836
