14
Coordinates from ORCA-job run
  C   0.55036117369198     -0.17603426036961      0.09064394392213
  C   -0.66124513148999      0.71541903191502      0.33377392102708
  Cl  1.39600685877352     -0.56458314447327      1.60418706595566
  H   -0.43415123963639      1.48715975426545      1.06214945418320
  H   -0.99589279458068      1.15318612772283     -0.60686546214240
  N   0.22258496282982     -1.35012084558833     -0.58687008955214
  H   -0.39633830222255     -1.19642184319327     -1.37205292916298
  H   1.04077693465945     -1.87984540293103     -0.85470331169410
  N   1.57864956515695      0.71979114612383     -0.68678292662662
  O   1.59205033773856      1.91545428588669     -0.42077324201455
  O   2.29891697443230      0.13661466084893     -1.48548537581000
  N   -1.78614181587365     -0.11185144417885      0.85013843919635
  O   -2.54033739842646     -0.59365803059298      0.00687062695489
  O   -1.86424012505285     -0.25511003543541      2.06576988576348
