14
Coordinates from ORCA-job run
  C   0.47782547068399     -0.16693859836926     -0.20170686058668
  C   -0.54157282274130      0.61123513938790      0.61334805319373
  Cl  1.16725459880834     -1.46856011576418      0.87893737245407
  H   -1.00571011300099      1.37266692817155     -0.01545150658045
  H   -0.08161669211914      1.05365480975360      1.48964704888684
  N   0.00647388966487     -0.58819640094083     -1.44303912290550
  H   0.69922249393704     -1.12178287499145     -1.95142536580876
  H   -0.87520099701819     -1.07691399821324     -1.36168355408950
  N   1.67982508490408      0.74662822971208     -0.48497636611885
  O   1.73708066579607      1.81572093560194      0.11019413027879
  O   2.48130147071796      0.31752899663421     -1.30055067522309
  N   -1.63388247917306     -0.28310553396408      1.10245075806330
  O   -2.22913607594301     -0.95937587561891      0.26414570189592
  O   -1.88086449451667     -0.25256164139933      2.30211038654018
