14
Coordinates from ORCA-job run
  C   0.59283415527400     -0.24884693966186     -0.08477882115787
  C   -0.56019310936350      0.57459311352603      0.51432865063012
  Cl  1.21555323513656     -1.33450167229789      1.14684816614861
  H   -0.98538606594358      1.21368196591325     -0.26008760676233
  H   -0.22225775437257      1.15336600375010      1.37271871093935
  N   0.37489098891944     -0.96551522550938     -1.29313847196590
  H   -0.29875817056054     -1.70494877396417     -1.14006086603907
  H   0.02401442270455     -0.33590498546451     -2.00543265432325
  N   1.64425510649783      0.82889104954827     -0.43285762231379
  O   2.67546188822647      0.91071045048343      0.20996255715451
  O   1.29414970214058      1.54903349389076     -1.36491867274532
  N   -1.64566534260571     -0.32175138866227      0.99606394794607
  O   -1.92911312962923     -0.27770093416965      2.18855819572450
  O   -2.17978592642431     -1.04010615738212      0.15179448676437
