14
Coordinates from ORCA-job run
  C   0.58299113130912     -0.33113664026919      0.08448003194012
  C   -0.62001154641759     -0.00870765880638      0.94732463017833
  Cl  1.78457111578286     -1.15907444209848      1.18980486409316
  H   -1.00574982629760     -0.91134908510101      1.41689912347969
  H   -0.36270187168494      0.74438978968444      1.68911831694505
  N   0.23019286526829     -1.03162396333407     -1.06530475521690
  H   -0.21660082013156     -1.91523812650226     -0.86236451309643
  H   0.99828561518931     -1.13565625194785     -1.71403494963563
  N   1.31767983444576      0.95270555714287     -0.33333550348881
  O   1.82729641351551      0.94549360880149     -1.44543251755437
  O   1.37827392578054      1.84280042210645      0.49870924809940
  N   -1.70640469688462      0.53586035554654      0.08153667885231
  O   -1.46574895885187      1.58961886494502     -0.49723476624780
  O   -2.74307318102318     -0.11808243016757      0.00883411165190
