14
Coordinates from ORCA-job run
  C   0.58994648872688     -0.26351516053973     -0.04517127737606
  C   -0.56632995075228      0.62451918090775      0.44439064436471
  Cl  1.15935772404044     -1.24418627200547      1.29480047010677
  H   -0.96123289425474      1.19734337503413     -0.39516909462209
  H   -0.24273144718538      1.27536643857210      1.25537360028633
  N   0.39735814877663     -1.08018995003593     -1.19347189058805
  H   0.07636967558270     -0.51017341342377     -1.96751079586674
  H   -0.29313409077018     -1.79350612473638     -0.99711468461345
  N   1.66880209377880      0.76449479099882     -0.45563129458832
  O   2.69290769733472      0.87402789165352      0.19438714635487
  O   1.34857745009208      1.41688959438464     -1.44655682829050
  N   -1.67756452488681     -0.21007395368139      0.97543437622093
  O   -2.00148461203517     -0.04316537568628      2.14655148750425
  O   -2.19084175844768     -1.00583102144201      0.18968814110735
