14
Coordinates from ORCA-job run
  C   0.57296911889021     -0.23886631384344      0.13251564350657
  C   -0.90750344477550     -0.23007785034727      0.46981068389348
  Cl  1.51143448075130      0.46540574792487      1.43639139167916
  H   -1.07427792987979     -0.86469989532381      1.33618078336384
  H   -1.48487299257558     -0.57404409016318     -0.38976766731440
  N   0.97516092241998     -1.58691808907300     -0.08012554496834
  H   0.52985985348354     -1.95496579596423     -0.91343326441282
  H   1.98190155448504     -1.65800080224838     -0.16759036897893
  N   0.79575037261331      0.59329648538071     -1.17217603578870
  O   1.63582974679217      1.47274210325820     -1.20960591895037
  O   0.10987800384788      0.18504242453640     -2.10550513487111
  N   -1.41434687672805      1.12900646397700      0.81013417712150
  O   -1.05664018074114      2.05230383133573      0.08438914780510
  O   -2.17514262858337      1.20977578055040      1.76878210791502
