14
Coordinates from ORCA-job run
  C   0.53876333469207     -0.33327554604670      0.04360416898329
  C   -0.87737568629918     -0.13621759040960      0.55492584635048
  Cl  1.71031469412911      0.09345357111102      1.27734689493874
  H   -1.05051891667688     -0.81965041669239      1.38203637800118
  H   -1.58986296933005     -0.30595491507437     -0.25384278434056
  N   0.69600854903584     -1.69936909095856     -0.32130958050475
  H   1.66356642719050     -1.91166067168774     -0.53323366450811
  H   0.11226812734049     -1.91460930815647     -1.12194810921457
  N   0.75179607884428      0.57808654146681     -1.20859172016939
  O   -0.08691953595672      0.37003336551517     -2.08124290385604
  O   1.71258813390966      1.32136807123288     -1.27789426884604
  N   -1.12345146930368      1.24379442055666      1.05990129505363
  O   -1.76083768897470      1.34361818721366      2.10296419551202
  O   -0.69733907860073      2.16938338192963      0.37528425260011
