14
Coordinates from ORCA-job run
  C   0.66478580565246     -0.46241847166334      0.02935826275723
  C   -0.47196715716072     -0.06637345108275      0.98428327448853
  Cl  1.86681598617289     -1.30418552095691      1.01466343460785
  H   -0.09641543665199      0.54721232665249      1.80025972006584
  H   -0.97136395511444     -0.96504534960079      1.34422973213753
  N   0.37164972868198     -1.23976817908480     -1.11420882252294
  H   -0.33224926818105     -0.79817692490985     -1.69172400394565
  H   0.07275586382096     -2.16811434828885     -0.84684651526078
  N   1.25322208657122      0.88359072562500     -0.45092489452375
  O   1.89581534029470      1.53110049783596      0.36077172196539
  O   0.93806571531317      1.22070777781364     -1.58551399257146
  N   -1.48391584085294      0.74130482346340      0.24547646870990
  O   -2.22235748044357      0.12711248333832     -0.52454489910006
  O   -1.48284138810266      1.95505361085848      0.43572051319237
