14

C	0.0	0.0	0.0
C	-0.529315	-0.016428	-1.438704
Cl	1.781537	0.0	0.0
H	-1.629892	-0.105654	-1.262015
H	-0.276088	-0.954985	0.465032
N	-0.565182	1.151746	0.642019
H	-0.360344	1.098657	1.633166
H	-1.593995	0.950333	0.548118
C	-0.074344	-1.204954	-2.160302
N	0.271927	-2.169922	-2.733477
N	-0.260497	1.182123	-2.219703
H	0.736231	1.373732	-2.17216
H	-0.720723	1.941607	-1.728666
H	-2.977021	0.0	0.0
