14

C	0.0	0.0	0.0
C	-0.693585	-0.013827	-1.320578
Cl	1.848215	0.0	0.0
H	-1.852816	-0.065348	-0.878263
H	-0.231475	-0.925847	0.530424
N	-0.449603	1.121912	0.729917
H	0.080121	1.270092	1.575809
H	-0.432147	1.938145	0.127935
C	-0.370891	-1.171261	-2.126287
N	-0.142193	-2.092973	-2.827014
N	-0.509947	1.257223	-2.013404
H	-1.31479	1.436537	-2.595111
H	0.307049	1.21436	-2.609757
H	-3.028437	0.0	0.0
