14

C	0.0	0.0	0.0
C	-0.379526	0.170463	-1.505562
Cl	1.780422	0.0	0.0
H	0.382836	-0.383042	-2.063412
H	-0.267824	-1.031545	0.264023
N	-0.594118	1.0049	0.821741
H	-1.611918	0.899852	0.65866
H	-0.437626	0.764611	1.79539
C	-0.193815	1.582338	-1.894576
N	-0.017772	2.6903	-2.239043
N	-1.672314	-0.309853	-1.946051
H	-1.633685	-1.325338	-1.936163
H	-2.41002	-0.073779	-1.233719
H	-3.321309	0.0	0.0
