14

C	0.0	0.0	0.0
C	-0.524891	-0.103049	-1.439127
Cl	1.780471	0.0	0.0
H	-1.624577	-0.180792	-1.264511
H	-0.277413	-0.923965	0.522752
N	-0.566501	1.190895	0.564984
H	-0.347533	1.212937	1.555693
H	-1.595817	0.981339	0.493333
C	-0.063863	-1.330206	-2.089384
N	0.305565	-2.317433	-2.607782
N	-0.251845	1.049787	-2.286783
H	-0.698724	1.839203	-1.828932
H	0.748196	1.234908	-2.256577
H	-2.98603	0.0	0.0
