17

C	0.0	0.0	0.0
C	-0.48924	-0.130483	-1.437198
F	1.368663	0.0	0.0
H	0.098708	-0.999974	-1.787154
N	-0.293229	1.371586	0.631903
O	0.338545	2.311333	0.152586
O	-1.034683	1.449959	1.602633
C	-0.445371	-1.106254	0.919164
H	-1.524092	-1.01784	1.027084
H	-0.17388	-2.060778	0.458115
H	0.08008	-1.00827	1.872065
N	-0.207278	1.067534	-2.228112
H	-0.453584	0.846085	-3.185056
H	0.783052	1.279157	-2.181604
C	-1.918015	-0.493688	-1.668252
N	-2.59563	-0.886996	-2.564355
F	-2.669612	0.0	0.0
