17

C	0.0	0.0	0.0
C	-0.675419	0.105293	-1.355242
F	1.362991	0.0	0.0
H	-1.730877	0.364543	-1.025509
N	-0.310365	1.293018	0.779881
O	-0.734163	2.267246	0.166172
O	-0.020112	1.289469	1.973927
C	-0.505588	-1.169697	0.797058
H	-1.597492	-1.070211	0.811041
H	-0.068786	-1.133037	1.794302
H	-0.200505	-2.076914	0.277132
N	-0.720056	-1.216054	-2.002806
H	-0.328518	-1.174956	-2.932016
H	-1.698698	-1.468968	-2.057236
C	-0.059257	1.095814	-2.226567
N	0.421571	1.821847	-3.016224
F	-2.929133	0.0	0.0
