17

C	0.0	0.0	0.0
C	-0.341609	0.096991	-1.527066
F	1.367789	0.0	0.0
H	0.418405	0.792103	-1.90048
N	-0.343549	1.345679	0.641624
O	-0.598457	1.365707	1.839245
O	-0.223676	2.34334	-0.068718
C	-0.614583	-1.117387	0.768044
H	-1.705414	-0.944666	0.701932
H	-0.267977	-1.099967	1.801498
H	-0.335407	-2.06264	0.299265
N	-1.638281	0.518471	-1.983052
H	-1.645054	1.529035	-1.918212
H	-2.367632	0.198982	-1.275528
C	0.007561	-1.216708	-2.108172
N	0.285316	-2.248364	-2.595756
F	-3.106817	0.0	0.0
