17

C	0.0	0.0	0.0
C	-0.638548	0.106669	-1.380026
F	1.362169	0.0	0.0
H	-1.686227	0.400297	-1.087304
N	-0.304983	1.296213	0.776917
O	-0.799681	2.245647	0.183977
O	0.07061	1.312497	1.947059
C	-0.508446	-1.15998	0.812422
H	-0.096228	-1.089336	1.818769
H	-0.169683	-2.091326	0.353063
H	-1.602672	-1.060319	0.791418
N	-0.76645	-1.163104	-2.086966
H	0.078179	-1.717454	-1.995484
H	-1.537719	-1.649775	-1.643104
C	0.061509	1.075045	-2.224758
N	0.630229	1.827646	-2.925694
F	-2.874222	0.0	0.0
