17

C	0.0	0.0	0.0
C	-0.345002	0.14573	-1.526594
F	1.374919	0.0	0.0
H	-0.095558	1.184394	-1.769505
N	-0.386507	1.263069	0.761399
O	-0.425399	1.167572	1.984561
O	-0.537997	2.305683	0.132086
C	-0.595744	-1.199722	0.655203
H	-1.686844	-1.039367	0.623829
H	-0.232403	-1.29491	1.677817
H	-0.310931	-2.084386	0.078752
N	-1.66819	-0.160901	-2.013096
H	-2.377506	0.075928	-1.245478
H	-1.744378	-1.170619	-2.087046
C	0.624872	-0.69524	-2.255273
N	1.332173	-1.401277	-2.872641
F	-3.136334	0.0	0.0
