17

C	0.0	0.0	0.0
C	-0.481081	-0.073395	-1.446026
F	1.368719	0.0	0.0
H	0.145349	-0.899698	-1.833332
N	-0.318497	1.300044	0.73069
O	0.172663	2.315093	0.240233
O	-0.912467	1.252776	1.798493
C	-0.409881	-1.193533	0.830909
H	0.139663	-1.169144	1.773212
H	-0.128349	-2.094683	0.279453
H	-1.486331	-1.146623	0.973645
N	-0.255579	1.166318	-2.195472
H	-0.467231	0.957352	-3.164855
H	0.720943	1.426515	-2.123032
C	-1.888548	-0.500657	-1.680065
N	-2.564722	-0.969862	-2.538134
F	-2.617993	0.0	0.0
