12

C	-0.460601	0.039776	-1.434868
C	0.0	0.0	0.0
F	-1.795667	0.451026	-1.553023
H	1.100488	0.0	0.0
H	0.149624	0.758768	-1.990268
H	-0.33587	0.937729	0.454789
C	-0.358202	-1.275714	-2.091775
N	-0.323592	-2.322645	-2.618514
N	-0.572056	-1.155217	0.708452
H	0.168245	-1.852853	0.76409
H	-0.764722	-0.88287	1.66621
H	2.96129	0.0	0.0
