12

C	-0.511828	0.060745	-1.429477
C	0.0	0.0	0.0
F	-0.162154	-1.076327	-2.145357
H	1.092506	0.0	0.0
H	-1.609831	0.106575	-1.443543
H	-0.370209	-0.933021	0.438824
C	-0.031205	1.254786	-2.15306
N	0.309092	2.204914	-2.752357
N	-0.430576	1.159389	0.776266
H	0.292738	1.865298	0.71324
H	-1.302727	1.555836	0.449433
H	2.945601	0.0	0.0
