12

C	-0.476835	-0.015498	-1.430835
C	0.0	0.0	0.0
F	-0.194566	1.202656	-2.045105
H	1.100331	0.0	0.0
H	0.054533	-0.792084	-1.989652
H	-0.339447	-0.929398	0.47276
C	-1.932098	-0.238553	-1.549797
N	-3.07862	-0.461079	-1.665405
N	-0.604656	1.145821	0.695491
H	-0.116	1.967106	0.353173
H	-0.335938	1.069405	1.670776
H	3.004073	0.0	0.0
