12

C	-0.456663	0.046973	-1.436043
C	0.0	0.0	0.0
F	-1.787619	0.471053	-1.559627
H	1.100634	0.0	0.0
H	0.162982	0.760329	-1.988232
H	-0.336851	0.935229	0.459161
C	-0.365143	-1.266868	-2.09812
N	-0.331093	-2.303243	-2.645476
N	-0.578159	-1.157009	0.70158
H	0.143196	-1.871977	0.716047
H	-0.725866	-0.901611	1.669146
H	2.964629	0.0	0.0
