17

C	0.0	0.0	0.0
C	-0.514692	0.589106	-1.372065
Cl	1.79881	0.0	0.0
H	0.398542	0.784389	-1.941397
C	-0.411872	0.786022	1.166021
N	-0.70031	1.397191	2.127282
C	-0.396256	-1.395931	0.212272
N	-0.649065	-2.532977	0.364492
C	-1.255715	1.909817	-1.179344
H	-0.643094	2.649865	-0.656864
H	-2.19225	1.74871	-0.638603
H	-1.501512	2.312571	-2.166317
C	-1.363627	-0.414421	-2.147351
H	-0.81908	-1.341828	-2.344676
H	-1.630075	0.028539	-3.111473
H	-2.288749	-0.631577	-1.608402
Br	-4.314344	0.0	0.0
