17

C	0.0	0.0	0.0
C	-0.495896	-0.555285	-1.395566
Cl	1.798533	0.0	0.0
H	0.426915	-0.775134	-1.939916
C	-0.407457	1.38577	0.251093
N	-0.617145	2.527755	0.430689
C	-0.407382	-0.830963	1.136851
N	-0.650697	-1.506793	2.066442
C	-1.278347	0.490789	-2.185264
H	-1.50788	0.074907	-3.170675
H	-2.220994	0.719584	-1.682938
H	-0.700232	1.4076	-2.332449
C	-1.284202	-1.85389	-1.247426
H	-0.701714	-2.625783	-0.73596
H	-1.528029	-2.22396	-2.247386
H	-2.221056	-1.67222	-0.716155
Br	-4.187413	0.0	0.0
