17

C	0.0	0.0	0.0
C	-0.496611	0.343262	-1.44829
Cl	1.798718	0.0	0.0
H	0.350399	0.085453	-2.091422
C	-0.429587	0.964616	1.015174
N	-0.698931	1.774126	1.823923
C	-0.384299	-1.355498	0.407196
N	-0.591563	-2.47054	0.714125
C	-0.782219	1.835549	-1.573784
H	-1.691132	2.089387	-1.02388
H	-0.947883	2.077491	-2.626657
H	0.043117	2.452982	-1.209823
C	-1.698623	-0.492729	-1.872302
H	-2.55228	-0.385931	-1.19577
H	-1.438099	-1.550508	-1.953374
H	-2.024315	-0.149127	-2.857648
Br	-4.723869	0.0	0.0
