17

C	-0.293849	0.041341	-1.507127
C	0.0	0.0	0.0
Br	0.113953	-1.734423	-2.320579
H	1.092143	0.0	0.0
N	-1.793122	0.314261	-1.802981
O	-2.534673	-0.593705	-2.152225
O	-2.149775	1.472996	-1.582228
N	0.497193	1.079149	-2.012256
H	0.548011	1.060379	-3.021921
H	1.441862	0.974091	-1.609473
N	-0.619493	-1.20651	0.622338
O	-1.850909	-1.186119	0.705978
O	0.103807	-2.108211	1.031549
N	-0.400525	1.141076	0.756218
H	-1.234682	1.581927	0.393259
H	0.368759	1.800475	0.746794
H	2.692339	0.0	0.0
