17

C	-0.581807	0.033257	-1.395838
C	0.0	0.0	0.0
Br	0.320839	1.463223	-2.412333
H	1.087251	0.0	0.0
N	-0.196905	-1.240465	-2.190796
O	-0.922651	-1.514442	-3.146192
O	0.806451	-1.844502	-1.847525
N	-1.973439	0.290588	-1.440139
H	-2.420007	-0.483169	-0.955795
H	-2.286969	0.302622	-2.403873
N	-0.464498	-1.208312	0.702781
O	-1.264664	-1.984284	0.134375
O	0.009361	-1.412679	1.816598
N	-0.319046	1.161804	0.775876
H	0.531918	1.714585	0.853219
H	-1.064422	1.697872	0.351981
H	2.501082	0.0	0.0
