17

C	-0.620673	0.007485	-1.383299
C	0.0	0.0	0.0
Br	0.191748	1.635158	-2.351586
H	1.094976	0.0	0.0
N	-0.173137	-1.112143	-2.313263
O	0.988752	-1.472618	-2.245576
O	-1.016335	-1.512006	-3.114314
N	-2.004609	0.058681	-1.328378
H	-2.263579	0.801271	-0.688764
H	-2.434496	0.148396	-2.238525
N	-0.389772	-1.196463	0.704913
O	-0.434755	-1.147195	1.952006
O	-0.508021	-2.249552	0.053067
N	-0.431877	1.191492	0.712591
H	-0.602288	0.883788	1.666141
H	0.390456	1.794453	0.750847
H	2.429807	0.0	0.0
