17

C	-0.260862	0.019028	-1.5105
C	0.0	0.0	0.0
Br	0.248642	-1.694421	-2.259345
H	1.097476	0.0	0.0
N	-1.718404	0.328081	-1.889757
O	-2.425098	-0.482367	-2.461839
O	-2.071238	1.465176	-1.558171
N	0.545731	1.030263	-2.141454
H	1.506509	0.83288	-1.825376
H	0.282932	1.915765	-1.718717
N	-0.630235	-1.170517	0.671821
O	-0.02739	-1.695984	1.600647
O	-1.761567	-1.488733	0.289183
N	-0.348877	1.169659	0.742349
H	-1.09898	1.711197	0.343505
H	0.485963	1.718699	0.906005
H	2.663553	0.0	0.0
