14

C	0.0	0.0	0.0
C	-0.249643	-0.169625	-1.536766
F	1.377889	0.0	0.0
H	0.380096	-1.026377	-1.822509
H	-0.398123	0.919047	0.421094
C	-0.388621	-1.160804	0.798868
N	-0.543133	-2.037144	1.562333
N	0.497498	1.015851	-2.16695
O	0.21649	2.140406	-1.75248
O	1.265887	0.781155	-3.102564
N	-1.527094	-0.160989	-2.127331
H	-2.210116	0.08057	-1.334339
H	-1.772676	-1.097474	-2.417294
H	-2.732459	0.0	0.0
