14

C	0.0	0.0	0.0
C	-0.54159	-0.262658	-1.418113
F	1.379996	0.0	0.0
H	-1.482023	-0.807173	-1.280929
H	-0.364602	0.97206	0.326362
C	-0.413097	-1.017607	0.987871
N	-0.505941	-1.838015	1.824928
N	0.449573	-1.155764	-2.112819
O	1.030244	-0.74683	-3.115002
O	0.621214	-2.260395	-1.599048
N	-0.828597	0.898383	-2.195965
H	-1.712259	1.230942	-1.811614
H	-0.11612	1.607428	-2.072568
H	-2.731311	0.0	0.0
