14

C	0.0	0.0	0.0
C	-0.515836	-0.362254	-1.421953
F	1.380118	0.0	0.0
H	-1.30661	-1.096596	-1.322774
H	-0.357077	0.992048	0.264488
C	-0.440211	-0.965816	1.021286
N	-0.462196	-1.757045	1.893577
N	0.627044	-1.04887	-2.127787
O	1.332454	-0.392369	-2.888235
O	0.79544	-2.236467	-1.85153
N	-1.001683	0.7239	-2.213641
H	-1.880908	0.951495	-1.737861
H	-0.373445	1.517028	-2.142902
H	-2.603488	0.0	0.0
