14

C	0.0	0.0	0.0
C	-0.54785	0.011956	-1.398319
F	1.383047	0.0	0.0
H	-1.685448	-0.029209	-1.112149
H	-0.365546	0.91864	0.462683
C	-0.417058	-1.136068	0.846244
N	-0.506527	-1.999799	1.63697
N	-0.160969	-1.216198	-2.137349
O	0.379241	-1.093318	-3.249201
O	-0.457742	-2.304095	-1.633106
N	-0.162723	1.214843	-2.06041
H	0.809795	1.156043	-2.335983
H	-0.706288	1.316132	-2.904897
H	-2.757699	0.0	0.0
