14

C	0.0	0.0	0.0
C	-0.566886	-0.174551	-1.409284
F	1.37999	0.0	0.0
H	-1.596389	-0.547864	-1.215886
H	-0.365781	0.95602	0.373862
C	-0.412159	-1.049889	0.954677
N	-0.494739	-1.863167	1.799414
N	0.251595	-1.210643	-2.113737
O	0.818401	-0.928893	-3.166499
O	0.302855	-2.311299	-1.564348
N	-0.679869	1.018428	-2.182407
H	0.103849	1.642729	-2.036545
H	-1.53844	1.4649	-1.866589
H	-2.798323	0.0	0.0
