14

C	0.0	0.0	0.0
C	-0.564153	-0.126459	-1.422253
Cl	1.782376	0.0	0.0
H	-1.686244	-0.071615	-1.253495
C	-0.438076	1.201205	0.724288
N	-0.610108	2.141834	1.408281
C	-0.406813	-1.191672	0.761024
N	-0.588786	-2.149244	1.418216
C	-0.179783	-1.380304	-2.042049
N	0.119362	-2.407954	-2.527683
N	-0.179876	1.018011	-2.30907
O	-0.231151	0.81159	-3.517524
O	0.086825	2.084969	-1.767404
Cl	-3.240207	0.0	0.0
