16

C	-0.614201	-0.078183	-1.37809
C	0.0	0.0	0.0
Cl	0.229613	-1.217709	-2.43151
H	1.089983	0.0	0.0
H	-1.664526	-0.35503	-1.363958
N	-0.586972	1.300751	-1.992619
O	0.436038	1.702523	-2.529979
O	-1.628075	1.947182	-1.84428
N	-0.492141	-1.145381	0.797151
O	-1.347397	-1.906112	0.3161
O	-0.017908	-1.285202	1.925477
C	-0.303613	1.286722	0.761094
H	-1.368784	1.520329	0.851988
H	0.214313	2.107074	0.262937
H	0.147634	1.18036	1.746997
F	2.505271	0.0	0.0
