16

C	-0.52951	0.076545	-1.401908
C	0.0	0.0	0.0
Cl	-2.31411	0.031623	-1.50506
H	1.092698	0.0	0.0
H	-0.212657	1.027982	-1.824193
N	0.061928	-0.942902	-2.367436
O	1.224905	-0.698387	-2.665317
O	-0.619775	-1.865679	-2.788637
N	-0.43322	-1.239562	0.660516
O	-0.363978	-2.280049	0.002182
O	-0.783925	-1.193746	1.843163
C	-0.379222	1.224305	0.807292
H	-0.008033	2.105849	0.278343
H	0.135447	1.178634	1.765729
H	-1.45413	1.32158	0.980574
F	2.491526	0.0	0.0
