16

C	-0.534431	0.089993	-1.398229
C	0.0	0.0	0.0
Cl	-2.312967	0.249278	-1.485738
H	1.092702	0.0	0.0
H	-0.113542	0.986851	-1.850014
N	-0.072326	-1.022052	-2.334988
O	1.130746	-0.99058	-2.559772
O	-0.881652	-1.80272	-2.813884
N	-0.452626	-1.220317	0.677583
O	-0.560248	-2.245404	-0.001195
O	-0.636022	-1.18152	1.89696
C	-0.33613	1.237472	0.810643
H	-1.39985	1.332119	1.044587
H	-0.004763	2.113927	0.24808
H	0.237593	1.205706	1.73544
F	2.488297	0.0	0.0
