16

C	-0.558914	0.045009	-1.408342
C	0.0	0.0	0.0
Cl	0.309495	-1.025214	-2.514413
H	1.089998	0.0	0.0
H	-1.614737	-0.211175	-1.457076
N	-0.484111	1.463248	-1.925953
O	-1.489627	2.144637	-1.70645
O	0.533756	1.854453	-2.475603
N	-0.473243	-1.249551	0.644944
O	-1.226272	-2.009514	0.016951
O	-0.085125	-1.47504	1.791978
C	-0.38226	1.172208	0.885099
H	0.114296	2.069837	0.513175
H	0.023837	0.968481	1.875352
H	-1.461196	1.352346	0.946964
F	2.506109	0.0	0.0
