16

C	-0.379766	0.100138	-1.454446
C	0.0	0.0	0.0
Cl	0.34146	1.516803	-2.22126
H	1.098171	0.0	0.0
H	-0.056879	-0.784138	-1.992564
N	-1.881241	0.162569	-1.640303
O	-2.425619	-0.897755	-1.952195
O	-2.463732	1.217461	-1.403195
N	-0.373872	-1.346031	0.488379
O	-0.187059	-2.30913	-0.260949
O	-0.781368	-1.452517	1.649646
C	-0.512431	1.088672	0.909118
H	-0.268268	2.055817	0.469698
H	-1.589416	1.039393	1.085676
H	0.00605	1.009367	1.864256
F	2.495091	0.0	0.0
