16

C	-0.438391	-0.378957	-1.389114
C	0.0	0.0	0.0
Cl	0.35965	0.59501	-2.621426
H	1.104185	0.0	0.0
H	-0.231262	-1.425503	-1.583857
N	-1.941997	-0.230203	-1.533944
O	-2.415993	0.865317	-1.816244
O	-2.593124	-1.239788	-1.262486
N	-0.367026	-1.089736	0.930556
O	-0.226845	-2.255294	0.551397
O	-0.710256	-0.781766	2.075649
C	-0.478551	1.34546	0.48993
H	-0.250537	2.092538	-0.271519
H	-1.548183	1.375271	0.710467
H	0.075008	1.601729	1.391532
F	2.494659	0.0	0.0
