16

C	-0.46547	0.004612	-1.432067
C	0.0	0.0	0.0
Cl	0.437079	1.145804	-2.420381
H	1.092966	0.0	0.0
H	-0.374586	-0.985877	-1.867288
N	-1.948246	0.337041	-1.483404
O	-2.681348	-0.599405	-1.166932
O	-2.321417	1.476338	-1.735594
N	-0.379434	-1.285108	0.627307
O	-0.254694	-2.317397	-0.035506
O	-0.72173	-1.27154	1.812515
C	-0.468449	1.184122	0.811424
H	-1.541437	1.165402	1.025484
H	-0.226717	2.095457	0.260968
H	0.078101	1.203395	1.752752
F	2.498358	0.0	0.0
