16

C	-0.446415	-0.003203	-1.438686
C	0.0	0.0	0.0
Cl	0.437784	1.168688	-2.40914
H	1.092751	0.0	0.0
H	-0.317367	-0.9889	-1.875608
N	-1.936869	0.284606	-1.5128
O	-2.341552	1.410784	-1.777989
O	-2.64508	-0.672253	-1.201016
N	-0.372587	-1.292422	0.619099
O	-0.207236	-2.321741	-0.039261
O	-0.751012	-1.284766	1.792409
C	-0.495426	1.177136	0.804076
H	0.030596	1.200753	1.757278
H	-1.572425	1.145337	0.996964
H	-0.254012	2.092977	0.260746
F	2.50001	0.0	0.0
