14

C	-0.432249	-0.078174	-1.466921
C	0.0	0.0	0.0
F	-0.203005	1.158062	-2.063633
H	1.093881	0.0	0.0
H	-0.3166	-0.912541	0.515322
C	0.383402	-1.12183	-2.200724
H	1.440199	-0.889467	-2.055555
H	0.184964	-2.117607	-1.797135
H	0.126989	-1.104666	-3.26111
C	-1.881821	-0.342024	-1.59231
N	-3.027326	-0.584272	-1.691486
C	-0.562224	1.158307	0.679239
N	-1.04362	2.07919	1.225243
Br	3.503657	0.0	0.0
