14

C	-0.443089	0.087786	-1.455547
C	0.0	0.0	0.0
F	-1.813035	0.385161	-1.505373
H	1.09361	0.0	0.0
H	-0.316869	0.928213	0.486749
C	0.324407	1.182333	-2.168873
H	0.007632	1.245505	-3.210766
H	0.119803	2.134282	-1.67268
H	1.395209	0.977064	-2.103146
C	-0.274267	-1.203117	-2.150636
N	-0.141402	-2.231994	-2.70107
C	-0.574526	-1.131554	0.71253
N	-1.066974	-2.028072	1.288394
Br	3.472524	0.0	0.0
