14

C	-0.420308	-0.040593	-1.472195
C	0.0	0.0	0.0
F	-0.062611	1.187279	-2.023941
H	1.094048	0.0	0.0
H	-0.361971	0.925445	0.454804
C	0.302816	-1.136941	-2.226182
H	0.064648	-1.072694	-3.289459
H	1.374818	-0.998163	-2.067138
H	0.008716	-2.117982	-1.847681
C	-1.887678	-0.150877	-1.621198
N	-3.052625	-0.233586	-1.748515
C	-0.508507	-1.154894	0.726414
N	-0.917234	-2.097022	1.295774
Br	3.495825	0.0	0.0
