14

C	-0.427002	0.081288	-1.464847
C	0.0	0.0	0.0
F	-1.814353	0.262625	-1.546176
H	1.093914	0.0	0.0
H	-0.361797	-0.921664	0.461757
C	0.263357	1.221647	-2.183168
H	-0.037993	1.242653	-3.231969
H	1.345503	1.095026	-2.097427
H	-0.023819	2.161277	-1.706802
C	-0.148078	-1.207921	-2.127018
N	0.020144	-2.24107	-2.65862
C	-0.505098	1.149333	0.741239
N	-0.925201	2.072703	1.331759
Br	3.464964	0.0	0.0
