14

C	-0.432256	-0.067481	-1.465919
C	0.0	0.0	0.0
F	-0.201443	1.171536	-2.05272
H	1.093909	0.0	0.0
H	-0.317905	-0.914666	0.510688
C	0.383252	-1.107082	-2.210756
H	0.182343	-2.104867	-1.814993
H	1.44102	-0.87465	-2.063967
H	0.129765	-1.083386	-3.272301
C	-1.882787	-0.332253	-1.58844
N	-3.027214	-0.578406	-1.683777
C	-0.559273	1.154874	0.688028
N	-1.037637	2.071813	1.242867
Br	3.50118	0.0	0.0
