17

C	-0.23788	-0.187835	-1.489938
C	0.0	0.0	0.0
F	-1.466641	-0.745303	-1.7653
H	1.093471	0.0	0.0
N	-0.250292	1.187645	-2.15068
O	0.839069	1.718205	-2.319405
O	-1.339798	1.677785	-2.432909
N	0.790573	-0.966551	-2.100299
H	0.640108	-1.901339	-1.73066
H	1.659851	-0.646269	-1.642764
N	-0.380714	-1.259618	0.63596
H	-1.365222	-1.26465	0.87538
H	0.167774	-1.366048	1.479689
N	-0.541426	1.237999	0.51922
H	0.009838	1.519461	1.319187
H	-1.508829	1.130753	0.804312
F	2.668093	0.0	0.0
