17

C	-0.51868	-0.009754	-1.422396
C	0.0	0.0	0.0
F	-0.209855	-1.185524	-2.056952
H	1.099436	0.0	0.0
N	-2.094247	-0.081073	-1.381475
O	-2.618299	-1.175839	-1.171249
O	-2.718798	0.973757	-1.501797
N	-0.103167	1.099796	-2.154004
H	0.064346	1.84795	-1.492279
H	-0.788029	1.389284	-2.837501
N	-0.405426	-1.175481	0.771313
H	-1.050299	-1.763886	0.259976
H	0.441742	-1.707158	0.933428
N	-0.390448	1.271858	0.613699
H	0.371265	1.513693	1.237973
H	-1.216802	1.125071	1.184398
F	2.612782	0.0	0.0
