17

C	-0.180956	0.071776	-1.509604
C	0.0	0.0	0.0
F	0.084019	-1.161481	-2.047914
H	1.101194	0.0	0.0
N	-1.635608	0.355068	-1.88127
O	-2.398964	-0.608885	-1.905482
O	-1.975933	1.525842	-2.03921
N	0.675077	1.030882	-2.113673
H	1.582203	0.854189	-1.65622
H	0.358993	1.934444	-1.778297
N	-0.647913	-1.161975	0.61264
H	-0.713718	-1.901095	-0.077513
H	-0.007724	-1.499415	1.324783
N	-0.435363	1.257572	0.586286
H	0.214165	1.495714	1.325481
H	-1.352095	1.114953	0.998207
F	2.675944	0.0	0.0
