17

C	-0.502877	-0.1428	-1.427222
C	0.0	0.0	0.0
F	0.051665	0.871999	-2.181608
H	1.096253	0.0	0.0
N	-0.047532	-1.414377	-2.139289
O	0.21207	-2.410741	-1.478406
O	-0.041575	-1.361173	-3.367599
N	-1.915892	-0.138771	-1.50821
H	-2.202991	0.008667	-2.469503
H	-2.195197	0.6564	-0.938963
N	-0.495496	-1.019023	0.91081
H	0.242968	-1.704642	0.997116
H	-1.302648	-1.489694	0.519731
N	-0.533305	1.319522	0.426072
H	0.242267	1.974697	0.35112
H	-0.725297	1.197501	1.413229
F	2.654541	0.0	0.0
