17

C	-0.611068	-0.021128	-1.379051
C	0.0	0.0	0.0
F	-0.168774	1.020607	-2.157605
H	1.091417	0.0	0.0
N	-0.138063	-1.260063	-2.187993
O	0.790735	-1.93801	-1.76956
O	-0.74986	-1.463978	-3.240978
N	-2.022425	0.010882	-1.335208
H	-2.399419	-0.206034	-2.249728
H	-2.29225	-0.698584	-0.659536
N	-0.55259	-1.187517	0.699222
H	0.220662	-1.840042	0.781643
H	-0.766403	-0.857039	1.633575
N	-0.405932	1.219921	0.692705
H	-1.173782	1.678831	0.21702
H	0.402445	1.829771	0.689208
F	2.647108	0.0	0.0
