17

C	-0.091404	0.096841	-1.532132
C	0.0	0.0	0.0
F	-0.123011	-1.200249	-2.091211
H	1.101783	0.0	0.0
N	-1.43866	0.648366	-2.000298
O	-1.476709	1.69426	-2.637959
O	-2.421733	-0.014804	-1.679472
N	0.971966	0.868291	-1.964451
H	1.08242	0.889609	-2.966275
H	1.825951	0.605882	-1.421402
N	-0.602218	-1.152705	0.612064
H	-1.506745	-1.321488	0.185917
H	-0.010363	-1.950221	0.423495
N	-0.587953	1.220756	0.562652
H	-0.598134	1.068794	1.563957
H	0.072756	1.971437	0.388165
F	2.743221	0.0	0.0
