10
Coordinates from ORCA-job run
  C   0.17500913746273      0.32417725915408     -0.26057530010428
  C   -0.68426120604622     -0.92618026382231     -0.16963057876790
  F   0.20798266615044      0.74968457706741     -1.57648581533172
  H   -0.25068274649452     -1.69730800861013     -0.80733381855114
  H   -0.72911575195805     -1.28505367195412      0.85928850999374
  H   -1.68974362347816     -0.68720987689619     -0.51772961037479
  C   1.55898403768947      0.05103443803520      0.17045912131055
  N   2.65198338995731     -0.20400557546415      0.51468988516896
  C   -0.38242231464581      1.41393609348506      0.56258077092573
  N   -0.85773358863717      2.25892502900516      1.22473683573085
