10
Coordinates from ORCA-job run
  C   0.21781988301543      0.32500019986994     -0.22369468308625
  C   -0.71090291245844     -0.87647986257943     -0.28607378423293
  F   0.41014033730635      0.80859568513615     -1.50554475555646
  H   -1.65832974601003     -0.56453349429671     -0.72665827893552
  H   -0.25261586002897     -1.64321286417935     -0.91145346161520
  H   -0.88648881271955     -1.27624489379774      0.71311450213636
  C   1.53328169492348     -0.04705012668266      0.33073650842135
  N   2.57012142020157     -0.38016358726449      0.76910915358320
  C   -0.36443147973820      1.40585113803240      0.59418246941615
  N   -0.85959452449165      2.24723780576189      1.24628232986931
