16

C	0.0	0.0	0.0
C	-0.512828	0.0435	-1.44711
F	1.378009	0.0	0.0
H	-1.606848	0.165691	-1.289826
C	-0.349206	1.280473	0.69405
N	-0.512683	2.261851	1.318551
N	-0.539605	-1.143128	0.649158
H	-1.574723	-0.943122	0.536382
H	-0.311952	-1.083574	1.637211
C	-0.201491	-1.257271	-2.188804
H	0.872641	-1.458172	-2.191532
H	-0.549609	-1.189752	-3.222533
H	-0.711102	-2.08011	-1.69166
C	0.056601	1.185429	-2.153587
N	0.521447	2.075886	-2.763998
F	-2.767217	0.0	0.0
