16

C	0.0	0.0	0.0
C	-0.51333	0.039961	-1.447178
F	1.378035	0.0	0.0
H	-1.606103	0.172945	-1.290764
C	-0.348313	1.284796	0.687747
N	-0.512636	2.271682	1.303314
N	-0.540234	-1.139979	0.653746
H	-1.57538	-0.940078	0.539858
H	-0.312664	-1.076089	1.64153
C	-0.218272	-1.269336	-2.180885
H	0.851522	-1.492017	-2.168916
H	-0.552177	-1.197981	-3.219084
H	-0.751501	-2.07951	-1.687628
C	0.068347	1.171538	-2.160391
N	0.54204	2.054117	-2.775394
F	-2.767873	0.0	0.0
