16

C	0.0	0.0	0.0
C	-0.516389	0.004557	-1.447012
F	1.37105	0.0	0.0
H	-1.608873	0.142854	-1.291367
C	-0.353372	1.304262	0.647937
N	-0.536255	2.336817	1.177853
N	-0.543928	-1.12281	0.682566
H	-1.578727	-0.924176	0.559518
H	-0.322309	-1.028525	1.66866
C	-0.226281	-1.324133	-2.1475
H	0.843988	-1.546573	-2.138685
H	-0.568391	-1.280757	-3.184396
H	-0.754758	-2.121634	-1.628104
C	0.067517	1.114817	-2.190027
N	0.547364	1.98243	-2.821501
F	-2.770609	0.0	0.0
