16

C	0.0	0.0	0.0
C	-0.258485	-0.036794	-1.577899
F	1.389799	0.0	0.0
H	0.66962	0.370735	-1.992803
C	-0.404932	1.333333	0.504055
N	-0.54476	2.43578	0.882083
N	-0.556803	-1.000523	0.816053
H	-0.362143	-1.904341	0.394556
H	-1.593703	-0.784119	0.690676
C	-1.431629	0.745678	-2.174571
H	-1.43048	0.61147	-3.2613
H	-2.35116	0.410652	-1.690242
H	-1.296871	1.80744	-1.954293
C	-0.296876	-1.440798	-1.984029
N	-0.312386	-2.566079	-2.319859
F	-2.762025	0.0	0.0
