16

C	0.0	0.0	0.0
C	-0.312162	-0.004658	-1.516628
F	1.383142	0.0	0.0
H	0.389036	-0.766259	-1.878888
C	-0.388458	1.278179	0.655322
N	-0.529855	2.301172	1.216572
N	-0.482937	-1.176354	0.630015
H	-1.521127	-1.002282	0.5343
H	-0.238278	-1.128152	1.614948
C	0.055637	1.336152	-2.156889
H	-0.653464	2.107725	-1.854099
H	1.060971	1.635322	-1.851918
H	0.028542	1.247085	-3.245834
C	-1.628491	-0.432396	-2.00717
N	-2.415677	-0.794297	-2.804706
F	-2.593767	0.0	0.0
