16

C	0.0	0.0	0.0
C	-0.241282	0.010108	-1.580322
F	1.389258	0.0	0.0
H	0.661066	0.496101	-1.968363
C	-0.407165	1.320842	0.536343
N	-0.562556	2.407958	0.950444
N	-0.567656	-1.020055	0.78085
H	-1.604704	-0.79073	0.661599
H	-0.379471	-1.911951	0.332146
C	-1.457189	0.729749	-2.168927
H	-2.361855	0.330621	-1.707483
H	-1.429381	0.632399	-3.259124
H	-1.396329	1.789651	-1.909609
C	-0.17564	-1.379382	-2.030942
N	-0.105881	-2.499724	-2.378805
F	-2.778945	0.0	0.0
