14

C	-0.507544	-0.015553	-1.462266
C	0.0	0.0	0.0
F	-0.105921	-1.237528	-1.970006
H	1.090741	0.0	0.0
H	0.032386	0.77037	-1.99814
N	-1.909907	0.130687	-1.66801
H	-2.431042	-0.338618	-0.937954
H	-2.173086	1.106321	-1.699547
N	-0.49678	-1.254829	0.662539
O	-1.711953	-1.318375	0.879166
O	0.312063	-2.14085	0.890519
C	-0.539357	1.1565	0.696362
N	-0.972491	2.119475	1.210715
Br	3.412652	0.0	0.0
