14

C	-0.380832	-0.044174	-1.483329
C	0.0	0.0	0.0
F	-0.147377	1.250782	-1.985254
H	1.092428	0.0	0.0
H	-1.447236	-0.227901	-1.629947
N	0.402985	-1.045549	-2.081216
H	1.391162	-0.909181	-1.873598
H	0.249288	-1.103248	-3.077674
N	-0.511165	-1.266982	0.626378
O	0.305504	-2.076533	1.042252
O	-1.735927	-1.398529	0.649807
C	-0.578552	1.136184	0.696289
N	-1.055576	2.047833	1.261564
Br	3.420401	0.0	0.0
