14

C	-0.379066	-0.061538	-1.483033
C	0.0	0.0	0.0
F	-0.149338	1.228081	-1.998965
H	1.090486	0.0	0.0
H	-1.444061	-0.251509	-1.628711
N	0.410363	-1.066264	-2.067853
H	1.397526	-0.922406	-1.860833
H	0.25828	-1.137038	-3.063711
N	-0.509694	-1.258591	0.645209
O	-1.731642	-1.416733	0.624551
O	0.306417	-2.032479	1.125539
C	-0.579386	1.143157	0.684102
N	-1.057095	2.05716	1.244994
Br	3.421179	0.0	0.0
