14

C	-0.494472	-0.030788	-1.438068
C	0.0	0.0	0.0
F	-1.87491	-0.360667	-1.405907
H	1.092929	0.0	0.0
H	0.001032	-0.844632	-1.964529
N	-0.24816	1.198028	-2.073801
H	-0.461025	1.156654	-3.05946
H	-0.748539	1.96011	-1.63579
N	-0.394601	-1.271916	0.692769
O	-0.236736	-2.30398	0.05032
O	-0.788403	-1.202366	1.853639
C	-0.535895	1.147533	0.715817
N	-0.968593	2.128593	1.194838
Br	3.343753	0.0	0.0
