14

C	-0.353097	0.087513	-1.476486
C	0.0	0.0	0.0
F	-1.727693	0.248182	-1.637761
H	1.093739	0.0	0.0
H	-0.114091	-0.870476	-1.945868
N	0.318719	1.2287	-2.013625
H	1.285141	1.235831	-1.692086
H	0.320108	1.182214	-3.02452
N	-0.44885	-1.300363	0.593297
O	-0.926281	-1.287312	1.723759
O	-0.262265	-2.303656	-0.088676
C	-0.529286	1.120287	0.759138
N	-0.947524	2.041154	1.354727
Br	3.336408	0.0	0.0
