14

C	-0.498591	-0.011447	-1.435894
C	0.0	0.0	0.0
F	-1.888674	-0.300976	-1.397886
H	1.093922	0.0	0.0
H	-0.031053	-0.838207	-1.967802
N	-0.218138	1.211846	-2.068525
H	-0.445347	1.182906	-3.051293
H	-0.686039	1.989095	-1.620451
N	-0.401611	-1.274976	0.682324
O	-0.784556	-1.213981	1.847053
O	-0.262608	-2.30223	0.027304
C	-0.531109	1.144251	0.72587
N	-0.971466	2.120214	1.20782
Br	3.347015	0.0	0.0
