14

C	-0.490657	-0.018057	-1.43983
C	0.0	0.0	0.0
F	-1.870243	-0.352483	-1.414157
H	1.092125	0.0	0.0
H	0.008438	-0.825517	-1.97258
N	-0.246403	1.217288	-2.062646
H	-0.750373	1.973459	-1.618637
H	-0.456177	1.184924	-3.049234
N	-0.398665	-1.279374	0.676525
O	-0.826787	-1.222171	1.825127
O	-0.214234	-2.305126	0.031313
C	-0.539042	1.140696	0.724407
N	-0.967272	2.118093	1.215074
Br	3.348238	0.0	0.0
