15

C	-0.451222	-0.01439	-1.444128
C	0.0	0.0	0.0
F	-1.82266	-0.338783	-1.533604
H	1.093817	0.0	0.0
N	-0.128132	1.15168	-2.129977
H	-0.387326	1.984887	-1.624219
H	-0.486317	1.135275	-3.073562
N	0.171541	-1.181694	-2.210516
O	0.062846	-1.11758	-3.433934
O	0.661421	-2.105041	-1.575679
C	-0.509844	-1.123992	0.766601
N	-0.906132	-2.006053	1.435474
C	-0.433064	1.246369	0.608462
N	-0.765023	2.286684	1.047243
F	2.424215	0.0	0.0
