15

C	-0.455656	-0.036713	-1.442273
C	0.0	0.0	0.0
F	-1.830431	-0.342738	-1.523556
H	1.093857	0.0	0.0
N	-0.115444	1.109578	-2.152388
H	-0.488527	1.086251	-3.089983
H	-0.341553	1.957978	-1.656305
N	0.152109	-1.226567	-2.187923
O	0.024992	-1.192254	-3.409905
O	0.655748	-2.131352	-1.540508
C	-0.510382	-1.113263	0.781721
N	-0.908947	-1.985162	1.461313
C	-0.432821	1.255156	0.590728
N	-0.766084	2.301814	1.012091
F	2.423771	0.0	0.0
