15

C	-0.37461	-0.08594	-1.466301
C	0.0	0.0	0.0
F	-1.677565	-0.600325	-1.6351
H	1.093786	0.0	0.0
N	-0.174512	1.107624	-2.149236
H	-0.692801	1.869182	-1.739637
H	-0.355254	1.001534	-3.137356
N	0.452928	-1.168671	-2.160928
O	0.805749	-2.129417	-1.493214
O	0.618197	-1.025167	-3.372359
C	-0.50567	-1.112237	0.7855
N	-0.904715	-1.984414	1.466436
C	-0.459387	1.259289	0.554855
N	-0.787683	2.312825	0.96455
F	2.422776	0.0	0.0
