15

C	-0.086411	-0.088949	-1.523731
C	0.0	0.0	0.0
F	-0.018729	1.215455	-2.031921
H	1.097477	0.0	0.0
N	0.90617	-0.938983	-1.971301
H	1.774604	-0.725416	-1.443316
H	1.008937	-0.923861	-2.973928
N	-1.451705	-0.530552	-2.062855
O	-1.467609	-0.988433	-3.204567
O	-2.432835	-0.335197	-1.352775
C	-0.46165	-1.215544	0.64421
N	-0.804776	-2.1998	1.185595
C	-0.580403	1.196304	0.573241
N	-1.017867	2.160252	1.082744
F	2.539587	0.0	0.0
