14
Coordinates from ORCA-job run
  C   0.63951916248651     -0.29732973708424      0.36747074644226
  C   -0.67065127630140      0.35597163867505     -0.08693665477249
  F   0.43930718368509     -1.61234243953457      0.59981163888603
  H   -0.44366454569860      1.40423984012288     -0.29890278206643
  N   1.61893808634724     -0.15828290257886     -0.80663183190176
  O   2.03376369717659     -1.18415077041272     -1.31001857981102
  O   1.86683214710795      0.99931147451935     -1.11092831407258
  C   1.23492169213495      0.35157063133749      1.53484095006440
  N   1.69175803000590      0.88318041361144      2.47807508485511
  C   -1.64313487231205      0.28912303414296      1.01949461657804
  N   -2.45964549890286      0.20702985748223      1.86025931998911
  N   -1.07620964290713     -0.29447011482108     -1.31320431624222
  H   -1.75921451514432      0.26462455749756     -1.80690738168211
  H   -1.47251964767786     -1.20747548295747     -1.12742249626634
