14
Coordinates from ORCA-job run
  C   0.66152690354358      0.11950934369110      0.38654850379997
  C   -0.86662161285942     -0.00990404735146      0.17646723981424
  F   0.85680226354378      0.87430905633111      1.49954383273755
  H   -1.23575716151796     -0.47036265011417      1.10088224811909
  N   1.23375984150717     -1.26598073093303      0.66625897374920
  O   1.84412599561795     -1.81192348171087     -0.24372132597751
  O   0.96193440094575     -1.71408026963223      1.77161981379315
  C   1.33598126792901      0.72572966693232     -0.75752694646809
  N   1.81962264521528      1.29173172904065     -1.66676189828426
  C   -1.12143756414151     -0.91917581079478     -0.94417692318882
  N   -1.30934446361352     -1.63587999657435     -1.85487928906126
  N   -1.53859152200333      1.24718609171037     -0.02192204469526
  H   -1.24902267733870      1.70277174708628     -0.87893472732154
  H   -1.39197831682809      1.86506935231906      0.76560254298353
