14
Coordinates from ORCA-job run
  C   0.65397826211435     -0.14803576074263      0.62424557112499
  C   -0.77597293256901      0.32324239725497      0.30412512900426
  F   0.65693388061546     -0.77488245440344      1.81939652837433
  H   -1.09668841471776      0.83515526528188      1.21826567102408
  N   1.09754992550637     -1.17271531322792     -0.43343362262730
  O   1.39815715242412     -2.28574500912811     -0.04366782722955
  O   1.08215954276277     -0.74917556690036     -1.58265935973857
  C   1.61612648019898      0.95285135774574      0.61222062764828
  N   2.40898654136578      1.81866237454496      0.65407739120268
  C   -1.63170912879469     -0.86939677742283      0.13300311208515
  N   -2.32976377623105     -1.79633157947537     -0.05237941335818
  N   -0.78894393856603      1.27725047534811     -0.77676612017819
  H   -1.67614574984419      1.76173431192494     -0.81004479140665
  H   -0.61466784426508      0.82838627920013     -1.66638289592533
