14
Coordinates from ORCA-job run
  C   0.69487945749707      0.01734084980246      0.34983192465228
  C   -0.84925654433748     -0.00387406333476      0.24162486631868
  F   1.01058015935918      0.54245314176753      1.56298843162846
  H   -1.17831586700829     -0.61061569288206      1.09392945492328
  N   1.20477680552542     -1.41960019635587      0.32642218144138
  O   0.98254878074387     -2.05362704738446      1.34876907275662
  O   1.71866946628716     -1.81305682922087     -0.71266112211655
  C   1.31971557204112      0.79603534374355     -0.71513184221438
  N   1.75071604140261      1.48959507423017     -1.56023318170058
  C   -1.23408852080078     -0.67864169882086     -1.00108480326358
  N   -1.53089449133548     -1.20514963458506     -2.00758882068984
  N   -1.46027187673281      1.29611951828198      0.32774892667431
  H   -1.22366658616321      1.75120995509017      1.19973916695909
  H   -1.20639239647837      1.88881127966812     -0.45335425536916
