14
Coordinates from ORCA-job run
  C   0.67162237271834     -0.16735699756716      0.59871594512934
  C   -0.76442148182273      0.32004207825009      0.33606670164780
  F   0.70862909359813     -0.82394566030469      1.77708825330540
  H   -1.05275662256852      0.81042385145426      1.27255494150780
  N   1.07501834233520     -1.16741004694820     -0.49770963163263
  O   1.37790555132023     -2.29236682544286     -0.14560124064223
  O   1.02896050685034     -0.71443215542409     -1.63481301887882
  C   1.63994013676731      0.92822899278012      0.58403773661007
  N   2.44370286061322      1.78357505393446      0.63293735437396
  C   -1.63337612801327     -0.86250831886294      0.16182241706384
  N   -2.34184253094112     -1.78101155243842     -0.02605052875821
  N   -0.80416672041844      1.30129869201010     -0.71961191992141
  H   -0.65901429596133      0.87381531299621     -1.62482177052693
  H   -1.68920108447736      1.79064757556316     -0.71461523927795
