14
Coordinates from ORCA-job run
  C   0.70958522561091     -0.06286915606262      0.50730242085738
  C   -0.82620572413642      0.19495032450796      0.42281640926353
  F   1.00843006905459     -0.60815239178280      1.70373988110955
  H   -1.05363124983395      0.71915929136231      1.35873280594937
  N   1.11011749170096     -1.05800073336478     -0.58263454733175
  O   0.96753289615628     -0.63602571473370     -1.72505965806590
  O   1.48136625526066     -2.16146273226797     -0.22588224230803
  C   1.45582109133003      1.17595339340589      0.29283739173703
  N   2.00232574331818      2.20643264195699      0.14971994060007
  C   -1.49627276514324     -1.11205775529197      0.46821694517568
  N   -2.01673254358287     -2.16424481628697      0.48708105238078
  N   -1.31219063977036      0.97998613175593     -0.67663550134676
  H   -0.99384409934440      1.93849059181712     -0.61430492286730
  H   -1.03430175062036      0.58784092498461     -1.56692997515366
