14
Coordinates from ORCA-job run
  C   0.66691846055859     -0.15271363652819      0.60930877917720
  C   -0.77050304445573      0.31714140624465      0.32242075167557
  F   0.69553949182883     -0.79264617930109      1.79709016703232
  H   -1.07459749099404      0.81919269521763      1.24763949604515
  N   1.09235583614585     -1.16394916742448     -0.46828119090541
  O   1.05919515215244     -0.72558787097684     -1.61159049294037
  O   1.39719882689013     -2.28245339735298     -0.09784070512269
  C   1.62470282403974      0.95190021202818      0.59116266069425
  N   2.41661727908583      1.81838473867967      0.63698719726543
  C   -1.62636704049345     -0.87598446730933      0.15575440226468
  N   -2.32690236629482     -1.80130018971540     -0.02841263405663
  N   -0.80701628982417      1.28172511169567     -0.74858741807450
  H   -0.64919181168002      0.84221212832034     -1.64592620146864
  H   -1.69594982695920      1.76407861642217     -0.75972481158643
