14
Coordinates from ORCA-job run
  C   0.63686802551918     -0.38536157761467      0.27573321275871
  C   -0.66020816180301      0.38723669936113      0.01086893942472
  F   0.39428630337288     -1.71338117074434      0.23876247007215
  H   -0.40173708582784      1.44955994732145      0.01268769222420
  N   1.58875118021044     -0.03636379008168     -0.87704667514169
  O   1.87662717590294      1.14991424280213     -0.94036586565735
  O   1.95545723293198     -0.94884006046989     -1.59177700891961
  C   1.28767504567573     -0.01188786395789      1.53080797589579
  N   1.79176942542063      0.29305084856513      2.54751262874594
  C   -1.60408888945416      0.12079555141553      1.11212652604279
  N   -2.39927784344856     -0.10753923749245      1.94634240687352
  N   -1.12232316002368      0.01811458985787     -1.30876415497246
  H   -1.54564488230048     -0.90156668813813     -1.30242837539625
  H   -1.79815436617606      0.68726850917579     -1.65245977195049
