14
Coordinates from ORCA-job run
  C   0.59872032553727     -0.33709311026676      0.29633575761334
  C   -0.76477003644020      0.36134486883485      0.06584191550551
  F   0.43277970938153     -1.67630077223700      0.27957857362606
  H   -0.58075528840046      1.43950655754041      0.09469497420440
  N   1.47111302202252      0.04742277596063     -0.90133434976508
  O   1.71412187014691      1.24480029214680     -0.98153144456604
  O   1.78719728687251     -0.84129120139321     -1.67365604952666
  C   1.27851971339400      0.09362396896206      1.51465306252714
  N   1.79632925815576      0.45843540872965      2.50481210124660
  C   -1.63576010069569     -0.00158953150841      1.19204667809030
  N   -2.32453322044684     -0.31019331227360      2.09101281042701
  N   -1.39118660697499      0.02443468393483     -1.18475457498408
  H   -0.93904276741220      0.47088053317705     -1.97116925912889
  H   -1.44273316514014     -0.97598116160729     -1.32753019526965
