14
Coordinates from ORCA-job run
  C   0.67205091109579      0.02390629700950      0.48528004296355
  C   -0.80048837330800      0.01412018646118      0.04387895995097
  F   0.70685619966741      0.46050835191332      1.76989367094231
  H   -1.30344381931305     -0.67997399742958      0.73450121313751
  N   1.17486563749979     -1.42112213163971      0.48010489873735
  O   0.80881573499742     -2.09609290649029      1.43198459831644
  O   1.82896388596243     -1.77566984702802     -0.49165392963589
  C   1.52448416049179      0.85297351851070     -0.35983859582389
  N   2.20497816315936      1.54222418714595     -1.02431910607327
  C   -0.90876440049810     -0.51782152343487     -1.31469744453354
  N   -1.03206898725318     -0.93468758978735     -2.40533696879845
  N   -1.27419502446210      1.38404376130550      0.10315813908580
  H   -2.07079222961745      1.52416859069045     -0.50349070627483
  H   -1.53126185842211      1.62442310277318      1.05153522800598
