14
Coordinates from ORCA-job run
  C   0.68794213625153     -0.16834449130608      0.58749038059920
  C   -0.77021424241849      0.23103720894383      0.28354699920803
  F   0.73971808850431     -0.87377213423009      1.74143005553586
  H   -1.07488255015811      0.86625253696922      1.12901688434504
  N   1.21062702328102     -1.06201697336483     -0.53586350424089
  O   0.80841065026597     -2.21601790238887     -0.49651760077793
  O   1.94496141900605     -0.54360055110040     -1.36358340075177
  C   1.52544680397801      1.02869421606672      0.67678128457686
  N   2.11356771098585      2.03748704302995      0.80642225077503
  C   -1.63921828866233     -0.94831214835814      0.29909656188320
  N   -2.40841022567779     -1.83513664694114      0.29991574719537
  N   -0.80105723090499      0.88758698333536     -1.00971566050844
  H   -1.66623397251393      0.70983315114356     -1.50001602067535
  H   -0.67065732193707      1.88630970820092     -0.91600397716428
