14
Coordinates from ORCA-job run
  C   0.61363432796867     -0.21725686981030      0.36843552297155
  C   -0.79364418832036      0.29929620845068     -0.02242107305843
  F   0.55897701175063     -1.54229783022941      0.61849862580732
  H   -0.69958374577072      1.37333567708346     -0.20890565271635
  N   1.49319342553377     -0.00385434128971     -0.86608963261875
  O   1.90781353649341     -0.99732479115343     -1.43838289560060
  O   1.64001612563766      1.17039872922977     -1.18058471685160
  C   1.21249401338547      0.50488858587247      1.48730262125006
  N   1.66146846749795      1.09608789959374      2.39853944699188
  C   -1.67047047102012      0.09437091889998      1.13864773012208
  N   -2.36255353154448     -0.08830099862684      2.06892662825562
  N   -1.34584393068683     -0.33410023125888     -1.19006576232956
  H   -0.90858012449621     -0.01178185203319     -2.04270310353210
  H   -1.30692091642888     -1.34346110472831     -1.13119773869108
