14
Coordinates from ORCA-job run
  C   0.65229741034617     -0.13758426231986      0.62759681454767
  C   -0.77580243379689      0.33127144672880      0.29657014995674
  F   0.65242919607588     -0.74075190422925      1.83480239886978
  H   -1.09569848130378      0.86288702433554      1.19968986593557
  N   1.09459092480800     -1.18390195755251     -0.40909674638364
  O   1.39277568642710     -2.28951971403151      0.00323828343636
  O   1.08115226556317     -0.78373777738411     -1.56668590499481
  C   1.61736280733550      0.96045458189492      0.59536837561685
  N   2.41669414950360      1.82066440096125      0.62924170456146
  C   -1.63515143894441     -0.86176576106165      0.14819720581810
  N   -2.33540147848097     -1.78970941758055     -0.02337085575505
  N   -0.78422266290987      1.26335455801726     -0.80335604036044
  H   -1.66970357267571      1.75011192506675     -0.84759682996839
  H   -0.61032237194778      0.79622685715490     -1.68359842128019
