14
Coordinates from ORCA-job run
  C   0.66508358383081     -0.31074495516334      0.30379081683671
  C   -0.67196097823757      0.36429034351008     -0.02153221406899
  F   0.47170541828140     -1.62979357395832      0.51946593013966
  H   -0.45373572503602      1.41599751333042     -0.22565867986523
  N   1.54373759706437     -0.14960848144298     -0.94459535223389
  O   1.77853915477916      1.01335513222393     -1.23876017930372
  O   1.90319882349649     -1.16552125522517     -1.50729120166489
  C   1.36307880133987      0.30258865894629      1.43292310030006
  N   1.90253984196203      0.80079061881031      2.35030689649501
  C   -1.54835361775077      0.27558668285878      1.16097365424038
  N   -2.29063846139731      0.17861628839248      2.06652530117952
  N   -1.18578064652504     -0.25082623871694     -1.22555202315710
  H   -1.90689410115941      0.32350239394164     -1.64139959095277
  H   -1.56951969064802     -1.16723312750718     -1.03019645794481
