14
Coordinates from ORCA-job run
  C   0.64068970336716     -0.25874753740939      0.39301359930821
  C   -0.67711313161621      0.33468491702784     -0.11770437623625
  F   0.46635810021647     -1.56168600279018      0.70285607311278
  H   -0.47182393926604      1.37374852154819     -0.38898932841433
  N   1.63420179289044     -0.16896213062810     -0.77366473702639
  O   1.86214646406443      0.97353602178158     -1.14381545360966
  O   2.07753257200065     -1.21382047481193     -1.20923638725928
  C   1.20365746970108      0.47322583841876      1.52680883754563
  N   1.63393309429933      1.06838522677642      2.44411900776417
  C   -1.66377183418900      0.31086307919446      0.97827407092511
  N   -2.49069650401680      0.26112099232006      1.81142371944382
  N   -1.04974143358872     -0.39699967685256     -1.30769408590251
  H   -1.42436000987181     -1.30797310913247     -1.07335991946671
  H   -1.74001234399097      0.11362433455727     -1.84203102018463
