14
Coordinates from ORCA-job run
  C   0.56230188504571     -0.44020407861381      0.34826441990690
  C   -0.58448587649041      0.48893683739616     -0.06487462818261
  F   0.10028007221467     -1.70082183853607      0.49441887923537
  H   -0.15106025170026      1.48263732211430     -0.20675848365090
  N   1.56729519896533     -0.42623453025033     -0.81197619624624
  O   1.77634117592755     -1.48058443858284     -1.38003365356513
  O   2.04582832246542      0.67510851167475     -1.04006006362757
  C   1.25738854581301      0.00044744282564      1.55705295710922
  N   1.79566868148300      0.36257032298425      2.53673510136859
  C   -1.56812521960641      0.54517178098842      1.03238369741453
  N   -2.39883708064642      0.57077971850292      1.86288212271745
  N   -1.09257702360246      0.01231359725884     -1.33226216294934
  H   -1.66206577739933     -0.81550555509512     -1.20763152912861
  H   -1.64695265246940      0.72538490733289     -1.78714046040165
