14
Coordinates from ORCA-job run
  C   0.74339051067008     -0.05198317335763      0.46207846339678
  C   -0.77898715615282     -0.01261410849626      0.24180933939421
  F   0.99985895835449      0.11810201013971      1.77579554416650
  H   -1.18093963312010     -0.72718326104777      0.96769459486590
  N   1.23255522616906     -1.45255430181282      0.08337577737606
  O   0.89581880435464     -2.32992373971816      0.86670207510312
  O   1.85711714196359     -1.57164542975717     -0.96206492369340
  C   1.44071434267815      0.95443813881027     -0.33611496891551
  N   1.92924308281184      1.81497905496392     -0.96952227848329
  C   -1.10075957956676     -0.48195681748281     -1.11768526072561
  N   -1.40146274622718     -0.80434996449760     -2.20706080328775
  N   -1.24954173722993      1.31543516241163      0.56227969468685
  H   -2.21387320940689      1.29267464142851      0.86491985819395
  H   -1.17113400529823      1.93758178841618     -0.23320711207782
