14
Coordinates from ORCA-job run
  C   0.69305911387230     -0.06203766605395      0.52997798863417
  C   -0.83465394454352      0.22184610335998      0.39508239943093
  F   0.94816120371050     -0.58066068197910      1.74806938535610
  H   -1.07783148493395      0.77550375741312      1.30985741796151
  N   1.10463853717739     -1.09316669929259     -0.52188615596137
  O   1.44395419868454     -2.19353111833640     -0.12604130855365
  O   1.00212355998384     -0.69918710931079     -1.67855631992289
  C   1.46822421718649      1.15684603087822      0.30429518291413
  N   2.03940444610684      2.17231344775275      0.15082370306005
  C   -1.53027356468029     -1.07105776853376      0.45455587244252
  N   -2.06376636719145     -2.11667593374246      0.47259509637322
  N   -1.27427533022595      0.98618041542648     -0.73796474052448
  H   -0.93979514984972      1.94004711273183     -0.69136977348938
  H   -0.97896943529709      0.56558010968669     -1.60943874772089
