14
Coordinates from ORCA-job run
  C   0.78365487346466      0.17168695050970      0.35179077370158
  C   -0.75219850275895      0.18888663560553      0.26014961550013
  F   1.17531237534242      1.05343674155329      1.29506803438188
  H   -1.09160414992920      0.06233078268059      1.29349799056705
  N   1.20643597042935     -1.22005122725278      0.83123825588612
  O   1.72392726779415     -1.96926302059126      0.01399088097604
  O   0.93079065264310     -1.45169258946015      2.00045348567371
  C   1.41432880620908      0.47179180591813     -0.93207441439964
  N   1.85606291923115      0.75000431434282     -1.98462118083686
  C   -1.21788968977219     -0.95777515660497     -0.54037498194557
  N   -1.62252119789277     -1.82334977632286     -1.22464574969514
  N   -1.16304017448023      1.48581281951731     -0.22600487261929
  H   -1.15372512841722      1.52175385569139     -1.23823250603886
  H   -2.09153402186338      1.71642786441326      0.10076466884882
