14
Coordinates from ORCA-job run
  C   0.70018733710108     -0.02535063346498      0.44591825983572
  C   -0.79605264610643      0.00522223977039      0.09249201143014
  F   0.81044067507975      0.27016792680652      1.76587457653352
  H   -1.25831992747702     -0.76120381784423      0.73300875555079
  N   1.19982126758558     -1.45851568847369      0.25527889629897
  O   0.88304152823503     -2.23555760697027      1.14508747263222
  O   1.80163463124113     -1.70179118957722     -0.78235015412017
  C   1.50257554911005      0.89474441933449     -0.35270236503715
  N   2.14439087111149      1.66032652235537     -0.97049429721663
  C   -0.98416707836312     -0.37981706698271     -1.30634761049272
  N   -1.17441363601232     -0.68211448724880     -2.42479792090962
  N   -1.26397739617626      1.35810447453599      0.32684375969706
  H   -1.48621699379870      1.48845129045146      1.30489188421857
  H   -2.07994418153034      1.56833361730768     -0.23170326842060
