14
Coordinates from ORCA-job run
  C   0.69779195470984     -0.03454750935559      0.52680241925878
  C   -0.79892499538514      0.00610191454231      0.17210524118883
  F   0.84098671162909      0.20127738403437      1.84748414689673
  H   -1.27213958637895     -0.66715612273821      0.89446498512334
  N   1.20047723079440     -1.45677003194545      0.26433322761354
  O   1.91588199354047     -1.63429466935857     -0.71230569470782
  O   0.78246188410277     -2.29021077769904      1.05644663281163
  C   1.47542135247261      0.92347180003251     -0.25677469554578
  N   2.03331785647417      1.75049168758101     -0.87740090394039
  C   -1.00531512776778     -0.52939805854494     -1.18535641779927
  N   -1.20295368725674     -0.90797033440941     -2.28021818629830
  N   -1.27870077547631      1.35263854474386      0.38320100908250
  H   -1.12355295652339      1.93289720254679     -0.43237575379938
  H   -2.26575185493509      1.35346897057034      0.60159399011562
