16
Coordinates from ORCA-job run
  C   0.86236727610608      0.19776301993920     -0.56600850164792
  C   -0.57517032354931     -0.29963180822965     -0.30887406917847
  H   1.29243531880132     -0.44918761097981     -1.35017779454580
  H   -1.11925327903777     -0.21714035355257     -1.26168140198072
  N   1.60835941804802      0.17375969320985      0.68407613969614
  H   1.49626265173539     -0.76037804472255      1.06445313997287
  H   2.59190938043984      0.34195570758867      0.51206959324227
  C   0.83325749473815      1.55994841918943     -1.11434759867850
  N   0.79653586970474      2.64101303721473     -1.57017352748984
  C   -1.28699517508753      0.53610161275502      0.74206310288128
  H   -1.31593615900014      1.58724516545468      0.45009649311006
  H   -0.77259901316775      0.45870772183746      1.69958072998861
  H   -2.31818726864370      0.19034811618316      0.85910867106911
  N   -0.45527042351981     -1.68524132410068      0.15367353188477
  H   -0.33991207960060     -2.31139959681560     -0.63504073277023
  H   -1.29880368796693     -1.96286375497135      0.64018222444636
