16
Coordinates from ORCA-job run
  C   0.86213957018214      0.15224828392003      0.01550193376122
  C   -0.64428039881669     -0.13686480278980     -0.19607366631313
  H   1.19644097676611     -0.44242703133207      0.87427358146261
  H   -0.98787643285534      0.54240940186743     -0.98780708440079
  N   1.08494976708041      1.55875058159465      0.32712424655030
  H   0.89169837476886      2.12220602723409     -0.49363417902714
  H   2.05312962507196      1.71593423293964      0.58098440785257
  C   1.61647627500793     -0.31386234975584     -1.16787319664715
  N   2.19607611794730     -0.63672558392190     -2.13811999700002
  C   -1.41572668841635      0.15425167326470      1.08082747683936
  H   -1.21824717359178      1.16406122643729      1.43736791155281
  H   -2.48341484812656      0.02629527095184      0.89832987916635
  H   -1.11998574072400     -0.55021736729780      1.86624618168155
  N   -0.93475324022008     -1.49025476949148     -0.64093527887446
  H   -0.46383000235614     -1.70267790930391     -1.51249917057920
  H   -0.63179618171777     -2.16312688431686      0.05428695397510
