16
Coordinates from ORCA-job run
  C   0.89458497104268      0.03155923853356     -0.49977109385901
  C   -0.59593386896282     -0.33329328150417     -0.31489799524444
  H   1.34701121137117     -0.75359521713428     -1.11501534240373
  H   -1.10195102813124     -0.07175065724351     -1.25807701362074
  N   1.61272311937193      0.06970256930492      0.76675864337386
  H   2.60938230871598      0.00514411453450      0.60149210596965
  H   1.44072206117036      0.94877491077610      1.23949591570507
  C   0.99261789028049      1.29796581064548     -1.25817079079422
  N   1.06684501449200      2.33318848888838     -1.80914355013921
  C   -1.22122594318566      0.47563673212597      0.80937786368881
  H   -2.29825356536372      0.29380883554910      0.85337367428409
  H   -1.07506210967598      1.54862989889245      0.65950007401423
  H   -0.78081515578316      0.17584403830176      1.76186801690187
  N   -0.68447948476967     -1.75599655097521     -0.00706014883088
  H   -1.57508593110368     -1.96222290450175      0.42824668540313
  H   -0.63007948946866     -2.30339602619331     -0.85797704444847
