15

C	0.0	0.0	0.0
C	-0.361032	0.466019	-1.431485
F	1.370542	0.0	0.0
H	0.439733	0.052835	-2.054778
H	-0.214034	1.552638	-1.398049
N	-0.592614	0.69244	1.042004
H	-1.613978	0.66244	0.841707
H	-0.435648	0.185327	1.905675
N	-0.243985	-1.551668	0.117021
O	-0.397141	-2.005135	1.248255
O	-0.175586	-2.228456	-0.906712
N	-1.629085	0.152684	-2.042824
H	-2.385927	0.27954	-1.346037
H	-1.635628	-0.843324	-2.227604
H	-3.275738	0.0	0.0
