15

C	0.0	0.0	0.0
C	-0.346304	-0.154305	-1.484562
F	1.377663	0.0	0.0
H	-0.193304	0.867084	-1.871297
H	0.463721	-0.771626	-1.885024
N	-0.594834	1.069869	0.651219
H	-0.465408	0.963842	1.652176
H	-1.61223	0.977897	0.463877
N	-0.223145	-1.356977	0.759732
O	-0.029892	-2.395658	0.140872
O	-0.459509	-1.2805	1.96498
N	-1.626642	-0.755379	-1.811971
H	-1.92485	-0.37871	-2.705481
H	-2.3538	-0.464571	-1.119343
H	-3.319209	0.0	0.0
