15

C	0.0	0.0	0.0
C	-0.308498	0.061223	-1.489401
F	1.401663	0.0	0.0
H	-1.371959	0.191828	-1.567132
H	-0.035271	-0.915812	-1.911756
N	-0.316409	1.152799	0.747234
H	0.48289	1.397716	1.338791
H	-1.15636	0.996843	1.302074
N	-0.404759	-1.300425	0.678257
O	-0.436142	-2.313726	-0.013122
O	-0.577699	-1.274561	1.888857
N	0.441756	1.18239	-2.071882
H	-0.000888	1.414927	-2.95211
H	1.403433	0.898432	-2.268939
H	-2.566431	0.0	0.0
