15

C	0.0	0.0	0.0
C	-0.528528	-0.237222	-1.392451
F	1.401625	0.0	0.0
H	0.150184	-0.932375	-1.884111
H	-1.51499	-0.694763	-1.256505
N	-0.594515	1.045698	0.663039
H	-0.361207	1.00549	1.649445
H	-1.629994	0.858019	0.542704
N	-0.178077	-1.371583	0.792933
O	-0.270526	-1.292245	2.015628
O	-0.111264	-2.424068	0.164692
N	-0.592728	1.020941	-2.142267
H	-0.645286	0.773984	-3.123225
H	-1.495866	1.438651	-1.912454
H	-3.049892	0.0	0.0
