15

C	0.0	0.0	0.0
C	-0.527821	-0.083718	-1.419938
F	1.358899	0.0	0.0
H	-0.261129	0.894615	-1.844048
H	-1.623669	-0.135883	-1.306164
N	-0.515424	1.195207	0.578613
H	-0.447434	1.117426	1.594634
H	-1.541022	1.112405	0.404347
N	-0.486157	-1.219692	0.758314
O	-1.437458	-1.029512	1.536248
O	-0.055667	-2.32897	0.451742
N	-0.048341	-1.218881	-2.208199
H	0.961464	-1.216202	-2.225308
H	-0.368857	-1.062744	-3.158358
H	-3.109202	0.0	0.0
