15

C	0.0	0.0	0.0
C	-0.545356	-0.032777	-1.409763
F	1.351437	0.0	0.0
H	-0.260846	0.935893	-1.830932
H	-1.640445	-0.064426	-1.296361
N	-0.584592	1.032243	0.730419
H	-0.343802	0.927785	1.710827
H	-1.619232	0.888667	0.611962
N	-0.270227	-1.382146	0.712002
O	-0.823515	-2.298903	0.115145
O	0.112526	-1.440379	1.881505
N	0.040876	-1.101221	-2.228817
H	-0.078935	-0.844167	-3.200479
H	-0.512017	-1.933673	-2.068474
H	-3.141278	0.0	0.0
