15

C	0.0	0.0	0.0
C	-0.505791	-0.051319	-1.420493
F	1.394705	0.0	0.0
H	-0.135946	-0.972088	-1.878798
H	-1.599086	-0.109296	-1.316345
N	-0.571389	0.986624	0.771127
H	-0.389179	0.794524	1.750237
H	-1.60214	0.888717	0.599462
N	-0.20589	-1.434714	0.656523
O	-0.190043	-2.432147	-0.05886
O	-0.268878	-1.460266	1.883686
N	-0.113008	1.163175	-2.133936
H	0.778348	1.022962	-2.587306
H	-0.800161	1.356755	-2.849021
H	-3.1018	0.0	0.0
