15

C	0.0	0.0	0.0
C	-0.505697	-0.009921	-1.420112
F	1.394303	0.0	0.0
H	-1.578382	-0.23628	-1.329359
H	0.014972	-0.814652	-1.95172
N	-0.563325	0.980409	0.785869
H	-0.408768	0.757685	1.763123
H	-1.591489	0.912349	0.587769
N	-0.22226	-1.440035	0.61365
O	-0.270302	-1.503052	1.839823
O	-0.240634	-2.410362	-0.137179
N	-0.349381	1.314413	-2.019393
H	-0.828903	1.31786	-2.910562
H	0.632008	1.499529	-2.187001
H	-3.088864	0.0	0.0
