15
Coordinates from ORCA-job run
  C   -0.55343958219541      0.37537350225422      0.10978715474145
  C   0.56980479371647     -0.66179197657325      0.20178756701306
  Cl  -0.44114762401156      1.49867168015106      1.51650956917436
  H   0.39197940939151     -1.38885455171789     -0.59913999142240
  H   0.43838250827015     -1.18779300980140      1.15279802652409
  C   -1.93033599228602     -0.27860322209114      0.13691876168499
  H   -2.03982090996204     -0.93842356981717     -0.72713317870260
  H   -2.03426561591390     -0.86430749111768      1.05198415124653
  H   -2.71752199654605      0.47542725636563      0.10919337154279
  C   -0.40264507929720      1.17702881283574     -1.10690091115090
  N   -0.28382353133650      1.77531346553300     -2.11107038127485
  C   1.97914708026931     -0.09679994738026      0.08833195728976
  H   2.71021890336464     -0.90411434417905      0.16621876050253
  H   2.18327364011901      0.62096537100264      0.88368165789233
  H   2.13019399641760      0.40090802453555     -0.87196651506114
