16
Coordinates from ORCA-job run
  C   -0.97143172381350      0.26440783405039      0.00544129627837
  C   0.40779828689808     -0.06823243688385      0.58658142451878
  Br  -2.06947869857939      1.20700890705719      1.29160358570443
  H   0.24974780769882     -0.65765117552886      1.48891499192876
  C   -0.92808745463378      1.00987174595841     -1.23929710521486
  N   -0.88889502980805      1.60530756517110     -2.25303327902637
  N   -1.65266667343811     -1.10353924471740     -0.25881430190164
  O   -2.11238178848014     -1.28816960597666     -1.37564726021394
  O   -1.65222956947635     -1.87909141177117      0.68440014537062
  N   1.06875165345202      1.19859119212758      1.04456414050612
  O   1.30888848544737      1.29131415870851      2.24493629780432
  O   1.33791988709719      2.02678432074534      0.17869178480795
  C   1.30358297719535     -0.76722163822021     -0.41944690261318
  H   0.86913045231879     -1.72287040664870     -0.71875168088211
  H   2.27220479909910     -0.97038868092889      0.04161071514668
  H   1.45714658902259     -0.14512112314279     -1.30175385221393
