16
Coordinates from ORCA-job run
  C   -0.88501250184950      0.11674868419443     -0.35277253102498
  C   0.51332761372693     -0.21952917095199      0.19066791141941
  Br  -1.35693142934281      1.99583122193971     -0.38250695125860
  H   0.58653010169601     -1.31069308657704      0.18392438820345
  C   -0.96689226455604     -0.39135067419559     -1.71571006773492
  N   -0.95965339410592     -0.81026046656536     -2.81491934118462
  N   -1.98107767210387     -0.59294894189113      0.47050399346146
  O   -2.98053579861592     -0.93802906889750     -0.14002184218133
  O   -1.75642631048636     -0.71150922593978      1.66602468818147
  N   0.72434256155083      0.15546392853041      1.63393386822742
  O   0.59756185821156      1.33660890027619      1.93131178241583
  O   1.08935484094872     -0.75101156795388      2.37372398221214
  C   1.63174223720566      0.41684293833993     -0.61780724938282
  H   1.56732163673319      1.50333380580910     -0.56268009522753
  H   1.58610905946199      0.10019674387479     -1.66035941349531
  H   2.59023946152553      0.09830598000773     -0.20331312263107
