16
Coordinates from ORCA-job run
  C   -0.86061885184089      0.33643464523791     -0.09643497070423
  C   0.53073311852075     -0.30898752846687      0.01793271432207
  Br  -1.02767178683386      1.89415490193542      1.01814150513199
  H   0.44698728455309     -1.29732508680319     -0.44363427105743
  C   -1.12440726916344      0.69948945520756     -1.48059082804802
  N   -1.32367085366304      0.98872828882886     -2.60339784578692
  N   -1.95649862173539     -0.72785474026313      0.26276569685672
  O   -1.86926603011666     -1.73659051048093     -0.42041000928343
  O   -2.77490528000957     -0.46410278210031      1.11761379363931
  N   0.79223037679604     -0.58680644966487      1.48017715188921
  O   -0.06446233855844     -1.25699709124460      2.05077661096785
  O   1.81856740800421     -0.14490487700372      1.98173695657316
  C   1.64188004970688      0.50631162832975     -0.60392630862236
  H   1.45632812526560      0.62727070011736     -1.67220916313020
  H   1.72487824782394      1.48594089818928     -0.13527998026434
  H   2.58989642125080     -0.01476145181851     -0.47526105248338
