16
Coordinates from ORCA-job run
  C   -0.81633839513494      0.25147973008789     -0.36551844578564
  C   0.48774464314803     -0.25057055420127      0.27721115584902
  Br  -0.71030907077584      2.10760699094673     -0.85696556568418
  H   0.24971019607764     -1.21465889536796      0.73623400475561
  C   -1.12478937299607     -0.54533718148492     -1.54344265240789
  N   -1.35914865462588     -1.19791525975714     -2.49378057540543
  N   -2.00998011599542      0.00205779220896      0.62148556034624
  O   -2.72914370132739      0.93089730079701      0.92195260523035
  O   -2.09622948569836     -1.16736924765384      0.96359622355753
  N   0.81053371720465      0.66115700400304      1.43821213291649
  O   1.91508297046076      1.18927047888221      1.47337694486652
  O   -0.08239991821067      0.78910629248927      2.27189030820262
  C   1.64753579965765     -0.36193730875321     -0.68635555135177
  H   1.88274677845172      0.60116266350622     -1.13757410820900
  H   1.40702503377128     -1.08250071011590     -1.46953249877606
  H   2.52995957599284     -0.71344909558711     -0.15278953810440
