16
Coordinates from ORCA-job run
  C   -0.97566317514237      0.26268068172079      0.00793785167971
  C   0.40735258923948     -0.06417113207885      0.58381670956781
  Br  -2.06831662141055      1.20495944547523      1.29703302825962
  H   0.25426009154985     -0.65730118570161      1.48492049301880
  C   -0.94466773649825      1.00218348168501     -1.24069748440664
  N   -0.91748447247826      1.59321273873592     -2.25742781063305
  N   -1.64374509470761     -1.11400825203265     -0.24771550667727
  O   -2.03887089013594     -1.33710346623777     -1.38236721339028
  O   -1.68719599379924     -1.86167088064976      0.71669186354240
  N   1.06623065564453      1.20224564333800      1.04401607008660
  O   1.28197996895059      2.05649306555980      0.18888549636824
  O   1.36159827791419      1.26724350178176      2.23384824971251
  C   1.30465176744319     -0.75611323609551     -0.42610285745478
  H   1.45459656315816     -0.12915410853514     -1.30573570410528
  H   2.27399933379253     -0.95813696239468      0.03397008545684
  H   0.87327473647970     -1.71135933457055     -0.73107327102524
