16
Coordinates from ORCA-job run
  C   -0.79263106837154      0.23889776549091     -0.42394272039176
  C   0.46351275880935     -0.22891461235683      0.33068356593106
  Br  -0.53218461832303      1.94618328262723     -1.26949047644683
  H   0.14531260564788     -1.06074946500114      0.96599331908563
  C   -1.16134893290804     -0.74833998722974     -1.42741519455502
  N   -1.43162188927016     -1.55826145302373     -2.23674893795555
  N   -2.00576332040367      0.28659659114460      0.56948023625302
  O   -2.64494993921924      1.31208099236236      0.66925910073596
  O   -2.19090243305146     -0.78203110802741      1.13144496881989
  N   0.85581811199118      0.86592401698583      1.29563478930941
  O   1.99856114676286      1.30388321771036      1.24515095623537
  O   -0.02534905989611      1.22400664102536      2.07286804997076
  C   1.61389714375505     -0.62102344160279     -0.56856938052728
  H   2.46275409182021     -0.92770674444730      0.04160910163813
  H   1.92832219721178      0.21129236383439     -1.19695589603014
  H   1.31857320544495     -1.46183805949203     -1.19800148207261
