16
Coordinates from ORCA-job run
  C   -0.97560023936036      0.25206365306190     -0.04837559900146
  C   0.37816637093521     -0.04896056087556      0.60429136802251
  Br  -2.14128489397430      1.21206095900601      1.16301083701924
  H   0.18439562254885     -0.62606801236320      1.50780968221579
  C   -0.88736713549662      0.96384099366295     -1.31003026432157
  N   -0.80364483199299      1.53520805394320     -2.33485846027084
  N   -1.62472332918513     -1.13368273749509     -0.30606673307839
  O   -1.68515493159254     -1.87246076542452      0.66422124964686
  O   -1.99590169884321     -1.36872520995533     -1.44625313701884
  N   1.00184924043334      1.23262787940414      1.07267315615856
  O   1.24299332396863      1.31916698321079      2.27317823860403
  O   1.24681262088991      2.07559356524298      0.21436879580881
  C   1.33310965338691     -0.75092154711569     -0.34415350317460
  H   0.92624921042080     -1.71562885711487     -0.65308713407189
  H   1.52345477621981     -0.13870182241679     -1.22638328227022
  H   2.27864624164167     -0.93541257477092      0.16965478573207
