16
Coordinates from ORCA-job run
  C   -0.97522124365562      0.26216421832223     -0.05824740476584
  C   0.37197998268347     -0.04096058487208      0.60813488595635
  Br  -2.13870310664092      1.25153258647508      1.12974337745393
  H   0.16582309639629     -0.59634843992691      1.52266673278770
  C   -0.87346116035649      0.95330844869244     -1.33039320271967
  N   -0.78368038317200      1.51106280794192     -2.36218344357177
  N   -1.62670820726305     -1.12547276499859     -0.29840635400210
  O   -1.94022689092062     -1.39937822689950     -1.44739383125119
  O   -1.73755611559422     -1.83023273503595      0.69237329667978
  N   1.00682545322248      1.24316293618272      1.05400155026085
  O   1.23164270015515      1.35657036493047      2.25553523104572
  O   1.27512262005980      2.06133875806343      0.17885053532047
  C   1.32410857717253     -0.77266068944117     -0.32017532596596
  H   0.91205015539447     -1.74210005444952     -0.60647955119120
  H   2.26757516489415     -0.95014474935326      0.19987950792636
  H   1.52042935762458     -0.18384187563133     -1.21690600396346
