16
Coordinates from ORCA-job run
  C   -0.82004855483513      0.14321321080304     -0.41541392754733
  C   0.49605436581025     -0.18230189501248      0.31116727673739
  Br  -0.88966876584902      1.97511709555344     -0.99565709246370
  H   0.34055233610555     -1.14504009821673      0.80693552231983
  C   -0.98016416202928     -0.73622517818505     -1.56360996484288
  N   -1.08169344718238     -1.45606648613713     -2.48857772377122
  N   -2.02843243784602     -0.19040619147660      0.52794678890259
  O   -2.85627749406045      0.66728422908190      0.74979616399361
  O   -2.00695450716843     -1.34610588442807      0.92281616094218
  N   0.65805729957611      0.81086971973498      1.43864323326303
  O   -0.28309063453123      0.87319173661289      2.22547840100015
  O   1.69387138254138      1.46208596493876      1.49574741869530
  C   1.70945213967472     -0.20755736114254     -0.59044249612833
  H   1.58809802755855     -0.98205060006163     -1.34926797617524
  H   2.59520330615675     -0.43869886454849      0.00031200292254
  H   1.86404114607860      0.75569060248369     -1.07487378784788
