16
Coordinates from ORCA-job run
  C   -1.03810939276503      0.05566874090065      0.03691898132880
  C   0.38848406463758      0.10389083302299      0.61145740434715
  Br  -2.12502076898553     -1.09016287812711      1.17098257087551
  H   0.29006653065488      0.49875775006187      1.62557388831384
  C   -1.62520307014368      1.38715604148539      0.03674170042423
  N   -2.06461311405651      2.47532494659016      0.11483506920302
  N   -1.11865645129582     -0.52840450708738     -1.38509181175458
  O   -1.71835167765673      0.13354502046872     -2.21589310427944
  O   -0.59780750304816     -1.62177090346595     -1.53551280528568
  N   1.16632953029426      1.15054628300095     -0.13940471330294
  O   2.00366311240930      1.77250910597868      0.50246038661461
  O   0.93354587404723      1.25471355767346     -1.34207611651103
  C   1.21991955095869     -1.16943841028138      0.61957064230419
  H   1.49724427930214     -1.46498981471085     -0.38981800787104
  H   0.66941314262508     -1.98498020879767      1.08619526782852
  H   2.12109589302229     -0.97236555671253      1.20306064776486
