16
Coordinates from ORCA-job run
  C   -0.79870809952973      0.33093859684621     -0.34228612371598
  C   0.46648846749940     -0.29196535416969      0.27182003747115
  Br  -0.47991364647084      2.10875426632932     -1.00210278412332
  H   0.13351387937985     -1.17390942459951      0.82690355623178
  C   -1.28589000780431     -0.50880403425678     -1.42625804721792
  N   -1.65676235465142     -1.20057872656335     -2.30257896805185
  N   -1.94781843394566      0.32893317666543      0.72570633592051
  O   -2.16702758387149     -0.78621932175558      1.17346647417705
  O   -2.51541088315015      1.36939559780417      0.98170156036776
  N   0.98146318336271      0.65764843280203      1.32858681025950
  O   0.16984900158887      0.97201135959951      2.19530223181961
  O   2.14547487928358      1.03201127335059      1.25671061520228
  C   1.53668583486798     -0.63870364763683     -0.73828812687311
  H   1.15297264197395     -1.37987052162472     -1.44101584976507
  H   1.86787845196439      0.24357847795421     -1.28452312675638
  H   2.39720466950288     -1.06422015074492     -0.22314459494591
