16
Coordinates from ORCA-job run
  C   -0.98386367427434      0.19705014594121      0.10509569654167
  C   0.45673915849861     -0.08996958123288      0.54360605188999
  Br  -2.02287134206164      0.94698070114365      1.55560844780280
  H   0.41119140576688     -0.76990290266125      1.39366834127928
  C   -1.09534313422010      1.04635435237124     -1.06653438587683
  N   -1.19216858843875      1.72080352539548     -2.02547124936578
  N   -1.59300917210315     -1.19070064642003     -0.22862330170983
  O   -1.50343919594949     -2.02732901372544      0.65624852489194
  O   -2.08160980624374     -1.33013948197012     -1.33979330456308
  N   1.07622176122760      1.17057764542286      1.07057937568147
  O   1.46543807660864      1.14658038435451      2.23462990777182
  O   1.16980171687612      2.11117625629500      0.28703887075517
  C   1.30894741224431     -0.62838366254753     -0.59125437821026
  H   1.35246151274929      0.08442537060769     -1.41549800361792
  H   2.32174768053359     -0.80899016076856     -0.22558263882073
  H   0.90975618878616     -1.57753293220576     -0.95371795444967
