16
Coordinates from ORCA-job run
  C   -0.97286954124869      0.27191188192372     -0.03113831172964
  C   0.38625043342859     -0.05434374301793      0.59885467130006
  Br  -2.09910579491856      1.25316192390311      1.19925628012079
  H   0.19714420013581     -0.62494469057354      1.50760416766343
  C   -0.89310778414327      0.98282630572933     -1.29393467844949
  N   -0.83109320435722      1.54954222339499     -2.32290856929618
  N   -1.64576728982060     -1.10427062113645     -0.27814242426872
  O   -1.72547465936418     -1.83057687109869      0.70007741066653
  O   -2.00073263004177     -1.35115463102131     -1.42105824764885
  N   1.04230093166248      1.21629808555310      1.05210525804722
  O   1.30170679607335      1.30411479832360      2.24879161525337
  O   1.29263784641213      2.04968583288090      0.18599287116569
  C   1.31036035374187     -0.77720040765155     -0.36428081953553
  H   2.26138364993346     -0.97811086128241      0.13298701500512
  H   0.88006156083822     -1.73475552891164     -0.66348677450433
  H   1.49630513166837     -0.17118369701525     -1.25171946378950
