18

C	0.0	0.0	0.0
C	-0.255427	-0.048108	-1.562723
Br	1.987064	0.0	0.0
H	0.425226	-0.809379	-1.953785
N	-0.569157	1.167013	0.596422
H	-0.447995	1.086271	1.60178
H	-1.586523	1.035843	0.424072
C	-0.475388	-1.311784	0.605876
H	-0.14233	-1.375511	1.647134
H	-0.099682	-2.181336	0.061018
H	-1.569085	-1.257962	0.566374
N	0.293113	1.218671	-2.221568
O	1.3333	1.110235	-2.876507
O	-0.367253	2.251377	-2.131863
N	-1.597681	-0.259197	-1.999971
H	-1.84784	0.462254	-2.661134
H	-2.289566	-0.184846	-1.205937
F	-3.113817	0.0	0.0
