18

C	0.0	0.0	0.0
C	-0.20772	-0.07079	-1.554615
Br	2.011179	0.0	0.0
H	0.403121	0.739854	-1.972235
N	-0.535525	1.143085	0.627239
H	-1.572137	0.89786	0.566201
H	-0.378614	1.959021	0.044995
C	-0.420963	-1.254133	0.740367
H	-0.092711	-1.153121	1.777428
H	0.006302	-2.15043	0.295315
H	-1.514414	-1.25424	0.675556
N	-1.576477	0.352769	-2.067541
O	-1.797489	1.557829	-2.018426
O	-2.256913	-0.463779	-2.674215
N	0.088884	-1.380355	-2.086425
H	-0.15801	-1.413892	-3.067615
H	1.084582	-1.533113	-1.984904
F	-2.768716	0.0	0.0
