18

C	0.0	0.0	0.0
C	-0.520162	0.100235	-1.461397
Br	1.955148	0.0	0.0
H	-1.605732	-0.043076	-1.32063
N	-0.558476	1.165414	0.64118
H	-1.58604	0.942439	0.547902
H	-0.324606	1.117045	1.628989
C	-0.422395	-1.302496	0.676207
H	-0.093013	-1.278141	1.720115
H	-0.002467	-2.187161	0.197458
H	-1.515613	-1.297233	0.620151
N	-0.009761	-1.027907	-2.297758
O	-0.573725	-2.118104	-2.189821
O	0.949049	-0.813185	-3.039618
N	-0.238567	1.331137	-2.146727
H	-0.665581	2.052838	-1.577312
H	0.763913	1.491022	-2.123742
F	-2.884912	0.0	0.0
