18

C	0.0	0.0	0.0
C	-0.16598	-0.247935	-1.554934
Br	2.066433	0.0	0.0
H	0.481429	0.47505	-2.051389
N	-0.542124	1.197871	0.487884
H	-1.579011	0.929774	0.479204
H	-0.42033	1.932016	-0.202575
C	-0.429828	-1.166009	0.859876
H	0.040293	-2.103257	0.562637
H	-0.164659	-0.944158	1.894962
H	-1.521972	-1.184382	0.744672
N	-1.522741	0.133264	-2.119687
O	-1.709943	1.34029	-2.254489
O	-2.262384	-0.749644	-2.524379
N	0.127443	-1.572676	-2.048274
H	0.988042	-1.882142	-1.615078
H	-0.626929	-2.186522	-1.763089
F	-2.772356	0.0	0.0
