18

C	0.0	0.0	0.0
C	-0.516637	0.123845	-1.451994
Br	1.954551	0.0	0.0
H	-1.60998	0.023551	-1.288959
N	-0.532464	1.087142	0.77
H	-0.393725	1.934591	0.225946
H	-1.554781	0.868682	0.715871
C	-0.435949	-1.300487	0.660129
H	-0.124989	-1.256317	1.705751
H	-1.527593	-1.304395	0.584551
H	-4.3e-05	-2.178033	0.186105
N	-0.076741	-1.04241	-2.324882
O	-0.634485	-2.126639	-2.159204
O	0.80635	-0.84111	-3.164944
N	-0.160059	1.375492	-2.037618
H	-0.738429	1.549866	-2.848948
H	0.809335	1.3508	-2.33187
F	-2.893896	0.0	0.0
