18

C	0.0	0.0	0.0
C	-0.243576	0.018081	-1.559422
Br	1.98881	0.0	0.0
H	0.505376	-0.608586	-2.049291
N	-0.597449	1.023779	0.7798
H	-0.473058	1.918423	0.321659
H	-1.611025	0.797854	0.730661
C	-0.457557	-1.350547	0.528081
H	-0.05909	-2.169975	-0.072362
H	-0.123128	-1.454489	1.562339
H	-1.55028	-1.336446	0.481482
N	0.181301	1.409686	-2.135328
O	1.000034	1.394987	-3.058714
O	-0.379728	2.431635	-1.734459
N	-1.543446	-0.335164	-1.919791
H	-2.304458	-0.081721	-1.228102
H	-1.745282	-0.183022	-2.8965
F	-3.119141	0.0	0.0
