18

C	0.0	0.0	0.0
C	-0.510369	-0.027299	-1.456509
Br	1.978986	0.0	0.0
H	-1.604237	-0.10816	-1.283029
N	-0.523309	1.164712	0.651663
H	-1.545778	0.942893	0.627614
H	-0.388806	1.945989	0.01586
C	-0.428984	-1.223063	0.794101
H	-1.520833	-1.236839	0.719744
H	-0.117392	-1.068674	1.828859
H	0.008149	-2.144838	0.414524
N	-0.0731	-1.279974	-2.201738
O	-0.631233	-2.339507	-1.921019
O	0.807764	-1.169868	-3.060017
N	-0.152081	1.155928	-2.168952
H	-0.729643	1.245819	-2.993981
H	0.817108	1.099754	-2.457803
F	-2.88535	0.0	0.0
