18

C	0.0	0.0	0.0
C	-0.391461	-0.264798	-1.519868
Br	1.997314	0.0	0.0
H	0.419929	-0.826933	-1.99148
N	-0.499028	1.255634	0.419597
H	-0.876034	1.259145	1.352698
H	0.101568	2.038429	0.21652
C	-0.560536	-1.101797	0.869708
H	-0.275249	-2.087047	0.494407
H	-1.652589	-0.959356	0.816827
H	-0.188873	-0.992044	1.892921
N	-0.355765	1.094776	-2.206234
O	-1.410872	1.617935	-2.529468
O	0.758327	1.611234	-2.360278
N	-1.648419	-0.849946	-1.770302
H	-1.56708	-1.849817	-1.653562
H	-2.402395	-0.461821	-1.103188
F	-3.237196	0.0	0.0
