14
Coordinates from ORCA-job run
  C   -0.17582266483589     -0.40693385751149     -0.09195240975272
  C   1.21948531427309      0.17971901464767      0.12729877191069
  Br  -0.14653637718464     -1.60699824754644     -1.62239441532229
  H   1.22163964267953      0.72529365675535      1.07743275565747
  H   1.95623483109194     -0.61964382211151      0.20782886794718
  C   -1.25526370811150      0.63596865889529     -0.26064094813917
  H   -1.03241240313683      1.25218053663150     -1.13224258131428
  H   -2.22686550934367      0.16519709284486     -0.39049989624340
  H   -1.28804978241468      1.27201287784321      0.62911610723689
  N   -0.49621007710693     -1.28905258673963      1.11758607119972
  O   -1.67931466627393     -1.45744074592491      1.38365711279884
  O   0.45546056666490     -1.78029470327653      1.71596648766925
  C   1.58204172755372      1.09267635885897     -0.95144839902589
  N   1.86661310614490      1.83931576663368     -1.81070752462228
