14
Coordinates from ORCA-job run
  C   -0.26161418225713     -0.25132334717194     -0.22034613742047
  C   0.93922847025404      0.68124598951121     -0.36650699018353
  Br  -0.30053014047481     -1.49775217446983     -1.69784143579309
  H   0.92081728171925      1.41427368785642      0.44255122486705
  H   0.84196044644799      1.21216113651963     -1.31695369184267
  C   -1.57194347922564      0.51087184749207     -0.13606696993968
  H   -2.40422678577530     -0.18502264766118     -0.02339223067948
  H   -1.72136863760698      1.09275322843755     -1.04650137843879
  H   -1.54307127476928      1.18384853167939      0.72521522395886
  N   -0.13024037582432     -1.02295762144070      1.09780803428125
  O   0.38129779511189     -0.38250781724662      2.01314730411006
  O   -0.61219300212954     -2.14160130234670      1.17524683925302
  C   2.21597206543369     -0.02636716324551     -0.33693575584182
  N   3.24591181909613     -0.58762234791379     -0.31042403633071
