15
Coordinates from ORCA-job run
  C   0.42410100054005      0.19623504555269      0.80817753811492
  C   -0.43284473380469      0.36972572833871     -0.44801298861216
  Cl  0.71141298928170      1.79101129251652      1.57069235842178
  H   0.10403791774561      1.04526720950149     -1.12229305131585
  H   -0.14461301243747     -0.38308976496576      1.54573473395497
  C   1.76069572203863     -0.46731142700783      0.53492057533000
  H   2.32510806453888      0.12025772776635     -0.19259909214438
  H   1.60920833017803     -1.46496283279513      0.12601067544824
  H   2.34648236705664     -0.53041237516898      1.45316502469085
  N   -1.68934977799819      1.01651733929946     -0.10873009586916
  H   -2.23065302262283      1.18987212732503     -0.94674437870426
  H   -2.23803415999607      0.42024690965627      0.50128487553616
  N   -0.50540529762625     -0.93112179628519     -1.11836159446702
  H   -0.94226542237678     -0.81764233755564     -2.02583876646677
  H   -1.09788096451725     -1.55459284617798     -0.57840581391732
