15
Coordinates from ORCA-job run
  C   0.41629255057653     -0.29700622442205      0.76923538644859
  C   -0.49607089534153     -0.16986180753655     -0.45029881559099
  Cl  -0.19659975327100      0.71540557950823      2.11762392377666
  H   -0.00576267206461     -0.77251309561144     -1.23313884418570
  H   0.36837969963179     -1.32711617358533      1.13553605362699
  C   1.84847832813387      0.08705858090470      0.45917463965549
  H   2.47801811298452     -0.02741726214431      1.34260334479040
  H   2.24078773655650     -0.55739188860331     -0.33320927971116
  H   1.88554111029124      1.12007140285192      0.11698356246284
  N   -0.50862014618538      1.19400932820336     -0.92996107934173
  H   -0.89211939602832      1.23306883586041     -1.86600998160060
  H   -1.11253083448907      1.73598222885171     -0.32137216397092
  N   -1.83649812952977     -0.64868725244550     -0.12364905968259
  H   -2.38728668141268     -0.71071990354900     -0.97210849145085
  H   -1.80100902985209     -1.57488234828283      0.28859080477358
