15
Coordinates from ORCA-job run
  C   0.45733396367383     -0.41167482547598      0.73895976264456
  C   -0.49530446085412     -0.30710805769562     -0.44952132297770
  Cl  -0.31437944053825      0.20836892190084      2.23457574992482
  H   0.01408065485488     -0.84947494758665     -1.26477113077468
  H   0.61843378996294     -1.47627675578680      0.91694069367753
  C   1.77250566963761      0.31171127306030      0.52089460328090
  H   2.46751993200418      0.09995188673402      1.33428368587988
  H   1.61655762003194      1.39109057522891      0.48744932836186
  H   2.23140199023033     -0.01725823244659     -0.41709450881542
  N   -0.75343258162056      1.09371407727422     -0.77698765395369
  H   -1.47147612388866      1.13747821769143     -1.49019824420985
  H   0.07516078816323      1.53639780554649     -1.15834240562082
  N   -1.70646508357807     -1.04293212808167     -0.17059432537339
  H   -2.25744384974504     -1.14676727736723     -1.01385162560246
  H   -2.25549286833425     -0.52622053299565      0.50725739355846
