16

C	-0.21445	0.057259	-1.515701
C	0.0	0.0	0.0
Cl	-1.984741	0.27219	-1.943541
H	1.098213	0.0	0.0
N	0.505612	1.225857	-1.942979
H	1.448199	1.148921	-1.540441
H	0.573149	1.239916	-2.954826
C	0.253217	-1.242863	-2.148898
H	-0.334152	-2.099397	-1.811836
H	1.303502	-1.377985	-1.864988
H	0.17217	-1.167183	-3.237164
C	-0.505595	-1.207554	0.621157
N	-0.893006	-2.206617	1.106154
C	-0.470512	1.188313	0.690313
N	-0.839448	2.122594	1.301168
H	2.566569	0.0	0.0
