16

C	-0.358585	-0.021441	-1.497124
C	0.0	0.0	0.0
Cl	0.143442	1.648719	-2.167738
H	1.09731	0.0	0.0
N	0.398206	-1.073431	-2.054683
H	1.373154	-0.977466	-1.759301
H	0.335856	-1.076314	-3.063211
C	-1.841272	-0.135562	-1.783442
H	-2.377895	0.697314	-1.327474
H	-2.2103	-1.078786	-1.374404
H	-2.023424	-0.113875	-2.861116
C	-0.444482	-1.227168	0.641879
N	-0.77239	-2.217614	1.184917
C	-0.518027	1.149811	0.716799
N	-0.898219	2.079951	1.328728
H	2.558076	0.0	0.0
