16

C	-0.356171	-0.042271	-1.48447
C	0.0	0.0	0.0
Cl	-2.235475	-0.405239	-1.656962
H	1.097363	0.0	0.0
N	-0.038585	1.186516	-2.085892
H	-0.505617	1.969069	-1.645226
H	-0.236433	1.175392	-3.077195
C	0.364578	-1.189913	-2.151309
H	1.430417	-1.054476	-1.929662
H	0.185838	-1.17758	-3.229595
H	0.024383	-2.145066	-1.751237
C	-0.422573	-1.190161	0.714156
N	-0.701146	-2.185275	1.275109
C	-0.480897	1.206376	0.644205
N	-0.838925	2.226644	1.108206
H	2.525193	0.0	0.0
