13

C	-0.484926	0.111677	-1.447731
C	0.0	0.0	0.0
Cl	-0.244628	-1.480289	-2.26231
H	1.093931	0.0	0.0
H	-1.56334	0.284308	-1.50018
H	-0.353301	-0.923091	0.467108
C	0.287439	1.183812	-2.191891
H	0.073919	2.157675	-1.740471
H	0.004605	1.215813	-3.24668
H	1.356536	0.984652	-2.085763
C	-0.49297	1.137577	0.763269
N	-0.907226	2.066264	1.353323
H	2.855914	0.0	0.0
