13

C	-0.489032	0.121476	-1.440279
C	0.0	0.0	0.0
Cl	-0.196604	-1.41278	-2.337214
H	1.093618	0.0	0.0
H	-1.572692	0.262889	-1.487168
H	-0.292613	0.919036	0.524716
C	0.253556	1.252804	-2.128642
H	0.004271	2.199984	-1.63852
H	1.32808	1.08485	-2.022393
H	-0.020242	1.321993	-3.183721
C	-0.567668	-1.12644	0.721305
N	-1.038173	-2.021837	1.31936
H	2.853267	0.0	0.0
