13

C	-0.343124	0.010671	-1.474469
C	0.0	0.0	0.0
Cl	-2.121129	0.260821	-1.773964
H	1.095425	0.0	0.0
H	0.138644	0.889054	-1.907956
H	-0.338455	0.915496	0.492459
C	0.137902	-1.240761	-2.174616
H	1.208906	-1.332615	-1.963002
H	-0.379916	-2.121895	-1.790891
H	-0.023924	-1.177302	-3.252896
C	-0.526729	-1.156808	0.702296
N	-0.939566	-2.099735	1.269544
H	2.791976	0.0	0.0
