15

C	-0.241876	-0.077648	-1.521236
C	0.0	0.0	0.0
Cl	-0.400135	1.664702	-2.209586
H	1.096846	0.0	0.0
H	-1.213748	-0.494721	-1.800777
N	0.842325	-0.802576	-2.035613
H	1.715206	-0.548345	-1.539636
H	0.912629	-0.765675	-3.041465
N	-0.488929	-1.350924	0.515525
O	-1.680834	-1.419099	0.850225
O	0.293289	-2.293018	0.573922
N	-0.596459	1.07309	0.705609
H	-1.583344	0.903895	0.869193
H	-0.114954	1.187296	1.590497
F	2.652334	0.0	0.0
