15

C	-0.257006	-0.160332	-1.514717
C	0.0	0.0	0.0
Cl	-0.807038	1.467067	-2.233007
H	1.098291	0.0	0.0
H	-1.1103	-0.803874	-1.72371
N	0.919045	-0.612015	-2.155548
H	0.837881	-1.58321	-2.411588
H	1.742789	-0.455051	-1.550214
N	-0.377709	-1.279948	0.661783
O	-0.582354	-1.24645	1.875534
O	-0.391846	-2.317703	-0.005713
N	-0.674101	1.075601	0.696034
H	-0.39871	1.930731	0.231065
H	-0.275831	1.104944	1.627592
F	2.645341	0.0	0.0
