15

C	-0.464895	0.14275	-1.434542
C	0.0	0.0	0.0
Cl	0.066665	-1.315381	-2.421703
H	1.094705	0.0	0.0
H	0.14506	0.947522	-1.845697
N	-1.850402	0.450867	-1.592122
H	-2.390778	-0.334516	-1.252157
H	-2.069307	0.616744	-2.564909
N	-0.567182	-1.22035	0.659406
O	-0.000971	-1.627245	1.666144
O	-1.603303	-1.729725	0.203171
N	-0.405731	1.133286	0.797597
H	-1.139769	1.65929	0.344006
H	0.414416	1.701262	0.960887
F	2.573816	0.0	0.0
