15

C	-0.18836	0.198258	-1.49643
C	0.0	0.0	0.0
Cl	-1.880828	0.828908	-1.902275
H	1.103849	0.0	0.0
H	-0.173821	-0.760482	-2.010832
N	0.803685	1.145859	-1.908636
H	0.964906	1.069676	-2.90414
H	1.667024	0.899852	-1.394187
N	-0.538565	-1.332858	0.420605
O	-0.345914	-2.278448	-0.3504
O	-1.092768	-1.443829	1.511038
N	-0.432847	1.048749	0.854928
H	0.350513	1.662241	1.028658
H	-1.202983	1.570054	0.458428
F	2.612189	0.0	0.0
