15

C	-0.484198	0.019441	-1.420877
C	0.0	0.0	0.0
Cl	-2.435136	0.209534	-1.369146
H	1.093956	0.0	0.0
H	-0.411542	-0.943456	-1.911004
N	0.100887	1.0478	-2.150887
H	-0.335771	1.216184	-3.04361
H	0.200993	1.89227	-1.607995
N	-0.450587	-1.284321	0.639579
O	-0.383463	-2.299858	-0.059438
O	-0.790055	-1.285363	1.818221
N	-0.357259	1.12948	0.775897
H	0.438062	1.724304	0.940831
H	-1.202371	1.608964	0.508822
F	2.530733	0.0	0.0
