15

C	-0.530933	-0.02846	-1.400379
C	0.0	0.0	0.0
Cl	-2.470438	-0.277959	-1.284913
H	1.098222	0.0	0.0
H	-0.251355	-0.928058	-1.938151
N	-0.216445	1.148086	-2.068563
H	-0.676026	1.235723	-2.96168
H	-0.386735	1.940798	-1.461027
N	-0.368696	-1.274922	0.687105
O	-0.771137	-1.221173	1.852543
O	-0.192422	-2.32092	0.064395
N	-0.427798	1.168393	0.701481
H	0.271571	1.384868	1.399495
H	-1.316209	1.016349	1.161178
F	2.525165	0.0	0.0
