15

C	-0.552491	0.040932	-1.412167
C	0.0	0.0	0.0
Cl	-0.063128	-1.507133	-2.29178
H	1.089625	0.0	0.0
H	0.00802	0.820724	-1.924733
N	-1.951044	0.29074	-1.496084
H	-2.247419	0.329972	-2.462106
H	-2.460688	-0.439077	-1.013941
N	-0.533013	-1.250388	0.685638
O	-1.755707	-1.28946	0.915538
O	0.242469	-2.143808	1.002829
N	-0.417832	1.182582	0.686672
H	-1.39553	1.161076	0.942576
H	0.179304	1.318003	1.491485
F	2.5886	0.0	0.0
