17

C	-0.492669	0.061322	-1.445834
C	0.0	0.0	0.0
Cl	-0.105437	-1.508061	-2.26566
H	1.094247	0.0	0.0
H	-0.303625	0.958464	0.446746
N	-1.933702	0.240181	-1.611005
H	-2.184358	1.107616	-1.143015
H	-2.414955	-0.511358	-1.128535
C	0.24134	1.158785	-2.192213
H	-0.005978	2.126608	-1.740709
H	1.318673	1.007343	-2.105842
H	-0.065167	1.168111	-3.239352
C	-0.53362	-1.143308	0.850152
H	-0.148808	-1.047293	1.867919
H	-1.62797	-1.152962	0.907706
H	-0.198228	-2.105143	0.461406
Br	3.730439	0.0	0.0
