17

C	-0.427397	-0.034477	-1.469568
C	0.0	0.0	0.0
Cl	-0.075409	1.616954	-2.150364
H	1.095428	0.0	0.0
H	-0.352561	0.919869	0.475763
N	0.339564	-0.969165	-2.270924
H	0.087052	-1.909853	-1.983158
H	1.326611	-0.840067	-2.048145
C	-1.909785	-0.282169	-1.679902
H	-2.177342	-1.286803	-1.339185
H	-2.147868	-0.197173	-2.74095
H	-2.501725	0.44379	-1.118811
C	-0.472731	-1.214934	0.795872
H	-0.184293	-2.149916	0.306657
H	0.014354	-1.2115	1.773413
H	-1.555395	-1.226717	0.954937
Br	3.683856	0.0	0.0
