17

C	-0.449348	-0.025373	-1.446396
C	0.0	0.0	0.0
Cl	0.246337	1.316008	-2.319927
H	1.088273	0.0	0.0
N	-0.007727	-1.316872	-2.130566
O	-0.41028	-1.457887	-3.282618
O	0.731442	-2.071062	-1.512464
N	-1.978096	-0.056031	-1.64844
O	-2.550759	0.893282	-2.153288
O	-2.498486	-1.087092	-1.222725
N	-0.432497	-1.03245	0.873444
H	-1.313571	-1.449623	0.611074
H	0.307287	-1.72019	0.932657
N	-0.502984	1.308228	0.569523
O	0.304725	2.118744	1.004657
O	-1.731107	1.440118	0.602846
H	2.616366	0.0	0.0
