17

C	-0.695822	-0.055866	-1.326184
C	0.0	0.0	0.0
Cl	-2.456377	-0.020178	-1.212266
H	1.09205	0.0	0.0
N	-0.22827	1.00459	-2.32816
O	0.851586	1.525919	-2.099632
O	-0.934906	1.169679	-3.31643
N	-0.271343	-1.377734	-2.006414
O	0.846465	-1.345818	-2.507832
O	-1.033896	-2.326556	-1.964846
N	-0.225051	-1.204834	0.731824
H	-1.020528	-1.124679	1.352402
H	0.61708	-1.377159	1.277777
N	-0.373546	1.212838	0.710202
O	-0.761403	2.201233	0.063457
O	-0.160221	1.216635	1.933585
H	2.365603	0.0	0.0
