17

C	-0.465296	0.013243	-1.446839
C	0.0	0.0	0.0
Cl	0.037791	-1.487163	-2.228603
H	1.088926	0.0	0.0
N	-1.980777	0.155344	-1.530219
O	-2.399837	1.309398	-1.501769
O	-2.655403	-0.869905	-1.48083
N	0.101545	1.138913	-2.293896
O	-0.393469	1.254266	-3.412284
O	1.066247	1.740892	-1.836289
N	-0.449667	-1.111745	0.766266
H	-1.423961	-1.338741	0.618093
H	0.145399	-1.908411	0.581281
N	-0.495196	1.252814	0.676718
O	-1.592476	1.169465	1.237418
O	0.212119	2.256377	0.658426
H	2.572729	0.0	0.0
