17

C	-0.228643	-0.021925	-1.466978
C	0.0	0.0	0.0
Cl	-1.757257	-0.626237	-2.056116
H	1.09542	0.0	0.0
N	0.141588	1.276688	-2.117062
O	0.734706	2.099207	-1.424941
O	-0.092513	1.37681	-3.316812
N	0.953795	-0.99711	-1.932025
O	2.086909	-0.389545	-1.823046
O	0.765904	-2.19364	-1.621814
N	-0.552895	-1.145158	0.692225
H	-0.399785	-1.940352	0.070428
H	0.055806	-1.298197	1.493802
N	-0.490974	1.206202	0.718302
O	0.057788	1.434414	1.79509
O	-1.446934	1.823864	0.261013
H	2.512301	0.0	0.0
