17

C	-0.473741	-0.018275	-1.443829
C	0.0	0.0	0.0
Cl	0.55161	0.82617	-2.573558
H	1.091937	0.0	0.0
N	-0.51042	-1.486807	-1.902724
O	-1.605776	-1.972961	-2.171319
O	0.567131	-2.056015	-1.942993
N	-1.937628	0.45404	-1.590707
O	-2.281687	1.018377	-2.615262
O	-2.655341	0.154134	-0.644112
N	-0.345949	-1.095645	0.810115
H	0.413201	-1.761466	0.870159
H	-1.255448	-1.500213	0.65546
N	-0.376893	1.288787	0.593224
O	-0.59918	2.225788	-0.194335
O	-0.319082	1.4031	1.817588
H	2.446212	0.0	0.0
