17

C	-0.602418	0.02293	-1.373381
C	0.0	0.0	0.0
Cl	-2.367422	0.031882	-1.415766
H	1.088188	0.0	0.0
N	-0.067878	1.143085	-2.267955
O	0.889301	1.775001	-1.849199
O	-0.597704	1.244734	-3.370595
N	-0.100951	-1.248296	-2.097898
O	1.04354	-1.159568	-2.52278
O	-0.836027	-2.215933	-2.153584
N	-0.230573	-1.258674	0.63098
H	0.600781	-1.465138	1.183487
H	-1.043822	-1.235748	1.236243
N	-0.42902	1.146861	0.778305
O	-0.870089	2.156403	0.19832
O	-0.237956	1.069899	2.004971
H	2.372627	0.0	0.0
