13

C	0.0	0.0	0.0
C	-0.486785	-0.399703	-1.375595
Cl	1.797959	0.0	0.0
H	-0.183258	-1.442412	-1.544469
H	-0.26466	1.048826	0.163946
H	-1.577205	-0.356536	-1.318361
N	-0.497831	-0.924821	0.981189
H	-1.513872	-0.941701	0.859454
H	-0.322281	-0.554349	1.908376
N	-0.024787	0.540409	-2.395397
H	-0.65712	0.504957	-3.184341
H	0.89475	0.27163	-2.719595
Br	-3.855166	0.0	0.0
