13

C	0.0	0.0	0.0
C	-0.548684	-0.166112	-1.413914
Cl	1.839586	0.0	0.0
H	0.212301	0.125832	-2.1394
H	-0.232354	1.01108	0.327033
H	-0.764557	-1.237714	-1.567273
N	-0.561774	-0.930353	0.891192
H	-0.301818	-0.782624	1.854173
H	-0.407379	-1.889178	0.616321
N	-1.691454	0.722793	-1.545641
H	-2.093705	0.63476	-2.470655
H	-2.442453	0.457904	-0.904846
Br	-4.783621	0.0	0.0
