13

C	0.0	0.0	0.0
C	-0.520771	0.113544	-1.411262
Cl	1.854692	0.0	0.0
H	-0.26641	-0.808809	-1.958333
H	-0.254286	0.902788	0.550545
H	-1.608692	0.149613	-1.285614
N	-0.512537	-1.134119	0.645032
H	-0.263739	-1.999321	0.190581
H	-0.316512	-1.166181	1.632508
N	-0.054628	1.338186	-2.05106
H	0.866732	1.19946	-2.446494
H	-0.690332	1.581291	-2.798858
Br	-4.232561	0.0	0.0
