13

C	0.0	0.0	0.0
C	-0.328338	0.219557	-1.49845
Cl	1.788199	0.0	0.0
H	0.19356	1.126271	-1.823384
H	-0.30929	0.86765	0.585767
H	0.138479	-0.613905	-2.040502
N	-0.553414	-1.169727	0.608952
H	-1.536807	-0.984082	0.799085
H	-0.503978	-1.949693	-0.03755
N	-1.709971	0.312301	-1.89672
H	-2.233278	-0.519798	-1.654605
H	-2.199704	1.043662	-1.395472
Br	-4.403615	0.0	0.0
