13

C	0.0	0.0	0.0
C	-0.451862	0.324741	-1.421419
Cl	1.798081	0.0	0.0
H	0.067148	-0.359805	-2.096501
H	-0.266952	0.827115	0.668705
H	-1.522463	0.128432	-1.481691
N	-0.489865	-1.289823	0.396188
H	-1.509253	-1.23047	0.349915
H	-0.238917	-1.470871	1.361283
N	-0.223673	1.699664	-1.850835
H	0.715678	1.982168	-1.599189
H	-0.870845	2.296309	-1.351113
Br	-3.785697	0.0	0.0
