15

C	0.0	0.0	0.0
C	-0.40636	0.254788	-1.488017
Cl	1.818642	0.0	0.0
H	0.446959	-0.066305	-2.093073
H	-0.263178	0.863854	0.616812
N	-0.506107	-1.260772	0.465947
H	-1.527017	-1.135646	0.457482
H	-0.216545	-1.394406	1.429034
N	-0.536794	1.703798	-1.644387
H	-0.755065	1.855677	-2.625021
H	-1.384946	1.960165	-1.141957
N	-1.568164	-0.449372	-1.985343
H	-2.361277	-0.258361	-1.341956
H	-1.38861	-1.446535	-1.930344
H	-3.289842	0.0	0.0
