15

C	0.0	0.0	0.0
C	-0.531198	0.018152	-1.420822
Cl	1.786842	0.0	0.0
H	-1.609825	0.177622	-1.252548
H	-0.258729	0.973397	0.428635
N	-0.568272	-1.121746	0.696864
H	-1.593755	-0.951348	0.585727
H	-0.368883	-1.029175	1.689408
N	-0.248819	-1.258814	-2.084269
H	-0.264908	-1.974324	-1.361344
H	-1.031055	-1.459876	-2.698635
N	0.000206	1.158517	-2.149084
H	0.904105	0.879017	-2.516989
H	-0.603054	1.327424	-2.944979
H	-3.170093	0.0	0.0
