15

C	0.0	0.0	0.0
C	-0.560149	-0.244284	-1.432288
Cl	1.852262	0.0	0.0
H	0.292896	-0.282242	-2.118713
H	-0.218163	1.020735	0.30867
N	-0.509841	-0.903635	0.930657
H	-0.179538	-0.772427	1.872957
H	-0.452695	-1.855488	0.602654
N	-1.472481	0.798864	-1.877767
H	-2.301826	0.751547	-1.258642
H	-1.037096	1.712135	-1.775224
N	-1.231745	-1.535745	-1.442894
H	-1.507969	-1.699356	-2.404931
H	-2.106067	-1.375271	-0.923731
H	-3.622379	0.0	0.0
