15

C	0.0	0.0	0.0
C	-0.448814	0.048094	-1.470741
Cl	1.855598	0.0	0.0
H	0.163422	0.819048	-1.960949
H	-0.239175	0.935035	0.505475
N	-0.554663	-1.09273	0.646561
H	-0.322065	-1.200193	1.619693
H	-0.47676	-1.933255	0.093281
N	-1.833441	0.379144	-1.670314
H	-1.965191	1.381046	-1.605561
H	-2.51493	-0.007432	-0.974536
N	-0.205191	-1.285517	-2.038829
H	-0.849025	-1.368247	-2.815183
H	0.746007	-1.356903	-2.378208
H	-4.030534	0.0	0.0
