15

C	0.0	0.0	0.0
C	-0.510719	0.02978	-1.446751
Cl	1.784235	0.0	0.0
H	-1.600708	0.110783	-1.304322
H	-0.271823	0.960337	0.456281
N	-0.569862	-1.14139	0.661725
H	-1.595549	-0.965998	0.553144
H	-0.372601	-1.082101	1.656016
N	-0.090271	-1.186536	-2.128992
H	-0.710215	-1.31057	-2.921141
H	-0.252138	-1.953552	-1.484334
N	-0.079355	1.163093	-2.245057
H	-0.457631	2.009888	-1.835709
H	0.933562	1.21338	-2.219121
H	-3.141317	0.0	0.0
