17

C	0.0	0.0	0.0
C	-0.350878	-0.02627	-1.482464
F	1.395547	0.0	0.0
H	0.077172	-0.933222	-1.916201
H	-0.31575	0.950509	0.435699
C	-0.567505	-1.168094	0.760109
H	-0.182527	-1.165695	1.782139
H	-1.657657	-1.081757	0.795334
H	-0.291867	-2.112749	0.284394
N	0.422198	1.079907	-2.146266
O	1.092683	0.789503	-3.136815
O	0.304634	2.211873	-1.684046
C	-1.809145	0.14318	-1.844028
H	-2.222608	1.055082	-1.41756
H	-2.424617	-0.663435	-1.451245
H	-1.911941	0.168907	-2.932379
Cl	-4.563352	0.0	0.0
