17

C	0.0	0.0	0.0
C	-0.511874	-0.250156	-1.417709
F	1.390658	0.0	0.0
H	-1.567504	-0.52645	-1.330143
H	-0.333145	1.003983	0.278452
C	-0.465655	-1.002134	1.029142
H	-0.093995	-1.997626	0.783504
H	-1.556216	-1.00731	1.051419
H	-0.078636	-0.71002	2.008961
N	0.210215	-1.439883	-1.973207
O	1.15617	-1.245902	-2.737876
O	-0.170986	-2.552741	-1.609659
C	-0.328287	0.951502	-2.319464
H	-0.576342	0.709359	-3.353933
H	-1.01417	1.728279	-1.9758
H	0.698844	1.316096	-2.283662
Cl	-3.693933	0.0	0.0
