15

C	0.0	0.0	0.0
C	-0.473587	-0.037337	-1.45226
Br	1.97049	0.0	0.0
H	-1.55425	-0.23452	-1.349903
H	0.009806	-0.876137	-1.96207
N	-0.613067	1.091998	0.670167
H	-1.653268	0.875406	0.505317
H	-0.452604	1.006915	1.670995
C	-0.283478	-1.316839	0.628153
N	-0.45686	-2.356783	1.150155
C	-0.25569	1.27255	-2.193948
H	-0.832331	2.068419	-1.724431
H	0.796978	1.566413	-2.203199
H	-0.591907	1.167128	-3.230064
H	-2.989612	0.0	0.0
