15

C	0.0	0.0	0.0
C	-0.44562	-0.024593	-1.468549
Br	1.97577	0.0	0.0
H	-1.526199	-0.227195	-1.381006
H	0.053222	-0.850519	-1.985813
N	-0.573477	1.027098	0.805896
H	-0.420546	1.916324	0.338526
H	-1.609039	0.802603	0.713236
C	-0.321018	-1.307365	0.608883
N	-0.487007	-2.373281	1.074899
C	-0.23235	1.292845	-2.199744
H	-0.447267	1.164109	-3.263886
H	0.793831	1.659069	-2.106836
H	-0.918419	2.055221	-1.824684
H	-2.986002	0.0	0.0
