15

C	0.0	0.0	0.0
C	-0.459798	-0.010823	-1.456414
Br	1.968324	0.0	0.0
H	-0.035505	0.886666	-1.916671
H	-1.551991	0.103232	-1.370672
N	-0.557124	1.144102	0.644027
H	-0.356062	1.101254	1.639889
H	-1.595511	0.962948	0.526925
C	-0.317878	-1.28479	0.667577
N	-0.493346	-2.301523	1.233364
C	-0.129052	-1.272326	-2.238562
H	0.936947	-1.511999	-2.22049
H	-0.429248	-1.147488	-3.282914
H	-0.682997	-2.122721	-1.834335
H	-2.982842	0.0	0.0
