15

C	0.0	0.0	0.0
C	-0.452079	-0.017484	-1.466514
Br	1.97633	0.0	0.0
H	0.040201	-0.843328	-1.989497
H	-1.533062	-0.217923	-1.372104
N	-0.578219	1.017	0.815289
H	-1.612866	0.787134	0.720722
H	-0.433802	1.910216	0.353827
C	-0.317305	-1.31407	0.597749
N	-0.477117	-2.382755	1.059351
C	-0.243352	1.298989	-2.199138
H	-0.498904	1.177069	-3.255414
H	-0.905163	2.070367	-1.79964
H	0.790889	1.649286	-2.140633
H	-2.989596	0.0	0.0
