15

C	0.0	0.0	0.0
C	-0.190988	-0.059853	-1.562751
Br	1.98213	0.0	0.0
H	0.225357	0.889547	-1.923204
H	0.47615	-0.841785	-1.934898
N	-0.665549	1.030608	0.69386
H	-0.569784	1.886761	0.151903
H	-1.705284	0.725155	0.601005
C	-0.345276	-1.308789	0.582754
N	-0.503935	-2.402364	0.983163
C	-1.564726	-0.283107	-2.177794
H	-1.422582	-0.326079	-3.267874
H	-2.014242	-1.213343	-1.835018
H	-2.2793	0.489558	-1.912443
H	-3.055168	0.0	0.0
