15

C	0.0	0.0	0.0
C	-0.476114	-0.023275	-1.449504
Br	1.968734	0.0	0.0
H	-1.571349	0.058143	-1.343716
H	-0.091375	0.889309	-1.914838
N	-0.571972	1.13486	0.645546
H	-1.610235	0.946709	0.51725
H	-0.384744	1.083738	1.643795
C	-0.306707	-1.28752	0.6703
N	-0.479765	-2.30451	1.236208
C	-0.121279	-1.271667	-2.241484
H	-0.455069	-1.156824	-3.276918
H	0.952914	-1.472889	-2.253234
H	-0.632642	-2.142953	-1.824777
H	-2.997607	0.0	0.0
