13

C	-0.379598	0.008225	-1.473407
C	0.0	0.0	0.0
Cl	-2.166281	0.19712	-1.686622
H	1.095403	0.0	0.0
H	0.058328	0.905028	-1.914664
H	-0.344624	0.910532	0.496065
C	0.112108	-1.226234	-2.198104
H	1.19268	-1.299655	-2.042855
H	-0.366706	-2.123184	-1.800251
H	-0.098784	-1.160445	-3.267226
C	-0.520313	-1.162589	0.708512
N	-0.95654	-2.098353	1.267411
Br	3.513005	0.0	0.0
