13

C	-0.495483	0.024772	-1.444801
C	0.0	0.0	0.0
Cl	-0.190199	-1.556483	-2.239327
H	1.093618	0.0	0.0
H	-1.580424	0.154299	-1.477013
H	-0.30269	0.944667	0.46898
C	0.219247	1.120113	-2.213809
H	-0.014348	2.091857	-1.767394
H	1.297779	0.962325	-2.151093
H	-0.092383	1.132209	-3.259896
C	-0.559546	-1.087879	0.790967
N	-1.055392	-1.934238	1.435514
Br	3.554309	0.0	0.0
