13

C	-0.379005	0.013018	-1.473659
C	0.0	0.0	0.0
Cl	-2.165235	0.205905	-1.687785
H	1.095425	0.0	0.0
H	0.060592	0.910806	-1.911836
H	-0.34435	0.90898	0.499068
C	0.111054	-1.219138	-2.202799
H	1.191336	-1.294455	-2.047697
H	-0.369432	-2.117158	-1.808441
H	-0.099256	-1.148913	-3.271994
C	-0.520756	-1.165032	0.704541
N	-0.956884	-2.103105	1.260057
Br	3.51214	0.0	0.0
