20

C	-0.466744	-0.054886	-1.451133
C	0.0	0.0	0.0
Cl	0.169336	1.483528	-2.316044
H	1.095424	0.0	0.0
C	0.173268	-1.20377	-2.20837
H	-0.020302	-1.11389	-3.281374
H	1.250924	-1.18594	-2.025473
H	-0.249333	-2.147327	-1.855938
N	-1.894881	-0.098929	-1.565551
H	-2.294347	0.721466	-1.124141
H	-2.157566	-0.080556	-2.545237
C	-0.40255	-1.280575	0.737356
H	-0.105894	-1.182768	1.786195
H	0.131497	-2.147872	0.34427
H	-1.479773	-1.468125	0.688655
C	-0.502981	1.214265	0.77152
H	0.043914	1.271266	1.716846
H	-0.315404	2.143839	0.232522
H	-1.573067	1.147324	1.010616
H	3.029647	0.0	0.0
