13
Coordinates from ORCA-job run
  C   1.00456436686205     -0.54216809317571     -0.32986732667346
  C   -0.50189741641385     -0.23419660382436     -0.35794307485919
  Br  1.71523851667334     -0.74379756404339     -2.13275763599914
  H   -0.97772579788567     -1.03341427258973     -0.93664689323562
  H   1.15777430261147     -1.50768862614923      0.15825806137233
  C   1.75292085448522      0.48121946460506      0.38754839938621
  N   2.33361223391604      1.30126459349605      0.99669870886050
  C   -0.75664688869854      1.03271682855824     -1.04610777651026
  N   -0.98043917952726      2.06193196152875     -1.56505038573601
  C   -1.07658627457194     -0.20757873378810      1.06303477528898
  H   -0.88482770542050     -1.15906915953857      1.56479562608025
  H   -0.63053153801977      0.59830854858723      1.64827473872907
  H   -2.15545547401059     -0.04952834366625      1.02576278329634
