13
Coordinates from ORCA-job run
  C   1.08746792203341     -0.18929946689781      0.16616332428018
  C   -0.37516976680585      0.01317295048269     -0.28146391079562
  Br  1.57611081339798     -2.07931930347495      0.11781236611264
  H   -0.46696499819823     -0.36453635073194     -1.30587240582805
  H   1.20482716883958      0.12538257992605      1.20620972996361
  C   2.01648773587670      0.55187395873384     -0.67662103329464
  N   2.75138121129823      1.15722813739794     -1.36531389010848
  C   -0.64017385679656      1.45556280177298     -0.30026382989496
  N   -0.86379809678245      2.60845962958297     -0.27915576459928
  C   -1.38214588174166     -0.69164766041698      0.63082899116689
  H   -1.27052509030115     -0.34768616394619      1.66157917062275
  H   -2.39802468546060     -0.46627401953251      0.30327073477957
  H   -1.23847247535939     -1.77091709289610      0.59882651759540
