13
Coordinates from ORCA-job run
  C   1.06125606121440      0.03621493468089     -0.50681465382786
  C   -0.45385725911829     -0.18648983718753     -0.32163101423091
  Br  1.59545181468377      1.86157251502067     -0.07654327099820
  H   -0.63651312536019     -1.22877645339364     -0.61566405028511
  H   1.33230496110525     -0.10522962217121     -1.55535372103733
  C   1.81568056087942     -0.89976475252721      0.31679072719791
  N   2.39126222575346     -1.68101781234530      0.97945517724575
  C   -1.18964541339984      0.66457302083029     -1.25893295385560
  N   -1.78960789582560      1.34445135374888     -2.00477623456262
  C   -0.93847306897633      0.01514812300037      1.11493208030183
  H   -0.81148747588583      1.05163919906894      1.42578563141188
  H   -1.99645504985567     -0.24050704086722      1.18497246553784
  H   -0.37991633521454     -0.63181362785792      1.79377981710242
