13
Coordinates from ORCA-job run
  C   1.09571329332414     -0.03879998545072     -0.43759595677018
  C   -0.44559323861950     -0.02961135606383     -0.37458076078076
  Br  1.87645055963579      1.54592155304996      0.38712114610692
  H   -0.76664344199102     -0.94441331125583     -0.89062684070137
  H   1.42507163697490     -0.01564078337377     -1.47866377983990
  C   1.62080913583919     -1.23459591926837      0.20890647619444
  N   2.00471328302747     -2.21791141966974      0.72493736633323
  C   -0.95995162279523      1.10533620517900     -1.14368037816889
  N   -1.38938593324865      2.01069038710558     -1.75573709102241
  C   -1.00737007691921     -0.04023584227313      1.04792861237875
  H   -0.73383762727860      0.87066282514122      1.57990082980948
  H   -0.62430855746605     -0.90291293885800      1.59652998901919
  H   -2.09566741048322     -0.10748941426237      1.01256038744150
