13
Coordinates from ORCA-job run
  C   1.01577831840465     -0.54666230128411     -0.28674554401829
  C   -0.48728989226942     -0.23330312418718     -0.37658582740404
  Br  1.80057707732719     -0.74783234467310     -2.05842650899134
  H   -0.94159987862383     -1.02961629560928     -0.97623505248683
  H   1.14420687371971     -1.51396942358631      0.20504778785751
  C   1.73599049225283      0.47433734601839      0.46216107037536
  N   2.29341604591590      1.31230527376565      1.06872648101640
  C   -0.70896090033182      1.03619420785354     -1.07124347100615
  N   -0.88711909317380      2.07012282076852     -1.59856346956659
  C   -1.12017910154145     -0.20816732566210      1.01955412953580
  H   -0.69285533125860      0.59219314385814      1.62606365886502
  H   -2.19537648648138     -0.04160201257810      0.93835894172833
  H   -0.95658812393997     -1.16299996468404      1.52488780409483
