13
Coordinates from ORCA-job run
  C   1.01794779903888     -0.55014050726732     -0.28336100948101
  C   -0.48644277119664     -0.24297205250476     -0.37068521168169
  Br  1.79233877218954     -0.78647765831167     -2.05522963561647
  H   -0.94265904707203     -1.05430918075957     -0.94836107858977
  H   1.15318870924859     -1.50593867689829      0.22854705810648
  C   1.73889922094403      0.48776276959933      0.44104694922532
  N   2.28876753068965      1.32435654986131      1.05631211707697
  C   -0.71745905059471      1.00855339142467     -1.09451262807846
  N   -0.92565317342910      2.02454853687968     -1.64486031902645
  C   -1.11040252808668     -0.18505710346675      1.02848040179064
  H   -2.18769709213290     -0.03160089325222      0.94971239017756
  H   -0.68707069742165      0.63591792673333      1.60963642171652
  H   -0.93375767217700     -1.12364310203775      1.55927454438036
