12

C	-0.495849	-0.041454	-1.42501
C	0.0	0.0	0.0
F	-1.895451	-0.131756	-1.441072
H	1.096204	0.0	0.0
H	-0.108244	-0.934845	-1.918473
H	-0.349877	0.929847	0.468966
C	-0.139649	1.159422	-2.19997
N	0.092605	2.114995	-2.840276
N	-0.452926	-1.217983	0.670519
H	0.239176	-1.477566	1.360602
H	-1.334932	-1.062704	1.138688
Cl	3.456416	0.0	0.0
