12

C	-0.505151	-0.002446	-1.435838
C	0.0	0.0	0.0
F	-0.030521	1.10499	-2.122423
H	1.093287	0.0	0.0
H	-1.600961	0.076091	-1.44967
H	-0.348038	-0.919707	0.483708
C	-0.140641	-1.222582	-2.176326
N	0.11669	-2.200274	-2.771228
N	-0.447542	1.168995	0.747847
H	0.16458	1.941807	0.52489
H	-1.391708	1.433142	0.490594
Cl	3.484882	0.0	0.0
