12

C	-0.474493	-0.079938	-1.436088
C	0.0	0.0	0.0
F	-0.097568	-1.283419	-2.008656
H	1.092864	0.0	0.0
H	-0.024761	0.720572	-2.032361
H	-0.327936	0.968095	0.396153
C	-1.945662	0.022331	-1.529294
N	-3.112029	0.137803	-1.583576
N	-0.559392	-1.110346	0.771737
H	-0.950328	-0.77601	1.639237
H	0.194564	-1.742794	1.001013
Cl	3.476152	0.0	0.0
