12

C	-0.497701	-0.000599	-1.43401
C	0.0	0.0	0.0
F	-0.12231	-1.160611	-2.095684
H	1.094011	0.0	0.0
H	-0.072432	0.853885	-1.96532
H	-0.350545	-0.914964	0.490856
C	-1.972712	0.083715	-1.479432
N	-3.146205	0.113043	-1.484137
N	-0.487129	1.231426	0.627657
H	0.287254	1.685793	1.093723
H	-1.19885	1.03206	1.317181
Cl	3.501205	0.0	0.0
