15
Coordinates from ORCA-job run
  C   -0.42934167216287      0.37492447576804      0.04000709740847
  C   1.05140711540075      0.02892516405332      0.34646735923484
  Cl  -0.62862948693994      2.10039713495561      0.66794859801981
  H   1.24351018424040      0.25117844520488      1.40170958956591
  C   -1.37530951094193     -0.50393587891498      0.83518085097989
  H   -1.15216423498196     -0.45084246091419      1.90142846850147
  H   -1.29203861073451     -1.53648046770829      0.49143534880452
  H   -2.40139074351946     -0.16126814978725      0.68832202429200
  N   -0.66229022078627      0.24905953427799     -1.34652412159173
  H   -1.64309220868009      0.35271853673866     -1.57313528360470
  H   -0.11943520587688      0.90406909943473     -1.89714435308578
  C   1.95775929657545      0.84165268503010     -0.47047017475814
  N   2.65543578944864      1.49516271913402     -1.15202950379454
  C   1.30388430781566     -1.39634542942143      0.10955700830238
  N   1.49169520114301     -2.54521540785119     -0.04175290827438
