15
Coordinates from ORCA-job run
  C   -0.43696080035068      0.24175067656530     -0.10327800785850
  C   0.99396470232627     -0.35543786808318     -0.07966164771185
  Cl  -0.24679834724852      2.05946583408111      0.02086855552539
  H   0.86545908391029     -1.44478974939847     -0.11354921722534
  C   -1.23351204127927     -0.22212906648983      1.10087704454379
  H   -0.75199238996160      0.07799716068943      2.03116577564465
  H   -2.22828741088009      0.22686924178451      1.07514728513805
  H   -1.33637753414743     -1.30945529207284      1.06947484145385
  N   -1.05759509184991     -0.17770396705126     -1.30998473489455
  H   -0.60851017280295      0.22112414983234     -2.12704131381653
  H   -2.03625020738342      0.08173186669247     -1.32107756878023
  C   1.72283580949115     -0.01188807601738      1.14254856807223
  N   2.29083511591138      0.22984616290058      2.14091820819563
  C   1.74929954278369      0.04111021434927     -1.27097194367221
  N   2.31388974148109      0.34150871221795     -2.25543584461436
