15
Coordinates from ORCA-job run
  C   -0.40953062049373      0.43962353392938      0.05406981667121
  C   1.06624580530798      0.06314984026442      0.36288703996356
  Cl  -0.63422351835769      2.11525803019609      0.64081689475643
  H   1.22238128055035      0.12955466562158      1.44594773514787
  C   -1.36547191459457     -0.46597558612925      0.81926792988597
  H   -2.39136714083203     -0.14433611805343      0.63240816364246
  H   -1.25663006208696     -1.49792900079236      0.47503729352907
  H   -1.18288791850313     -0.42855770579254      1.89546977645503
  N   -0.56955960095952      0.45116004454945     -1.38122335380060
  H   -1.42077628995677      0.93643932180231     -1.63798393202807
  H   -0.62331845854813     -0.50036092041730     -1.73149391183104
  C   2.00880511489723      0.96799024996347     -0.30083799857137
  N   2.79613542227836      1.68345765012690     -0.79602492340851
  C   1.31193368918489     -1.31851708656791     -0.06477313200997
  N   1.44826421211372     -2.43095691870080     -0.41556739840205
