15
Coordinates from ORCA-job run
  C   -0.45975597882363      0.20100148190673     -0.09048439806606
  C   1.01146861918820     -0.28800882977903     -0.12072871659576
  Cl  -0.40246643311111      2.03220326492413     -0.11135001716560
  H   0.96471987214277     -1.38310203859249     -0.06714328533660
  C   -1.14221696313498     -0.22428360375414      1.19519530917508
  H   -1.16083631367025     -1.31538195494192      1.25113926984203
  H   -0.62964673689548      0.18308062977125      2.06629151089643
  H   -2.16917533737714      0.14634381170923      1.20322016917007
  N   -1.11982638715227     -0.35446621103460     -1.21878223138066
  H   -2.11428786468601     -0.16738068121285     -1.18234499109656
  H   -0.75459213741179      0.01226014347123     -2.09094962199217
  C   1.78698415492823      0.19982201937307      1.02100252174150
  N   2.39827994134223      0.55574742169317      1.95773243238837
  C   1.65795390166315      0.06881398527596     -1.38638427375863
  N   2.13339766299807      0.33435056119026     -2.42641367782142
