15
Coordinates from ORCA-job run
  C   -0.46122668411811      0.35535365024436     -0.07743337215835
  C   0.94337754818119     -0.34348355952380     -0.09461634803849
  Cl  -0.15252507364229      2.11445268628704      0.05689477141503
  H   0.74900545267030     -1.42347198891019     -0.14544189235543
  C   -1.25654773393754     -0.11179246684749      1.12666890143710
  H   -2.21846369361680      0.39972217738779      1.12687672617621
  H   -1.43098768082564     -1.19090818227328      1.06357604259531
  H   -0.73361389004023      0.10749056276649      2.05744752499724
  N   -1.21312316219211      0.13434211718754     -1.27705189839417
  H   -0.71392985150302      0.43376458941722     -2.10643142936106
  H   -1.48926605970230     -0.83597261100844     -1.36588542225976
  C   1.72368273411664     -0.08478911802705      1.11643263182187
  N   2.31968416864385      0.10256272895934      2.11052968732407
  C   1.69053349003125      0.02857864190787     -1.29741011286851
  N   2.24140043593481      0.31415077243261     -2.29415581033106
