15
Coordinates from ORCA-job run
  C   -0.45764121862665      0.40038389943673     -0.14683207864137
  C   1.07667624258163      0.20212247367124     -0.27163288822572
  Cl  -0.66375688303648      2.17842568323111      0.27162618690646
  H   1.43940571059442      0.87836957923923     -1.05602311303255
  C   -1.05310966388149     -0.41699177003562      0.98045423320039
  H   -0.58924616231519     -0.16508938706604      1.93382902363260
  H   -2.12213670724699     -0.20857679302200      1.05820625489243
  H   -0.91293739023750     -1.47975623253492      0.77059390027169
  N   -1.04130407789504      0.05336287606088     -1.39013545648475
  H   -2.05173868893220      0.03823292395260     -1.33408172471244
  H   -0.76232404981882      0.68074226115171     -2.13493145847618
  C   1.37887186915600     -1.17899588724795     -0.66400273147596
  N   1.63678545688894     -2.28436618789104     -0.96370418716314
  C   1.77954009484558      0.53044354786902      0.97176987217037
  N   2.34291546792381      0.77169301318504      1.97286416713817
