12
Coordinates from ORCA-job run
  C   -1.28796280620315     -0.37093717648163      0.13825534923685
  C   0.03670618025722      0.06733397263834     -0.47294848958601
  F   -1.37154421811002      0.08043436602179      1.44317422747630
  H   0.06855585407576     -0.33672873749700     -1.49264009533707
  H   -2.13612741278978      0.03630108061588     -0.41634783234001
  H   -1.34349305741178     -1.46306524278701      0.15249156052463
  C   1.23379933373775     -0.45952030913114      0.32397453500587
  H   2.17322837947941     -0.15222471093693     -0.13696649910204
  H   1.20358811214440     -0.07820123411402      1.34424741153838
  H   1.20434955387111     -1.55113913070952      0.35828301513844
  C   0.08615170474552      1.52893759963113     -0.57988540972711
  N   0.13274837620358      2.69880952275011     -0.66063777282822
