12
Coordinates from ORCA-job run
  C   -1.29908677251481     -0.35306013298858      0.06554622821693
  C   0.06384382229230      0.06564454198120     -0.47044630012669
  F   -1.44984614912880      0.10187184457117      1.36318766155043
  H   0.14764919906447     -0.34040659032954     -1.48637728445822
  H   -2.10909724900943      0.06438554038276     -0.53637069471313
  H   -1.37006784190170     -1.44430946891307      0.07787887406288
  C   1.20660220714342     -0.47589446772052      0.39358646298196
  H   1.15681561982003     -1.56649287617427      0.43343731610849
  H   1.12765659317395     -0.08667150950707      1.40820752656865
  H   2.17473703908624     -0.18758247652334     -0.01744031031283
  C   0.14025629593003      1.52632852553494     -0.57555902645213
  N   0.20853723604430      2.69518706968632     -0.65465045342633
