12
Coordinates from ORCA-job run
  C   -1.26148185528491     -0.36146510330621      0.19975992075139
  C   0.04402469839345      0.08611465164109     -0.44219894965999
  F   -2.33373213075828      0.10036979315828     -0.53936683614034
  H   0.04545871559443     -0.27749463398777     -1.47542482160823
  H   -1.34995985309868      0.03149826292686      1.21582905169115
  H   -1.30539263084975     -1.45363341571888      0.21974179552821
  C   1.24763674219231     -0.49026776448488      0.31013975636221
  H   2.18130276190998     -0.17569987999790     -0.15689420904722
  H   1.20987713240018     -1.58182449581836      0.30113363433118
  H   1.25475399470757     -0.14937252488198      1.34748138741907
  C   0.10845745725639      1.54917099958778     -0.48674263916044
  N   0.16005496753730      2.72160411088197     -0.49245809046699
