12
Coordinates from ORCA-job run
  C   -1.29332047414082     -0.36785349617077      0.09127337063182
  C   0.04994683511086      0.07998847502174     -0.47039557120454
  F   -1.41190808485780      0.04938923169461      1.40460530620847
  H   0.10857868370998     -0.29537547340734     -1.49975270211328
  H   -1.35346605108146     -1.45952636391028      0.07514592590722
  H   -2.12385630004193      0.05753933176295     -0.47592049522283
  C   1.22179627868260     -0.47494624553724      0.34501218018756
  H   1.18460486667359     -1.56697278169508      0.35228195195160
  H   2.17523072029090     -0.16310414799048     -0.08317229068326
  H   1.16652420178307     -0.11780387039543      1.37310876502628
  C   0.10976171574632      1.54370055113184     -0.53385310652908
  N   0.16510760812468      2.71496478949548     -0.57933333415997
