14

C	-0.520261	-0.085224	-1.442482
C	0.0	0.0	0.0
Cl	0.249706	-1.39547	-2.320393
H	1.090548	0.0	0.0
H	-0.37103	0.943648	0.411524
C	-1.969971	-0.266595	-1.478747
N	-3.133225	-0.431312	-1.48931
N	-0.221833	1.26505	-2.118926
O	-0.997015	2.15972	-1.792849
O	0.759442	1.369198	-2.83063
N	-0.489527	-1.159741	0.726662
H	-1.037936	-0.881602	1.525378
H	0.302702	-1.695826	1.049376
Cl	3.375297	0.0	0.0
