14

C	-0.507156	-0.028015	-1.42811
C	0.0	0.0	0.0
Cl	-0.078849	1.460354	-2.296771
H	1.093134	0.0	0.0
H	-0.349835	0.928175	0.455873
C	-0.040049	-1.192274	-2.171585
N	0.346572	-2.125892	-2.769947
N	-2.047897	-0.081504	-1.410718
O	-2.605801	-0.731883	-2.28523
O	-2.600274	0.572701	-0.535987
N	-0.514279	-1.200024	0.649755
H	-1.167831	-0.96758	1.383566
H	0.258986	-1.716008	1.04747
Cl	3.371288	0.0	0.0
