13

C	-0.399291	-0.001387	-1.411147
C	-0.008528	-0.019767	0.044271
F	-1.784005	-0.071957	-1.571423
H	1.083245	-0.01761	0.034656
H	-0.36545	0.870201	0.558947
C	0.025769	1.292287	-1.987453
N	0.241019	2.343355	-2.464936
C	0.191382	-1.082345	-2.225888
N	0.580331	-1.880252	-2.994561
N	-0.511841	-1.179984	0.740156
O	-0.598544	-2.247067	0.113984
O	-0.721763	-1.062365	1.95592
H	2.468266	0.123289	-0.34665
