13

C	-0.412376	-0.00774	-1.400452
C	-0.009694	0.012718	0.051642
F	-1.798781	0.053487	-1.550049
H	1.081961	0.020564	0.03301
H	-0.353981	-0.880517	0.569194
C	0.164261	1.077829	-2.219319
N	0.537641	1.878415	-2.992963
C	0.01718	-1.29792	-1.980986
N	0.244857	-2.34587	-2.459462
N	-0.516377	1.168261	0.752325
O	-0.619817	2.234381	0.126926
O	-0.711354	1.049232	1.970494
H	2.465124	-0.102839	-0.355847
