13

C	-0.421102	0.059533	-1.394325
C	-0.010824	-0.014022	0.054005
F	-1.808222	0.003675	-1.539331
H	1.080755	-0.022472	0.030261
H	-0.352501	0.860129	0.604779
C	0.00568	1.370218	-1.928927
N	0.234862	2.434648	-2.368637
C	0.15119	-0.995179	-2.255398
N	0.517412	-1.765191	-3.062771
N	-0.515058	-1.194075	0.713959
O	-0.709821	-1.118552	1.935588
O	-0.61623	-2.237703	0.05144
H	2.463991	0.109528	-0.3488
