13

C	-0.468877	-0.018276	-1.425681
C	0.002068	-0.030543	0.012669
F	0.201679	-0.937093	-2.201817
H	1.093788	-0.025636	0.000673
H	-0.291366	0.871783	0.546603
C	-1.920684	-0.277228	-1.557112
N	-3.081789	-0.414584	-1.672608
C	-0.215064	1.327639	-1.988818
N	-0.067939	2.397962	-2.448903
N	-0.483043	-1.176314	0.741632
O	-0.476382	-1.094977	1.978598
O	-0.751127	-2.20993	0.104747
H	2.479906	0.193416	-0.07301
