13

C	0.0	0.0	0.0
C	-0.438164	0.18895	-1.441005
F	1.395875	0.0	0.0
H	-0.134674	1.163374	-1.822582
H	-0.330298	-0.975836	0.355184
H	-1.524662	0.059693	-1.477932
N	-0.487611	1.006417	0.88369
H	-1.486265	0.828268	1.001385
H	-0.399284	1.917611	0.445929
N	0.190872	-0.819508	-2.333766
O	0.748318	-0.418475	-3.3571
O	0.109418	-1.999336	-1.99841
Cl	-3.542046	0.0	0.0
