13

C	0.0	0.0	0.0
C	-0.507125	-0.314378	-1.391218
F	1.412655	0.0	0.0
H	-1.587057	-0.116129	-1.398102
H	-0.308952	-0.813091	0.658524
H	-0.291612	-1.341963	-1.672679
N	-0.491136	1.215923	0.497979
H	-0.254298	1.992691	-0.097908
H	-0.225527	1.377926	1.454589
N	0.160339	0.525223	-2.425325
O	0.197476	1.743084	-2.247098
O	0.625391	-0.045167	-3.410554
Cl	-3.851797	0.0	0.0
