13

C	0.0	0.0	0.0
C	-0.439925	0.21794	-1.43519
F	1.395881	0.0	0.0
H	-1.526486	0.089464	-1.472817
H	-0.33113	-0.981419	0.338506
H	-0.13755	1.200233	-1.796704
N	-0.484729	0.992957	0.902543
H	-0.398672	1.909984	0.479056
H	-1.482497	0.812035	1.022594
N	0.187389	-0.769764	-2.350981
O	0.734648	-0.346625	-3.370926
O	0.114189	-1.956322	-2.037327
Cl	-3.541707	0.0	0.0
