13

C	0.0	0.0	0.0
C	-0.484784	0.1738	-1.425805
F	1.412013	0.0	0.0
H	-1.548263	0.439796	-1.384148
H	-0.322925	-0.978833	0.356187
H	-0.328002	-0.725738	-2.01569
N	-0.482579	0.996295	0.864169
H	-0.25114	0.812332	1.827302
H	-0.1927	1.916887	0.573048
N	0.283836	1.242225	-2.120388
O	0.815439	0.961099	-3.194011
O	0.345518	2.349348	-1.585597
Cl	-3.756672	0.0	0.0
