13

C	0.0	0.0	0.0
C	-0.423823	0.051673	-1.470678
F	1.398412	0.0	0.0
H	-0.116716	-0.84825	-1.999721
H	-0.343482	-0.959461	0.392152
H	-1.506726	0.194961	-1.501595
N	-0.475917	1.029779	0.856596
H	-1.469898	0.841406	0.994097
H	-0.413094	1.918272	0.372095
N	0.24002	1.176675	-2.171773
O	1.032632	0.911675	-3.076849
O	-0.030103	2.32081	-1.799171
Cl	-3.522662	0.0	0.0
