16
Coordinates from ORCA-job run
  C   -0.33842374304924      0.27217786870665     -0.17336124720010
  C   1.11437679310796     -0.19193619292401     -0.11800777168653
  Cl  -0.80129515772988      0.37951066285809     -1.92699003410215
  H   1.72935359890645      0.56197114245562     -0.63204753279919
  H   1.40759389772970     -0.19191715821486      0.93822726915384
  C   -1.27698974734617     -0.71483052271996      0.49478937005362
  H   -1.17693055198923     -1.70148710064878      0.04691451393830
  H   -1.01907391294124     -0.79231190386721      1.55594926455704
  H   -2.31170090516067     -0.37665166727908      0.41089304261757
  C   -0.47052570919837      1.66800093060378      0.41105718764740
  H   -0.20875517464517      1.64633992368189      1.47351108583609
  H   0.19086596692861      2.37169445237372     -0.09875224591761
  H   -1.49588013591123      2.02972952020020      0.31517681916354
  N   1.27647072873759     -1.54569064951255     -0.63152306365105
  H   2.20958550440587     -1.87869562724331     -0.42491789979368
  H   1.17232854815503     -1.53590367847018     -1.63891875781709
