16
Coordinates from ORCA-job run
  C   -0.39971574372896      0.15361926797176     -0.18768413993568
  C   0.81538580412721     -0.76974875947243     -0.18787043500347
  Cl  -0.58486401819404      0.79768080390650     -1.87642553071661
  H   0.88307671370248     -1.20550067909635      0.81569755671224
  H   0.61509158100485     -1.59101606773177     -0.89229015270444
  C   -1.66024241632393     -0.63084836113729      0.13327755087740
  H   -2.53988216634825      0.01242428466913      0.07143760435852
  H   -1.59395082160919     -1.03024495039222      1.15007979567584
  H   -1.79340172541030     -1.46229966275526     -0.56205412430374
  C   -0.21472598176837      1.33744187708637      0.74283328842917
  H   -0.10544590822168      0.97260234588375      1.76924997542877
  H   -1.08199142411564      1.99916569499911      0.69810176288449
  H   0.68354557019251      1.89314922926256      0.48131405823423
  N   2.05251210327800     -0.04638732852973     -0.45034432639609
  H   2.84444823161918     -0.65221442851974     -0.27687088509419
  H   2.08216020179614      0.22217673385563     -1.42645199844644
