16
Coordinates from ORCA-job run
  C   -0.31695100810738      0.28895939068109     -0.18556612302600
  C   1.11419184327493     -0.22166764306052     -0.04582009206290
  Cl  -0.64808772156070      0.48083445064190     -1.96140110253571
  H   1.32876964768454     -0.27330028209400      1.02791460043420
  H   1.78617350157147      0.53275538894883     -0.48160395990921
  C   -1.32889566218247     -0.69439884584140      0.37172994080773
  H   -1.15253644539003     -0.82027200754447      1.44482277264835
  H   -1.22312834907380     -1.66556946777540     -0.10752832686668
  H   -2.34493833470826     -0.32218965201600      0.22637334776831
  C   -0.45187268192362      1.66365916417488      0.44634787722138
  H   -1.45776207382698      2.05942828936127      0.29500020705384
  H   -0.26606838678658      1.59177870777897      1.52247291225795
  H   0.26254383095478      2.36694151272218      0.01339729528354
  N   1.27565179467024     -1.55851003900108     -0.60289063441468
  H   1.23897906123027     -1.50505058482072     -1.61368593716445
  H   2.18493098417360     -1.92439838215553     -0.35056277749567
