16
Coordinates from ORCA-job run
  C   -0.41077926251596      0.25795348978381     -0.37647855650279
  C   0.91120074005897     -0.36853951527804     -0.85363626513255
  Cl  -1.23141783482777      0.86321974133294     -1.87087652432658
  H   0.67613743339836     -1.15298923295245     -1.57916059025691
  H   1.47820377555252      0.39683185363280     -1.39188774765031
  C   -1.33007177569961     -0.76693727704798      0.26602312997411
  H   -1.50427647990832     -1.60874312042313     -0.40795755246816
  H   -0.88730315680374     -1.14167646461302      1.19310681876766
  H   -2.29504492012818     -0.31926258098588      0.51089887907405
  C   -0.18157678597000      1.45229888746604      0.53418330284325
  H   0.28829460209779      1.12992399458077      1.46759491335377
  H   -1.12869854246958      1.93444063561127      0.78328804144148
  H   0.46209792126901      2.19096454956241      0.05118588570081
  N   1.77067693190384     -0.93704596288879      0.17029437051663
  H   1.31557095135472     -1.69211908078509      0.66455720848608
  H   2.06698640268794     -0.24031991699567      0.83986468617947
