12

C	-0.003876	0.065772	-1.480024
C	-0.041079	-0.002243	0.036741
Br	-1.869268	0.315301	-2.215672
H	1.021536	-0.152645	0.269628
H	0.243806	-0.933082	-1.855448
H	-0.64346	-0.849712	0.373722
N	0.854993	1.114864	-1.888145
H	1.023461	1.034421	-2.885403
H	1.748355	0.842833	-1.374798
C	-0.541425	1.214058	0.665191
N	-0.959556	2.153405	1.232221
F	2.65563	-0.082234	-0.479411
