12

C	-0.224412	0.08293	-1.365074
C	-0.002015	0.166377	0.131398
Br	-2.040596	-0.932182	-1.680636
H	1.085172	0.286489	0.170461
H	0.579279	-0.598109	-1.697523
H	-0.206768	-0.802065	0.585863
N	-0.218515	1.328941	-1.993052
H	-0.207085	1.24922	-2.998856
H	-0.968774	1.937573	-1.690884
C	-0.769482	1.221423	0.779675
N	-1.383396	2.094499	1.271472
F	2.134001	-0.934327	-1.006
