13

C	-0.395853	-0.106126	-1.46323
C	0.0	0.0	0.0
Cl	-2.16894	-0.407792	-1.69944
H	1.095238	0.0	0.0
H	0.108261	-0.961352	-1.918049
H	-0.359689	0.9458	0.414069
C	-0.062391	1.098428	-2.220356
N	0.169485	2.078681	-2.823955
C	-0.46236	-1.187252	0.8343
H	0.000703	-1.12866	1.821367
H	-0.13314	-2.125211	0.378496
H	-1.547062	-1.223501	0.956028
Br	3.587061	0.0	0.0
