13

C	-0.453833	0.025084	-1.452983
C	0.0	0.0	0.0
Cl	0.021686	-1.476706	-2.310251
H	1.093396	0.0	0.0
H	0.048052	0.8424	-1.977766
H	-0.355801	-0.921704	0.468615
C	-1.902985	0.192886	-1.591183
N	-3.065796	0.342663	-1.67081
C	-0.489387	1.229963	0.758265
H	-1.579185	1.270824	0.842335
H	-0.14321	2.146145	0.271537
H	-0.063019	1.222531	1.763328
Br	3.64761	0.0	0.0
