13

C	-0.462565	0.014435	-1.452179
C	0.0	0.0	0.0
Cl	0.005436	-1.479831	-2.334365
H	1.093735	0.0	0.0
H	0.031179	0.834301	-1.980132
H	-0.315034	0.96042	0.427685
C	-1.915376	0.178819	-1.569849
N	-3.079965	0.329841	-1.630206
C	-0.555323	-1.151955	0.822154
H	-0.191183	-1.069685	1.848218
H	-0.209653	-2.109138	0.42952
H	-1.650044	-1.155906	0.843506
Br	3.642634	0.0	0.0
