13

C	0.0	0.0	0.0
C	-0.26352	0.330492	-1.525317
Br	2.003117	0.0	0.0
H	0.530647	-0.182914	-2.080861
H	-0.344455	0.818868	0.627338
N	-0.483923	-1.228259	0.49054
H	-1.506029	-1.117938	0.532008
H	-0.253421	-1.991478	-0.1355
C	-0.074437	1.760847	-1.781472
N	0.129958	2.896762	-1.999005
C	-1.486681	-0.158276	-2.184074
N	-2.177958	-0.585225	-3.035624
Cl	-3.321696	0.0	0.0
