13

C	0.0	0.0	0.0
C	-0.520964	0.009533	-1.441805
Br	1.996022	0.0	0.0
H	-1.626902	0.02085	-1.309853
H	-0.260591	0.9599	0.45715
N	-0.480956	-1.173	0.655748
H	-0.209409	-1.141718	1.631572
H	-1.505994	-1.110804	0.615487
C	-0.132899	-1.189475	-2.184433
N	0.157553	-2.124486	-2.83165
C	-0.120264	1.216482	-2.163329
N	0.203666	2.212411	-2.694446
Cl	-3.438405	0.0	0.0
