13

C	0.0	0.0	0.0
C	-0.538065	-0.408594	-1.380397
Br	1.937524	0.0	0.0
H	-1.642979	-0.364597	-1.249869
H	-0.289191	1.044146	0.161905
N	-0.491939	-0.942891	0.961422
H	-0.194501	-0.664569	1.88997
H	-1.515582	-0.869609	0.922553
C	-0.144648	-1.768586	-1.747727
N	0.1469	-2.854626	-2.085853
C	-0.14942	0.536688	-2.426034
N	0.139977	1.302436	-3.267768
Cl	-3.457865	0.0	0.0
