13

C	0.0	0.0	0.0
C	-0.458113	0.237194	-1.482523
Br	1.941732	0.0	0.0
H	0.446442	0.292556	-2.098506
H	-0.292912	0.864844	0.599638
N	-0.447187	-1.274849	0.473021
H	-0.182667	-1.370047	1.447602
H	-1.473408	-1.219057	0.433849
C	-1.102795	1.543799	-1.649003
N	-1.429351	2.652127	-1.857422
C	-1.219768	-0.868819	-2.071714
N	-1.605803	-1.785335	-2.696742
Cl	-3.243184	0.0	0.0
