13

C	0.0	0.0	0.0
C	-0.45498	0.29364	-1.475722
Br	1.941696	0.0	0.0
H	0.452669	0.400822	-2.081336
H	-0.290044	0.846289	0.627546
N	-0.453843	-1.287492	0.427146
H	-1.479776	-1.22322	0.388199
H	-0.189736	-1.42079	1.397478
C	-1.132489	1.589479	-1.592077
N	-1.463988	2.702743	-1.768606
C	-1.185452	-0.803333	-2.121353
N	-1.58749	-1.684876	-2.783926
Cl	-3.252759	0.0	0.0
