13

C	0.0	0.0	0.0
C	-0.408091	0.080644	-1.530552
Br	2.003273	0.0	0.0
H	0.507491	0.109323	-2.132292
H	-0.319098	0.915911	0.491164
N	-0.427104	-1.116075	0.759028
H	-0.208807	-1.982497	0.279517
H	-1.447378	-1.023086	0.83005
C	-1.1095	1.325077	-1.84917
N	-1.46154	2.394986	-2.180401
C	-1.112513	-1.122394	-1.97654
N	-1.484342	-2.137354	-2.437994
Cl	-3.215236	0.0	0.0
