17

C	-0.414715	0.012101	-1.451239
C	0.0	0.0	0.0
Cl	0.062199	1.535306	-2.186841
H	1.090545	0.0	0.0
N	0.269619	-1.11621	-2.238027
O	0.777918	-2.007489	-1.572722
O	0.267001	-1.020784	-3.458451
N	-1.930354	-0.137364	-1.700756
O	-2.328706	-0.981131	-2.485391
O	-2.616004	0.655629	-1.063258
N	-0.512331	-1.208644	0.674538
O	-0.045191	-1.456425	1.78038
O	-1.372187	-1.894609	0.10077
N	-0.297971	1.146381	0.788554
H	-1.089318	1.675813	0.45822
H	0.543439	1.710702	0.8603
H	2.486802	0.0	0.0
