17

C	-0.542147	0.017604	-1.40615
C	0.0	0.0	0.0
Cl	0.287082	1.234112	-2.342624
H	1.088002	0.0	0.0
N	-0.434006	-1.308683	-2.178589
O	0.69074	-1.650402	-2.492453
O	-1.484009	-1.890991	-2.420631
N	-2.059384	0.327427	-1.407163
O	-2.665066	-0.049641	-0.411755
O	-2.543703	0.873198	-2.386531
N	-0.380199	-1.190414	0.756372
O	-0.599727	-1.054713	1.967125
O	-0.322403	-2.282256	0.176297
N	-0.332363	1.232232	0.638549
H	0.493034	1.526084	1.15603
H	-1.095104	1.090096	1.288166
H	2.430916	0.0	0.0
