17

C	-0.552991	0.308704	-1.360451
C	0.0	0.0	0.0
Cl	0.273714	1.691546	-2.038334
H	1.117151	0.0	0.0
N	-0.453214	-0.824915	-2.392931
O	-1.506337	-1.303363	-2.794459
O	0.674113	-1.124517	-2.739068
N	-2.070376	0.622701	-1.285766
O	-2.673505	0.049303	-0.387279
O	-2.555764	1.368612	-2.122575
N	-0.37001	-1.305268	0.505841
O	-0.475126	-1.427971	1.736132
O	-0.412883	-2.254637	-0.291699
N	-0.299426	1.082842	0.882046
H	-1.044049	0.813958	1.512966
H	0.542012	1.258317	1.427785
H	2.374523	0.0	0.0
