16

C	-0.42625	-0.036384	-1.473249
C	0.0	0.0	0.0
Cl	-0.161868	1.539787	-2.291183
H	1.095843	0.0	0.0
H	0.241132	-0.727785	-2.001225
N	-1.845079	-0.374509	-1.626258
H	-2.139334	-0.124488	-2.562609
H	-1.926762	-1.382369	-1.555388
N	-0.398906	-1.240928	0.670619
H	0.154343	-2.019276	0.33333
H	-1.385292	-1.426979	0.536863
C	-0.562374	1.181859	0.767415
H	-0.142808	2.122939	0.413198
H	-1.65188	1.222359	0.670327
H	-0.300237	1.05669	1.818339
Cl	3.563891	0.0	0.0
