16

C	-0.318676	0.007569	-1.487377
C	0.0	0.0	0.0
Cl	-2.134627	0.040122	-1.733949
H	1.101021	0.0	0.0
H	0.035966	0.934656	-1.938507
N	0.228061	-1.112221	-2.197638
H	1.233248	-0.957559	-2.235315
H	0.08637	-1.912432	-1.58662
N	-0.41942	-1.2752	0.578956
H	0.227316	-1.528903	1.31934
H	-1.346724	-1.192719	0.97586
C	-0.493778	1.227838	0.748644
H	-1.586443	1.235769	0.821223
H	-0.071234	1.235506	1.757384
H	-0.175496	2.147517	0.247821
Cl	3.460403	0.0	0.0
