16

C	-0.524204	-0.012765	-1.438183
C	0.0	0.0	0.0
Cl	0.072357	1.411935	-2.342169
H	1.100071	0.0	0.0
H	-0.09509	-0.877761	-1.950866
N	-1.972165	-0.072162	-1.571699
H	-2.261764	-0.766567	-0.885748
H	-2.353305	0.819771	-1.273318
N	-0.506831	-1.261895	0.593127
H	0.149502	-1.993791	0.333994
H	-0.426057	-1.180741	1.601554
C	-0.508838	1.17162	0.818195
H	-1.594048	1.120596	0.95637
H	-0.035489	1.15706	1.803588
H	-0.248202	2.119479	0.3463
Cl	3.536207	0.0	0.0
