16

C	-0.469608	0.039172	-1.448061
C	0.0	0.0	0.0
Cl	-0.093468	-1.541021	-2.260752
H	1.104399	0.0	0.0
H	-1.561561	0.113998	-1.481808
N	0.116745	1.090633	-2.239829
H	-0.322383	1.970617	-1.997336
H	1.109213	1.147191	-2.021158
N	-0.582464	-1.153338	0.699768
H	-0.188066	-1.991334	0.285333
H	-0.221861	-1.130203	1.648874
C	-0.469679	1.264883	0.708924
H	-0.166502	1.227726	1.758867
H	-1.561691	1.349066	0.670701
H	-0.012165	2.157933	0.280865
Cl	3.539991	0.0	0.0
