16

C	-0.459566	-0.023611	-1.466819
C	0.0	0.0	0.0
Cl	0.092309	1.463698	-2.317531
H	1.095229	0.0	0.0
H	0.052745	-0.848639	-1.966392
N	-1.883279	-0.166493	-1.717911
H	-2.177497	-1.105919	-1.481434
H	-2.399837	0.493104	-1.148505
N	-0.374287	-1.247916	0.678129
H	0.282374	-1.976776	0.425171
H	-1.309583	-1.542054	0.424662
C	-0.535412	1.177125	0.796942
H	-1.628159	1.136999	0.894684
H	-0.254587	2.1309	0.349768
H	-0.113431	1.121892	1.800437
Cl	3.523342	0.0	0.0
