15

C	-0.486139	-0.027422	-1.433528
C	0.0	0.0	0.0
Br	-0.057042	1.692764	-2.312344
H	1.093611	0.0	0.0
H	0.117001	-0.748917	-1.992211
H	-0.388044	0.890601	0.509788
C	-1.970094	-0.28242	-1.641325
H	-2.230003	-1.273259	-1.256414
H	-2.245177	-0.240412	-2.698159
H	-2.560482	0.462733	-1.100725
C	-0.408314	-1.26894	0.750799
H	0.131904	-1.291935	1.70073
H	-0.08916	-2.155986	0.192047
H	-1.481726	-1.360231	0.958673
F	2.717486	0.0	0.0
