17

C	-0.497192	0.019304	-1.439772
C	0.0	0.0	0.0
Cl	-0.055807	-1.482345	-2.32415
H	1.090685	0.0	0.0
H	0.086271	0.806861	-1.92595
C	-1.987723	0.256356	-1.61374
H	-2.26539	1.230945	-1.208423
H	-2.561301	-0.510113	-1.091723
H	-2.255746	0.234713	-2.671977
N	-0.517032	-1.189907	0.720253
O	-1.586317	-1.083414	1.34353
O	0.138321	-2.228563	0.659785
C	-0.396398	1.26327	0.74465
H	-0.001536	2.122133	0.194614
H	0.099785	1.254557	1.718268
H	-1.469626	1.37317	0.89461
H	2.783134	0.0	0.0
