17

C	-0.351612	0.036138	-1.464672
C	0.0	0.0	0.0
Cl	-2.158722	-0.001466	-1.73621
H	1.095331	0.0	0.0
H	0.008811	-0.885462	-1.917317
C	0.243446	1.241493	-2.160151
H	1.310044	1.269094	-1.911217
H	-0.232205	2.166593	-1.829464
H	0.115354	1.1597	-3.241914
N	-0.389487	-1.297451	0.579936
O	-0.80503	-1.329882	1.744401
O	-0.191806	-2.309672	-0.101017
C	-0.483038	1.155433	0.840943
H	-0.099612	1.047288	1.854747
H	-1.572885	1.219702	0.878763
H	-0.076036	2.082287	0.431682
H	2.65705	0.0	0.0
