15
Coordinates from ORCA-job run
  C   0.79888195353668      0.23131057470463      0.35822646112548
  C   -0.58546438028753     -0.39896989176067      0.16378712810218
  F   0.69007464393095      1.51532315173026      0.75426563895703
  H   -0.42081643982749     -1.43631453807604     -0.14555931521852
  C   1.64666439533645     -0.52113041771991      1.28448230872859
  N   2.30687098091168     -1.12894558946976      2.04301596661950
  N   1.48535473349703      0.21459526423178     -1.01703751961995
  O   1.70194441039177     -0.90634671688958     -1.45722596483205
  O   1.70389314321258      1.29145726976787     -1.54422900654246
  C   -1.39809771763361      0.34862391521269     -0.89861531008293
  H   -0.93654430372262      0.24250316851887     -1.88164377554347
  H   -2.40175917213904     -0.07424562869934     -0.94833022567673
  H   -1.47720041726600      1.40723498590346     -0.65103626453575
  C   -1.27095865996419     -0.39899579527032      1.45674915597450
  N   -1.84284316997666     -0.38609975218394      2.48215072254457
