15
Coordinates from ORCA-job run
  C   0.84491139952319     -0.00066994360923      0.58286426361002
  C   -0.66114133796757     -0.27292920109973      0.45159245541571
  F   1.14556696492681      0.25133680756986      1.87585312449962
  H   -0.84569494399113     -1.09963846356120      1.14895479695328
  C   1.64894918100225     -1.11950764005196      0.08778323984280
  N   2.26497867866175     -2.05370236413989     -0.27039274928129
  N   1.21548482054961      1.24636472198703     -0.23139800027337
  O   1.33697508157701      2.28832525148121      0.38959244272394
  O   1.30910095218988      1.06418210003220     -1.43899387633749
  C   -1.11869900128065     -0.67661829207875     -0.95292827313061
  H   -0.55245564856906     -1.53971907307807     -1.30629060138313
  H   -0.99409424772908      0.14086067271015     -1.66104149693913
  H   -2.17468392494573     -0.94668245380765     -0.91328931097416
  C   -1.39828544177427      0.89434017775330      0.94096255198433
  N   -2.01991253217303      1.82405769989272      1.29873143328950
