15
Coordinates from ORCA-job run
  C   0.87134780093104      0.01393336783138      0.49566642222821
  C   -0.63418872135215     -0.25219529458455      0.50049873933851
  F   1.28921357779851      0.41635188030503      1.72569803211919
  H   -0.75187506640591     -1.14582634855609      1.12676811224230
  C   1.60733588898225     -1.18634362655400      0.08576374613329
  N   2.12683960008386     -2.19573747237803     -0.21638874158841
  N   1.24995291607246      1.15739057559719     -0.45581686973145
  O   0.45192160369938      2.08280990866387     -0.52131827788505
  O   2.34141929753842      1.07177952506476     -1.00552253163672
  C   -1.18188433221332     -0.54626066887808     -0.90000541386736
  H   -0.61695137649201     -1.35223181407386     -1.37311092083567
  H   -2.22194605365811     -0.86328657709445     -0.81940338777722
  H   -1.14335510527378      0.34390237361961     -1.52699909001583
  C   -1.36754631125569      0.82518638239781      1.16747049977971
  N   -2.01928371845495      1.63152778863941      1.71769968149647
