15
Coordinates from ORCA-job run
  C   0.76429680392988      0.21773210798238      0.43416069104680
  C   -0.57317548921337     -0.44131467652753      0.07565873851093
  F   0.56762801625817      1.43574092216059      0.97798574661493
  H   -0.33999578783651     -1.42395920144628     -0.34741769618596
  C   1.59315454977821     -0.60823738036574      1.31368128751313
  N   2.24069876136387     -1.27691558980411      2.03086032155706
  N   1.52909722274387      0.40411592131833     -0.88533067426612
  O   1.82625046252935     -0.64199517130651     -1.44612173435737
  O   1.72264164171672      1.54725076714839     -1.26076929037338
  C   -1.35923989353511      0.39915734446154     -0.93626904115615
  H   -2.33594241362818     -0.05621520516886     -1.10184083622299
  H   -1.50554722385843      1.41364848338217     -0.56522562303778
  H   -0.83638900801959      0.43780076523386     -1.89327023173000
  C   -1.33204039281162     -0.63287799040919      1.31241393870461
  N   -1.96443724941726     -0.77493109665906      2.29148440338229
