15
Coordinates from ORCA-job run
  C   0.85335985593012      0.01020660286780      0.56985504754955
  C   -0.65220754457510     -0.27533654627433      0.46269337632196
  F   1.17120310626552      0.27310763850789      1.85639071295896
  H   -0.81889636490283     -1.09963585450198      1.16743239899959
  C   1.65839370567642     -1.10597709228910      0.06998555302620
  N   2.27571369856057     -2.03863034254728     -0.29010958114181
  N   1.20204369113365      1.25447570252854     -0.25812021413418
  O   1.32420527096018      2.30158025171189      0.35408235190028
  O   1.27984226694906      1.06493281954865     -1.46572222862669
  C   -1.12733379038311     -0.69072332852832     -0.93246132422667
  H   -0.55998812032563     -1.55167673354822     -1.28926510891155
  H   -1.01914980249238      0.12344434297566     -1.64706683146676
  H   -2.18062145967642     -0.96817327218270     -0.87588113328353
  C   -1.39171882382021      0.88835347893988      0.95715635234951
  N   -2.01584568929980      1.81405233279171      1.32103062868512
