15
Coordinates from ORCA-job run
  C   0.88899339446641     -0.15179688713010      0.06723012124946
  C   -0.59974805437044     -0.08107642819645      0.41574018869946
  F   1.37518584776926     -1.35086219683522      0.47736545297335
  H   -0.64465314859281     -0.24447962413861      1.49925091140854
  C   1.16103038431567      0.03938507336371     -1.35667917557455
  N   1.32886532400314      0.12496390137238     -2.51652005504835
  N   1.61964332026887      0.92626877975706      0.87820387034207
  O   1.97792545479083      1.92994598571179      0.27722897660330
  O   1.72358638214254      0.68018166703855      2.07081596979602
  C   -1.39361203995744     -1.16399134109475     -0.31988253583595
  H   -2.43314020288377     -1.13764109686985      0.00894983960668
  H   -0.98043447318446     -2.14721820024212     -0.09369160853144
  H   -1.36789611615323     -0.99997935533579     -1.39845426344955
  C   -1.11006031559599      1.25735344274207      0.12025235496772
  N   -1.54568575701861      2.31894627985729     -0.12981004720673
