15
Coordinates from ORCA-job run
  C   0.76909762711165      0.27875826166201      0.38958142502114
  C   -0.55801335445737     -0.44643971423737      0.13489015234217
  F   0.55217068377675      1.53779578541386      0.82043291006508
  H   -0.30810392611199     -1.46002716556994     -0.19555303158571
  C   1.64455075529707     -0.43720737856738      1.31882768801276
  N   2.32571973406224     -1.02054596568533      2.07810902292234
  N   1.49191650996612      0.35762620079197     -0.96407968721436
  O   1.80717618419971     -0.72917265082406     -1.42968746403980
  O   1.63868153833637      1.46376166935481     -1.45412319595432
  C   -1.39281617427037      0.26943127727181     -0.93230913421826
  H   -0.89839512517554      0.22183707453547     -1.90390000230500
  H   -2.36238163153707     -0.22130238925874     -1.02106907087634
  H   -1.55324885898819      1.31309873350865     -0.66127437536521
  C   -1.27895849536962     -0.53320330480428      1.40567985064609
  N   -1.87839546683982     -0.59341043359153      2.41347491254940
