15
Coordinates from ORCA-job run
  C   0.78996676820620      0.34447963775367      0.27614557851571
  C   -0.53476075347247     -0.42740981171349      0.24717804137557
  F   0.57777293771417      1.65210063976230      0.52728349330950
  H   -0.28663987044512     -1.47605252483237      0.05262745458553
  C   1.75664073635478     -0.20859880627697      1.22613905523869
  N   2.51743937965628     -0.65192399588276      2.00440146093761
  N   1.39834633024160      0.22315809672776     -1.12980619248575
  O   1.47959436437731      1.24300340424833     -1.79208928899188
  O   1.69920435686621     -0.91886010525349     -1.45022703069863
  C   -1.47164407250144      0.10755476655649     -0.84077616063867
  H   -1.63266254049020      1.17894058055054     -0.71967437472016
  H   -2.43402461930376     -0.40008581598075     -0.77091231135137
  H   -1.05830182200842     -0.08433611729093     -1.83229908797615
  C   -1.14528568823684     -0.33116624315334      1.57391112191288
  N   -1.65564550695832     -0.24980370521497      2.62809824098712
