15
Coordinates from ORCA-job run
  C   0.89826862898128     -0.07268734925607      0.06937708195750
  C   -0.58985152758389     -0.09979941349005      0.42648520568008
  F   1.48232483046966     -1.19800017871820      0.55383892389066
  H   -0.61685157962218     -0.19283997003711      1.51888222099543
  C   1.14913401876112      0.04307162576251     -1.36662546644652
  N   1.31113744709888      0.04400465828765     -2.53047973439993
  N   1.54150637025041      1.11333962229323      0.79907150735098
  O   1.81009110151301      2.10104389926276      0.12868055248580
  O   1.67220516743989      0.95781274184730      2.00419577709599
  C   -1.29529764416537     -1.29116898381203     -0.22717161409470
  H   -1.28643764285771     -1.19964795222229     -1.31455932595452
  H   -2.33244975158230     -1.32670301548246      0.10821387560075
  H   -0.80268275331563     -2.21995215430382      0.06145393529961
  C   -1.20923348002323      1.16925598771374      0.04591061790603
  N   -1.73086318536399      2.17127048215484     -0.27527355736721
