15
Coordinates from ORCA-job run
  C   0.79253224127609      0.32491038630580      0.29415750929002
  C   -0.53577143108844     -0.43838334841534      0.22476962883522
  F   0.58614338523177      1.61756313560372      0.61723342696238
  H   -0.29304080950158     -1.47624523339092     -0.02610417481166
  C   1.75731169236584     -0.28437260086802      1.21106659366898
  N   2.51391607486628     -0.78007625230489      1.96114304721649
  N   1.39862559188246      0.27865691644873     -1.11710652364628
  O   1.69547681922477     -0.84489359325404     -1.50024126720482
  O   1.48228842578278      1.33294500120385     -1.72270600290916
  C   -1.47108876107240      0.15870339896668     -0.83201752439714
  H   -1.05893800372029      0.02042532007454     -1.83288655646480
  H   -1.62852977548313      1.22226327303008     -0.65174584801893
  H   -2.43500421363585     -0.34902397195565     -0.78928031574165
  C   -1.14622375732056     -0.40877035326432      1.55469350863814
  N   -1.65969747880773     -0.37370207818020      2.61002449858324
