15
Coordinates from ORCA-job run
  C   0.85858846597559      0.01178634719656      0.56250750319491
  C   -0.64879514689359     -0.26940816823916      0.47169594138161
  F   1.18909890250446      0.28433661720281      1.84392447646705
  H   -0.81249063309691     -1.08610668134266      1.18587350202330
  C   1.65615739151413     -1.11024292919766      0.06435730099776
  N   2.26799705792421     -2.04641287907332     -0.29583149013945
  N   1.20287323279241      1.24852535436229     -0.27876598549810
  O   1.26771939016263      1.04901224779926     -1.48555122529219
  O   1.33437527556023      2.30009964018107      0.32371419194269
  C   -1.13800833239081     -0.69674778859421     -0.91507375017360
  H   -1.03473067117702      0.11048460058518     -1.63823234838045
  H   -2.19129188028847     -0.97134207054345     -0.84588634037254
  H   -0.57589744100936     -1.56234891323750     -1.26895102909945
  C   -1.37991690665473      0.90191394577205      0.96044326437021
  N   -1.99567870492276      1.83645067712869      1.31577598857822
