15
Coordinates from ORCA-job run
  C   0.79394373555109     -0.07800774614013      0.42563711670360
  C   -0.69743690517476      0.15352371643739      0.16990272389163
  F   0.93068305686859     -0.84502674877090      1.53692278081767
  H   -1.07368482069515      0.61610267143861      1.09033709849403
  C   1.48590947609509     -0.70020235286540     -0.70224060117354
  N   1.98866643912486     -1.26279766669445     -1.60304775091152
  N   1.43954867621323      1.27837237852876      0.73801290228271
  O   2.11851488469968      1.78948491253191     -0.14213775677168
  O   1.15950268683132      1.73191626817452      1.83779586481986
  C   -1.42545679152286     -1.16626917578591     -0.09874165480364
  H   -2.49392324295106     -0.97524602584680     -0.20521816190330
  H   -1.06394750815445     -1.63006962469618     -1.01805047935220
  H   -1.27421847447357     -1.85148112907722      0.73562993106695
  C   -0.86523180409746      1.09804429919511     -0.93403092420119
  N   -1.02386940831453      1.83965622357069     -1.83077108895937
