14
Coordinates from ORCA-job run
  C   0.76977312177446      0.39482453479248     -0.29919653477039
  C   -0.46282836852478     -0.18269327855163     -0.09564725609853
  C   1.18996170538690      0.70779153320005     -1.61923233072166
  N   1.39628564241916      0.90843308518637     -2.76115301995675
  N   1.71492889064747      0.69982751476435      0.75160010432572
  O   2.80699171251807      1.13632423312863      0.39087268156893
  O   1.38085022129595      0.51322183485002      1.92217038581195
  N   -1.29056588025828     -0.36338894993064     -1.14855401593266
  H   -2.09219453247351     -0.95960082116389     -1.04148253443094
  H   -0.95465934030103     -0.21443780628678     -2.08870271234320
  C   -1.01309931190110     -0.58794768698803      1.23932886185434
  H   -1.97772038541814     -1.08337650827958      1.11386663483309
  H   -0.32626680105028     -1.25370132386673      1.75931753914722
  H   -1.14145667411488      0.28572363914538      1.87781219671288
