14
Coordinates from ORCA-job run
  C   0.90945775536570      0.09004601850545     -0.04822356750278
  C   -0.40973990380198     -0.29833119978072      0.00702363779430
  C   1.93299183434680     -0.89445491526154     -0.03680613445571
  N   2.66318756016780     -1.81823362412129     -0.02079334463093
  N   1.35769020965529      1.46402144260259     -0.09389743160304
  O   0.51601167315672      2.35953886106800     -0.17344158048276
  O   2.57426827929475      1.64098048949365     -0.05317616517310
  N   -0.71303944492176     -1.61534979744628     -0.01818518837936
  H   -1.64286540942919     -1.90524889237960      0.22885650119657
  H   0.01886782602054     -2.30438695706623      0.07378588867739
  C   -1.58180037791020      0.63684454997714      0.03281219583733
  H   -1.62416722327442      1.21684799674106     -0.88874351293076
  H   -2.51027045119179      0.07344978113417      0.14302346864702
  H   -1.49159232747825      1.35427624653361      0.84676523300584
