14
Coordinates from ORCA-job run
  C   0.82160951255770      0.27817872007365     -0.29267430566652
  C   -0.46015875796393     -0.18597989059777     -0.10181400547136
  C   1.32436911597344      0.43055406744164     -1.61210671939521
  N   1.59748283147343      0.50401230311450     -2.75530285181431
  N   1.72512707063758      0.65130205797411      0.77248013995871
  O   1.34779892133040      0.53404789404209      1.93883380577196
  O   2.83012558000046      1.06720642793827      0.42735828224670
  N   -1.19290386940514     -0.56295607398027     -1.17314326753681
  H   -2.18067869757512     -0.70879232730158     -1.06076079298922
  H   -0.86411615444945     -0.36522120344088     -2.10668379046541
  C   -1.11789306313394     -0.37385533551703      1.23272582951316
  H   -0.56146278194439     -1.09221657339351      1.83392658408010
  H   -1.12849279701071      0.55800926056730      1.79591231743015
  H   -2.13980691049032     -0.73428932692054      1.10124877433807
