14
Coordinates from ORCA-job run
  C   0.76108858155899      0.39614331463470     -0.31913441417610
  C   -0.46350007930879     -0.18661026753067     -0.08386613906937
  C   1.14642495723627      0.70937716035943     -1.64956492644793
  N   1.32280157100078      0.90920486828252     -2.79661051390021
  N   1.72817255813489      0.71404268404932      0.70775329314502
  O   2.80017770162851      1.17665965464533      0.32066772741162
  O   1.43059483002769      0.51166163228716      1.88556300431156
  N   -1.31386226965743     -0.37727290066035     -1.11672900537843
  H   -0.99920680997739     -0.23248395142171     -2.06491783325628
  H   -2.11272317593453     -0.97250807016398     -0.98772777621376
  C   -0.97981868995204     -0.59051501843303      1.26483547242016
  H   -1.95162996382905     -1.07792544568964      1.16578514260609
  H   -0.28354554367522     -1.26276979407487      1.76344227037063
  H   -1.08297366725270      0.28199613371580      1.90950369817701
