14
Coordinates from ORCA-job run
  C   0.87365003782168      0.01892866090707      0.16270436149439
  C   -0.46223002311320     -0.07228148026600     -0.16922772029823
  C   1.30527433530913      0.64995353840459      1.36125363760518
  N   1.60914839596899      1.18041695587024      2.36653959451318
  N   1.93952123002589     -0.45730201573095     -0.68950699523688
  O   3.09274124095956     -0.28620618609995     -0.30468183024427
  O   1.63526006896240     -1.01244147605423     -1.75512505211486
  N   -0.93510804207553     -0.67809670927565     -1.26777065250784
  H   -1.91235458158995     -0.59778881882052     -1.48875809808969
  H   -0.28407784883107     -1.00033547317638     -1.96771157388067
  C   -1.50738720506942      0.46568482054070      0.76629602709357
  H   -2.15822196440763      1.16141184294401      0.22959027160980
  H   -2.12290406814905     -0.35740841267546      1.13947337726823
  H   -1.07331157581178      0.98646475343253      1.61592465278809
