14
Coordinates from ORCA-job run
  C   0.82127256309134      0.30906649978007     -0.09852822489915
  C   -0.41921573640033     -0.27905057255128      0.04343515380146
  C   0.99276760742822      1.71106818571238      0.05690482668438
  N   1.06891941071972      2.87735606290733      0.19342840876934
  N   2.03174327203282     -0.43237027866125     -0.35854114293777
  O   1.94707022855562     -1.66094600741110     -0.50283496744469
  O   3.08189205114464      0.19994898264997     -0.42635528500104
  N   -0.66578749140492     -1.58465322452072     -0.12481439558328
  H   -1.57273860761034     -1.94950301627921      0.10775268303366
  H   0.11140314748947     -2.21393812211066     -0.26014740191714
  C   -1.61637860494349      0.59140157300396      0.30111509928302
  H   -2.04928578360976      0.90919233436024     -0.65116364386917
  H   -2.37745551069033      0.03815600230824      0.85562326924846
  H   -1.35320654580267      1.48427158081203      0.86512562083191
