14
Coordinates from ORCA-job run
  C   0.79805489698095      0.36676538299386     -0.10866028757708
  C   -0.40467330718872     -0.29743951401266      0.01915282972043
  C   0.95820061593650      1.70211180607246      0.35089675660621
  N   1.02937668167647      2.80813424993561      0.74606495939092
  N   1.98903900491604     -0.23817413790853     -0.65665130718261
  O   3.01173096031926      0.44067433685475     -0.67959553719981
  O   1.91589389378722     -1.40282913263446     -1.07518774627337
  N   -0.63906853620559     -1.53998822996602     -0.42470297137360
  H   0.13297951979266     -2.08461901198658     -0.77914028833385
  H   -1.50345793434912     -1.99246137176788     -0.18358512105893
  C   -1.58952414244527      0.42496258478122      0.59515114843513
  H   -2.21116625799890     -0.26701476036681      1.16809740581662
  H   -1.29159520861354      1.24514112926866      1.24466814199120
  H   -2.19479018660796      0.83573666873637     -0.21750798296128
