14
Coordinates from ORCA-job run
  C   0.86094392119084      0.00266542234735     -0.20192542287597
  C   -0.48380453951382      0.10629567045222      0.09015073396507
  C   1.52598364396291     -1.25291457570648     -0.18469058604193
  N   2.02267031378782     -2.31921737886581     -0.15395070412989
  N   1.68214072963037      1.12478205557484     -0.59016409354606
  O   1.16157404924323      2.24956770011090     -0.62094215278175
  O   2.85634422565348      0.89957948549468     -0.86897498721491
  N   -1.16713656377835      1.25784579609140      0.13169309610269
  H   -2.16623869196117      1.23456861392313      0.23706136731386
  H   -0.71182676400304      2.10718524641571     -0.16739973501048
  C   -1.24638959636526     -1.12274006223729      0.49645682076483
  H   -0.80127530217827     -2.03061537696077      0.09447457777708
  H   -2.28094280126721     -1.05703798166525      0.15198004408602
  H   -1.25204262440155     -1.20096461497461      1.58723104159142
