14
Coordinates from ORCA-job run
  C   0.82919677971603      0.30459136116786      0.02376892384741
  C   -0.42397342464237     -0.26845059412669     -0.04783104065097
  C   0.99813975899631      1.66663086028021      0.39204921773892
  N   1.07552959650016      2.79888092311597      0.70320173303632
  N   2.04605300934568     -0.39185737392478     -0.32001378733407
  O   1.96577158361795     -1.58433538308194     -0.64969085156998
  O   3.09701608721196      0.24017143546704     -0.26518118800949
  N   -0.65758362298698     -1.55316883777136     -0.34859006052074
  H   0.11184524937088     -2.12729084008090     -0.65995336962637
  H   -1.60293358612917     -1.85628712182244     -0.50396770989737
  C   -1.62698694292468      0.54448485060232      0.33863527843133
  H   -2.49987713622828      0.22625790364988     -0.23595629385572
  H   -1.46914004279074      1.60843800589740      0.17343036050566
  H   -1.84205730905675      0.39393481062743      1.40009878790507
