14
Coordinates from ORCA-job run
  C   0.81613429006744      0.26125933670174     -0.31897642848932
  C   -0.46718373279190     -0.17900192852055     -0.08720118379455
  C   1.28423031768244      0.39739475911833     -1.65235573199338
  N   1.52806574597123      0.46053544042149     -2.80269805860681
  N   1.75337341639767      0.63581697474843      0.71730778348276
  O   1.39459882913398      0.57042317276295      1.89348548597484
  O   2.86549975254947      0.99951291068785      0.33809255788326
  N   -1.23881922203232     -0.54134152800379     -1.13557809433256
  H   -2.22288811939225     -0.68313599434732     -0.99337915206082
  H   -0.93556422550804     -0.34917802872076     -2.07931124821257
  C   -1.08376210438384     -0.35830519368241      1.26705686739707
  H   -2.09867436487206     -0.74822460205535      1.16904712039304
  H   -0.49163453839168     -1.04802663359046      1.86886266090125
  H   -1.10337604443015      0.58227131447985      1.81564742145780
