14
Coordinates from ORCA-job run
  C   0.82384569281739      0.30454860469063     -0.08063379560307
  C   -0.42167712508895     -0.27851620369693      0.03460119075526
  C   0.99203954802112      1.70915067083160      0.05222817715914
  N   1.06549287602501      2.87735808624262      0.17240781018745
  N   2.04059020050817     -0.44382973576344     -0.28497992782162
  O   3.09359982737031      0.18557092962533     -0.33343669811828
  O   1.95831468848468     -1.67557992525306     -0.40179512994973
  N   -0.66623444355349     -1.58681964382263     -0.11602677718000
  H   0.11445807470249     -2.21998795244245     -0.20740516499609
  H   -1.57898835238588     -1.94520417452443      0.10323781518861
  C   -1.62297774468054      0.60144999889031      0.23536248816833
  H   -2.41998572503298      0.05211619554944      0.74078000537307
  H   -1.38115918295223      1.48601979397442      0.82202302041594
  H   -1.99731833423509      0.93472335569860     -0.73636301357902
