14
Coordinates from ORCA-job run
  C   0.76076442674681      0.32976808381173     -0.38661366681711
  C   -0.45124315344164     -0.22387117028248     -0.12649827441631
  C   1.26861076960067      0.53597991501677     -1.69210053553862
  N   1.63093136513117      0.68123214687709     -2.80294550297408
  N   1.62684738741464      0.72325628279864      0.72355050727261
  O   1.20035968671808      1.59212785940171      1.48537147999017
  O   2.71462400957199      0.15829246223294      0.81618618902750
  N   -1.24689029073799     -0.72480370601044     -1.13673141981767
  H   -2.23561089187451     -0.65242712087811     -0.93086676461721
  H   -1.03734107118658     -0.35986175452679     -2.05799073671480
  C   -0.95238064234607     -0.44939183812205      1.26748919345501
  H   -0.14237578092171     -0.67434956256438      1.96126303652575
  H   -1.53413255073320      0.39223433155557      1.64009758291030
  H   -1.60116326394165     -1.32618592931018      1.23978891171444
