14
Coordinates from ORCA-job run
  C   0.82232420441632      0.34084337792508      0.02724831289715
  C   -0.41175273192472     -0.27347851656041     -0.04573192874234
  C   0.96601558115172      1.67438995495481      0.49798200644353
  N   1.03037719124634      2.77942408566384      0.89710133972179
  N   2.05678973715964     -0.30604657156967     -0.35231254343693
  O   3.09516456910331      0.33785757189038     -0.23244559874250
  O   2.00336500949940     -1.46973303356825     -0.77632352169679
  N   -0.61334411838671     -1.52703990365546     -0.46980940242361
  H   0.17022916096190     -2.08386511991449     -0.77448372585902
  H   -1.54601789808240     -1.89930377984355     -0.50402365313308
  C   -1.65065187258043      0.47386150890874      0.36050999347379
  H   -2.30948628780440      0.58204094956182     -0.50568421182756
  H   -2.18481868939718     -0.09260667363746      1.12787846155218
  H   -1.42819385536280      1.46365614984464      0.75109447177340
