14
Coordinates from ORCA-job run
  C   0.83137031266313      0.29256443879497     -0.03502485446704
  C   -0.42652511245751     -0.27335052053358      0.01036167534131
  C   1.01200499526792      1.69180506206073      0.13202935638192
  N   1.09338433037583      2.85658757337359      0.27849303313968
  N   2.04522365151377     -0.46973284431499     -0.20023972938239
  O   1.95067248915934     -1.69749858482302     -0.34564691368666
  O   3.10792999411629      0.14500098472651     -0.19178428345687
  N   -0.68252132409477     -1.57494226181970     -0.17373404907634
  H   -1.61067809575035     -1.92310317045294     -0.00989254147894
  H   0.09217270467248     -2.21809256389977     -0.24363558941464
  C   -1.62262553646926      0.62166402152582      0.17265231483044
  H   -1.93889602415274      0.98910918346625     -0.80723717209940
  H   -2.45437112097641      0.07297371870677      0.61906090914423
  H   -1.39814126386773      1.48501496318935      0.79659784422469
