14
Coordinates from ORCA-job run
  C   0.83984209812878      0.29195637328641      0.04569562737142
  C   -0.42609806244731     -0.25018134587869     -0.04986596090357
  C   1.04401167184963      1.66348959909562      0.35836404447951
  N   1.15703184402173      2.80475399975472      0.62153897896948
  N   2.04919167477450     -0.46749366955524     -0.17318390946984
  O   1.94469912423659     -1.67254030741732     -0.44518089167500
  O   3.11862120731544      0.12755012752876     -0.07506024995073
  N   -0.68445525952831     -1.53129498640807     -0.34000946163959
  H   -1.63599506589909     -1.84864507294752     -0.39786083787929
  H   0.07836766161445     -2.16808517049694     -0.51215792318717
  C   -1.63387755742350      0.60912516999348      0.19594387780950
  H   -1.37302455568438      1.65047065367942      0.36737973873761
  H   -2.30346952762508      0.55482476956820     -0.66668699803722
  H   -2.17384525333346      0.23706985979717      1.07108396537490
