14
Coordinates from ORCA-job run
  C   0.83056912883040      0.31457251800080      0.03552936119150
  C   -0.41949799599894     -0.26665403916513     -0.02792185365533
  C   1.00361550639742      1.68429242821515      0.37320946510856
  N   1.09553001914852      2.82325998721749      0.65405527215661
  N   2.05608110342053     -0.40145770219073     -0.23711779844211
  O   3.10961265448744      0.22250829831509     -0.14772751938233
  O   1.97932997918153     -1.59913622101527     -0.54760300955986
  N   -0.64617660522975     -1.55405051694495     -0.31924796298667
  H   -1.59042810152155     -1.88611273364766     -0.40849043878530
  H   0.12769856906177     -2.14990132918254     -0.57061550228838
  C   -1.64592080047087      0.55541371135134      0.25014192590296
  H   -2.24786237176549      0.06781632852599      1.02121763534127
  H   -2.25002932917485      0.62824513143673     -0.65864590358684
  H   -1.40252175636617      1.56120413908368      0.58321632898590
