14
Coordinates from ORCA-job run
  C   0.81993303834387      0.34297644424540      0.03126893051457
  C   -0.40737969171658     -0.28508931133404     -0.01979681252187
  C   0.94858513746823      1.70096030565216      0.43183470929878
  N   0.99992685420542      2.82599495344022      0.77242581783640
  N   2.05889889268309     -0.29825911738032     -0.34683124427425
  O   3.08748223338740      0.36796783538193     -0.27362350035960
  O   2.01818418527656     -1.47933903429098     -0.72070479466216
  N   -0.59351379215037     -1.56832595445703     -0.36050145583923
  H   -1.53020959130826     -1.91141682536171     -0.48477669539796
  H   0.18825013421509     -2.09970014573905     -0.71264674203408
  C   -1.65301251985174      0.46684940582655      0.35461377002162
  H   -2.27691425014802      0.60297112175969     -0.53347155209621
  H   -2.22319843685104     -0.10941546689794      1.08725135622176
  H   -1.43503219355365      1.44582578915511      0.77395821329224
