14
Coordinates from ORCA-job run
  C   0.81888179890566      0.34866340906626     -0.00882000099425
  C   -0.40835425792275     -0.28204202221147     -0.01875759876091
  C   0.94860400123747      1.72288058990711      0.33212060262360
  N   0.99584324097136      2.85905215698034      0.63402626911775
  N   2.05714217039728     -0.31012987038493     -0.35704808867766
  O   2.01520143708607     -1.50751523790011     -0.67424059655749
  O   3.08567793395085      0.35886927736028     -0.31645439563525
  N   -0.59649857767770     -1.57948522483476     -0.29686978551967
  H   0.18311010444294     -2.13387551369149     -0.61592250073448
  H   -1.53320503413165     -1.93512724057496     -0.37710977091291
  C   -1.64902277734487      0.47918919395029      0.35462021202104
  H   -2.36904860096526      0.43234550826163     -0.46737976167580
  H   -1.44395308618537      1.52396343764875      0.57444529043431
  H   -2.10437835276403      0.02121153642307      1.23639012527170
