14
Coordinates from ORCA-job run
  C   0.82811166679558      0.30374276086567      0.04527042685548
  C   -0.42244273206085     -0.26996393531295     -0.06277060051961
  C   0.98244411666025      1.66764341330587      0.41282342475824
  N   1.04355789110776      2.80102272154364      0.72326528645764
  N   2.05587310180138     -0.39567633938888     -0.24822925972081
  O   1.98632227634264     -1.58991468682493     -0.57418629160304
  O   3.10508749747413      0.23519890016969     -0.15633697462433
  N   -0.64641473703944     -1.55605542011941     -0.36316006244725
  H   0.13322868220226     -2.13401602071652     -0.64015731072804
  H   -1.58653624907075     -1.86411427197862     -0.53935670828040
  C   -1.63541304511381      0.54887206325187      0.27812188556923
  H   -2.50205996882693      0.19908380269030     -0.28715039838704
  H   -1.85689508064185      0.44679852394769      1.34395988823698
  H   -1.48286341963035      1.60537848856659      0.06590669443294
