14
Coordinates from ORCA-job run
  C   0.78084471986265      0.37035710276879     -0.30133640264515
  C   -0.49556367500783     -0.08536576953236     -0.06242029089714
  C   1.07467279266931      1.02985301924664     -1.52422874607827
  N   1.16089889338627      1.55706220882031     -2.57376206795892
  N   1.89147950903471      0.21165644179668      0.61115620559328
  O   2.98722331891378      0.59662723009211      0.20578914237600
  O   1.68337271248242     -0.28676265263617      1.71783113054733
  N   -1.47125969826839      0.17899801820143     -0.95974527541042
  H   -1.23772241029508      0.57296597488782     -1.85927482373688
  H   -2.33996173783909     -0.32184716753548     -0.89537056536209
  C   -0.93011940671264     -0.81976107354052      1.17086432408108
  H   -1.97194538164551     -1.13159260594531      1.07583591006357
  H   -0.30326644543657     -1.69194087534405      1.34824319695231
  H   -0.82865319114403     -0.18024985127989      2.04741826247530
