14
Coordinates from ORCA-job run
  C   0.82429709470356      0.31405566602557      0.05250856393425
  C   -0.41820578322847     -0.26698129180188     -0.10264332327020
  C   0.95290406110958      1.67091378106768      0.45345192417683
  N   0.99048923057557      2.79844316911771      0.78816758829187
  N   2.06686579049741     -0.39022413063753     -0.14873899432108
  O   3.10933085195779      0.23512314474178      0.02298424132369
  O   2.01602512488274     -1.58286569814229     -0.48467264890113
  N   -0.62394926648734     -1.53280614958590     -0.48549230527906
  H   0.16942044739110     -2.14560403128194     -0.60165071065485
  H   -1.55642328053310     -1.90709264164371     -0.48726133116896
  C   -1.64698043552841      0.54844831313569      0.18676592289922
  H   -1.88663129406058      0.48755564777768      1.25201069859393
  H   -2.49815231020501      0.17173976542397     -0.38370915767305
  H   -1.49899023107484      1.59829445580317     -0.06072046795145
