14
Coordinates from ORCA-job run
  C   0.82100458443440      0.32565492999047      0.02852743343723
  C   -0.41575571561863     -0.28258479272358     -0.04223778662649
  C   0.95274071591386      1.68354697014998      0.42575012723085
  N   0.99708905209066      2.81106152687641      0.75937869043622
  N   2.06374320917833     -0.35995455703121     -0.23399516957368
  O   2.01461849589588     -1.54694385556215     -0.58916181610168
  O   3.10426132003541      0.27612629043031     -0.09244829273221
  N   -0.62187371459491     -1.54354820297988     -0.44478621385132
  H   0.17598922918386     -2.13948024416290     -0.60844840235692
  H   -1.53863455000793     -1.94494581256741     -0.35440780311742
  C   -1.64898697620243      0.52703685232400      0.24243684013328
  H   -2.01968968661513      0.96505900354026     -0.68837220925461
  H   -1.45065667218335      1.33731789491464      0.94132374778800
  H   -2.43384929151003     -0.10934600319895      0.65744085458873
