14
Coordinates from ORCA-job run
  C   0.87730410000059      0.16195318717756     -0.21358691224654
  C   -0.39735115147417     -0.28902016206919      0.02779471204950
  C   1.76191197913774     -0.64265095707741     -0.98307879859981
  N   2.37787534062811     -1.42719982721344     -1.60927016389183
  N   1.43423947855894      1.43038407279630      0.22398675464354
  O   0.86255234996056      2.07049953473417      1.10490919063826
  O   2.48203700587498      1.76968055277805     -0.32316621248371
  N   -0.74241152091466     -1.54532454530354     -0.35351701809423
  H   -1.72279479057995     -1.76021187523742     -0.41702249092518
  H   -0.13267441665229     -2.06890457276446     -0.96453766785929
  C   -1.48673957194262      0.45358977525037      0.74286591056990
  H   -1.19589669648900      1.46293730055569      1.00655729719798
  H   -2.37390836982704      0.47659972511027      0.10215442628648
  H   -1.74314373628120     -0.09333220873694      1.65591097271493
