15

C	-0.47826	0.069573	-1.456512
C	0.0	0.0	0.0
F	0.091954	1.125243	-2.062961
H	1.096891	0.0	0.0
N	-0.068763	-1.18966	-2.230572
O	-0.704641	-2.19835	-1.940989
O	0.830332	-1.079178	-3.045511
C	-1.941728	0.179318	-1.550642
N	-3.107078	0.319163	-1.602675
C	-0.492096	-1.191318	0.690877
N	-0.89822	-2.081285	1.342988
N	-0.424152	1.238812	0.642269
H	0.374654	1.634337	1.12323
H	-1.172752	1.082469	1.303476
Br	3.352827	0.0	0.0
