15

C	-0.58742	-0.032223	-1.407297
C	0.0	0.0	0.0
F	-1.944453	-0.147572	-1.339218
H	1.091846	0.0	0.0
N	-0.283793	1.307218	-2.082
O	-1.22792	2.054501	-2.277027
O	0.893624	1.487099	-2.34744
C	-0.061529	-1.099449	-2.260926
N	0.309532	-1.957671	-2.973561
C	-0.449154	-1.212894	0.698874
N	-0.827628	-2.145215	1.305629
N	-0.412762	1.236732	0.643375
H	0.338844	1.541335	1.249781
H	-1.264634	1.128934	1.17709
Br	3.357158	0.0	0.0
