15

C	-0.501095	0.047404	-1.441086
C	0.0	0.0	0.0
F	0.10039	1.059762	-2.109269
H	1.091609	0.0	0.0
N	-0.162136	-1.219868	-2.229462
O	-0.652686	-1.276755	-3.353099
O	0.598378	-2.025505	-1.709918
C	-1.960877	0.228074	-1.499449
N	-3.124427	0.389227	-1.48239
C	-0.53625	-1.179198	0.679414
N	-1.055127	-2.059023	1.260998
N	-0.411064	1.254293	0.62608
H	-1.173653	1.122232	1.2759
H	0.389637	1.636824	1.113385
Br	3.373588	0.0	0.0
