16
Coordinates from ORCA-job run
  C   0.59451387716134     -0.22522607015315      0.23891475799271
  C   -0.92785020397463     -0.45179384598702      0.12114421977964
  Cl  1.15026524857856     -1.70954753790980      1.20520112240609
  H   -1.35664909827800     -0.55890313218772      1.11797419688501
  N   1.16525038474893     -0.13759432865930     -1.04390663388381
  H   2.15042982753491      0.08766087135609     -1.00795663828812
  H   1.02012421179227     -0.96493955162639     -1.60973695255985
  C   0.94334781622608      0.99114455644780      1.07561477891459
  H   2.01969350207378      0.99770672133249      1.25827609693535
  H   0.43269600092355      0.96672103816977      2.03760392257926
  H   0.66767317306743      1.90156545623676      0.54293590346962
  C   -1.24265206008574     -1.60773908405333     -0.70855196884898
  N   -1.46841513680866     -2.54588923814753     -1.37788727652019
  N   -1.56967883454044      0.78100233325642     -0.48063863232430
  O   -1.88604387759071      1.64930881898133      0.32798638098081
  O   -1.69370483082868      0.82652299294358     -1.69697327751785
