16
Coordinates from ORCA-job run
  C   0.56044008032642     -0.26892771601730      0.42120147178533
  C   -0.97613785356159     -0.28590360563304      0.27939789405499
  Cl  0.88042789319009     -1.14459898520428      1.96531323540000
  H   -1.43089026107431      0.07376218781965      1.20261045110731
  N   1.14706513392254     -1.03368884989972     -0.64077574451764
  H   2.15781363200856     -0.99238252405643     -0.59403343192470
  H   0.83076059242232     -0.69497045893934     -1.54242981533879
  C   1.07099610647876      1.15770859520681      0.58488895021825
  H   0.94479611191350      1.70667711226722     -0.35197504252922
  H   2.13585793664744      1.12853428356996      0.82225204400028
  H   0.55291094321258      1.69025136939732      1.38508923318329
  C   -1.50066534387208     -1.59836247631407     -0.07598522115305
  N   -1.97701508625171     -2.63604101115266     -0.34894548374110
  N   -1.38144109432399      0.71447640351208     -0.78041187718770
  O   -1.93170196900942      1.73588162500012     -0.38453877375316
  O   -1.08321682202913      0.44758405044368     -1.94165788960411
