16
Coordinates from ORCA-job run
  C   0.62492425137293     -0.16922377444338      0.20500409027637
  C   -0.86390015265128     -0.56564993771354      0.11420273183664
  Cl  1.38489614226980     -1.64008840678141      1.04382045590388
  H   -1.24194742354471     -0.79225767216242      1.11163919384597
  N   1.13373248879526      0.07403117589461     -1.08412064676975
  H   1.06501493431420     -0.72419079716143     -1.70368250497550
  H   2.08741200144550      0.40960362301697     -1.05909900722908
  C   0.86124770496904      1.01919734805525      1.11781755154076
  H   0.46289968682912      1.92532804738448      0.66088474589603
  H   1.93556874300637      1.14004742812139      1.27006942801759
  H   0.39256233268341      0.86817638060602      2.08955615817151
  C   -1.07274683584463     -1.69069660887540     -0.78836944280565
  N   -1.21404520263718     -2.59978637400425     -1.51811300738182
  N   -1.66645763535087      0.62129814346202     -0.37729569593597
  O   -1.84020170637616      0.73631345809270     -1.58290696930611
  O   -2.05095932928081      1.38789796650838      0.50159291891513
