16
Coordinates from ORCA-job run
  C   0.59559283279333     -0.29545817758940      0.28001046733284
  C   -0.84305532611181     -0.63296228508564     -0.18315268136459
  Cl  0.83065241593806     -1.10291686531997      1.85759650824878
  H   -0.94837087005769     -1.71779919628101     -0.17528192777837
  N   1.44760757536266     -0.96866100569034     -0.68669637701232
  H   1.56856144531835     -0.37468883027639     -1.50160320425448
  H   2.36053927578694     -1.13455726929880     -0.27973296192801
  C   0.86367346990450      1.19089688558357      0.44403068085786
  H   0.67655011577740      1.70684977070610     -0.50178178492503
  H   1.91252434416759      1.32301233541680      0.71603724021033
  H   0.24119137462701      1.64404481753835      1.21377186677546
  C   -1.06891875712636     -0.09466923339049     -1.51905771909903
  N   -1.19299267973531      0.33761143468475     -2.60398646638036
  N   -1.89583173527633     -0.09101314706364      0.74879213854288
  O   -2.11805098485913      1.11526125541445      0.69784054852758
  O   -2.43067249650923     -0.90595048934836      1.49221367224647
