16
Coordinates from ORCA-job run
  C   0.66644176266461     -0.21663004694363      0.32682226819553
  C   -0.75900133540749     -0.62592776858575     -0.15499744689636
  Cl  0.86235054186150     -0.96872986097382      1.94331712934451
  H   -0.83038061533169     -1.71557433265091     -0.14436901190561
  N   1.67272730169934     -0.76456656593106     -0.53712039143957
  H   1.56725127310603     -1.76173790619198     -0.67879445424247
  H   1.69607067466888     -0.28263547003726     -1.42782778685090
  C   0.85930064973508      1.28233929478183      0.43867700466591
  H   0.68352325706711      1.75978609875243     -0.52929534301795
  H   1.89025791221053      1.46144809636552      0.74375703103303
  H   0.18343837658463      1.72313469705430      1.16758286031900
  C   -0.99110712264705     -0.10511505189804     -1.49656152426403
  N   -1.11619567548679      0.30694178715135     -2.58938171173148
  N   -1.86393589758396     -0.14645536372217      0.75461750794794
  O   -2.13112840366238      1.05069934850054      0.71785869770581
  O   -2.38961269947834     -0.99697695567137      1.46371517113665
