16
Coordinates from ORCA-job run
  C   0.62134446049459     -0.14258337297847      0.23539077990744
  C   -0.88890142041779     -0.45710899471374      0.28136493565121
  Cl  1.32451430010336     -1.35966637872636      1.44741976138853
  H   -1.24729644587093     -0.37073666351873      1.30768553039224
  N   1.10348707829939     -0.30550410385710     -1.07618704525436
  H   0.97250791983879     -1.24041306026312     -1.44283862963260
  H   2.07398962214224     -0.03488029473745     -1.16117520117569
  C   0.94952517745494      1.23876515256796      0.76950996094781
  H   0.58876081763154      2.00095026652072      0.07852812389818
  H   0.50152030325633      1.39806877968024      1.74965618051585
  H   2.03287440752343      1.33184356686979      0.86802749647369
  C   -1.18703471552825     -1.77561554786644     -0.26307435036930
  N   -1.40184712778464     -2.84362859556111     -0.70159567590542
  N   -1.64091818999378      0.59042821267627     -0.51287218866888
  O   -1.84422486729143      0.37357891972748     -1.69969582292918
  O   -1.95630131985781      1.59450211418005      0.11985614476048
