16
Coordinates from ORCA-job run
  C   0.55595113963293     -0.00479851473851      0.23712499898335
  C   -0.85037062055953     -0.15233855316420     -0.38548080487640
  Cl  0.28364007765371      0.33543415513122      2.02662651128399
  H   -0.71681480749191     -0.57167923439507     -1.38782674220408
  N   1.31518478369034     -1.17286433361816     -0.01480242872140
  H   0.87415534342035     -2.00937225348802      0.34484992078669
  H   2.24809318683204     -1.08248667989652      0.36679030772744
  C   1.26748512136006      1.20611759122380     -0.34190638422766
  H   0.74237972468451      2.13104078535029     -0.11011794846928
  H   1.35760573362350      1.08962063349619     -1.42459472544321
  H   2.26997318768236      1.26547484878006      0.08678398647739
  C   -1.57260540484119      1.10958441495055     -0.45501608394184
  N   -2.12782245963851      2.13753243712412     -0.57243673954203
  N   -1.68730306478447     -1.17184600078506      0.36462115619824
  O   -1.24876869958999     -2.31842732126177      0.35114160308316
  O   -2.71078324167421     -0.79199197470889      0.91324337288564
