16
Coordinates from ORCA-job run
  C   0.62494103595365     -0.23004390407204      0.13416649367164
  C   -0.86712971624358     -0.56806448838646     -0.07012744993442
  Cl  1.37847506508359     -1.89759469206319      0.44487511847756
  H   -1.24101175175080     -1.10616799688531      0.80154962832670
  N   1.12949510750305      0.41574073020611     -1.00960196617426
  H   1.05359018540115     -0.13881132656167     -1.85377597522093
  H   2.08522655453405      0.72118446073064     -0.88271959999627
  C   0.87378691832160      0.59654405761440      1.38160545770018
  H   0.40673484129896      0.14210002252504      2.25454544493583
  H   0.48151911130369      1.60449890985092      1.24508716201472
  H   1.94947684641925      0.65430331521347      1.55882488205660
  C   -1.08848573678016     -1.33531226468429     -1.28921870041016
  N   -1.23924977946765     -1.95513018138248     -2.27513253121761
  N   -1.66390422185565      0.71841671320510     -0.14085668872800
  O   -1.84301744876024      1.22199918586810     -1.24132079109163
  O   -2.03844701096093      1.15733745882167      0.94309951559004
