16
Coordinates from ORCA-job run
  C   0.55389618962589      0.02866160408908      0.23865439178655
  C   -0.84354697535861     -0.20561863952737     -0.37756443481760
  Cl  0.25976551575426      0.48716356939930      1.99845795919179
  H   -0.69108786286926     -0.69135405880098     -1.34672369961338
  N   1.34904844469714     -1.13104482551091      0.07426577267164
  H   2.27618186270661     -0.98625138446571      0.45314385371655
  H   0.92984173156001     -1.95233998005515      0.49066920339432
  C   1.23295328623767      1.21621296020724     -0.42185760980618
  H   2.23068400516228      1.33490010089103      0.00561787428199
  H   1.33309959563162      1.02656532965960     -1.49326495173899
  H   0.67968999897216      2.13920637385893     -0.25805606093099
  C   -1.60242230143037      1.02585301780782     -0.53981346150248
  N   -2.17794312866020      2.03188653048465     -0.72804802001150
  N   -1.65460765653849     -1.19402292356285      0.43950677873994
  O   -2.69320850843885     -0.80732537199484      0.95381767982141
  O   -1.18134419705186     -2.32449230247983      0.51119472481692
