16
Coordinates from ORCA-job run
  C   0.61341145794945     -0.22877341972784      0.22944403370969
  C   -0.79503619740600     -0.56747858715739     -0.30923697860054
  Cl  0.75351800210182     -1.10941785221088      1.83233818754115
  H   -0.85634059886287     -1.64331654946045     -0.48820614705198
  N   1.52145216904563     -0.71487442186474     -0.74865126908036
  H   1.51891179636093     -1.72620130109413     -0.80622595084619
  H   2.46513830467084     -0.39754218645749     -0.56645253074213
  C   0.85122525004789      1.24559529629588      0.48460412418276
  H   0.74141201039417      1.80097679965144     -0.44894120068891
  H   1.86822443638862      1.37604419295962      0.86078872979455
  H   0.15747232165125      1.63988936826091      1.22239201635733
  C   -1.07020044010251      0.17572466128853     -1.53297390175870
  N   -1.30204538775116      0.77187643486630     -2.51769090288235
  N   -1.89070691701207     -0.27640052249854      0.68835330368489
  O   -2.46408949661336     -1.24973183325668      1.16282371573610
  O   -2.11334671086263      0.90362992040548      0.93663477064469
