16

C	0.0	0.0	0.0
C	-0.511008	-0.245016	-1.416684
F	1.392923	0.0	0.0
H	-1.569646	-0.513544	-1.332288
H	-0.317445	-0.846061	0.613762
C	-0.494753	1.298296	0.579818
H	-0.105417	2.144066	0.009657
H	-1.586299	1.304913	0.565243
H	-0.148591	1.386929	1.610624
N	0.219171	-1.484795	-1.893711
O	-0.110465	-2.547223	-1.367562
O	1.119034	-1.351429	-2.717166
N	-0.342159	0.799423	-2.377548
H	0.53561	1.285008	-2.246923
H	-1.116758	1.445429	-2.302129
Br	-3.862764	0.0	0.0
