16

C	0.0	0.0	0.0
C	-0.511565	0.081655	-1.42127
F	1.389472	0.0	0.0
H	-1.606252	0.000328	-1.368887
H	-0.324711	-0.951449	0.422253
C	-0.484019	1.157913	0.836645
H	-0.122456	2.09592	0.415288
H	-1.575552	1.155668	0.848304
H	-0.108566	1.045757	1.856914
N	-0.048018	-1.199166	-2.146999
O	-0.308569	-2.273916	-1.617152
O	0.543693	-1.070133	-3.220416
N	-0.091118	1.259631	-2.089274
H	0.912614	1.248414	-2.210488
H	-0.526195	1.329619	-2.997663
Br	-3.887117	0.0	0.0
