16

C	0.0	0.0	0.0
C	-0.324974	0.165047	-1.495865
F	1.390345	0.0	0.0
H	0.156655	-0.666861	-2.016113
H	-0.330407	-1.003846	0.286416
C	-0.562131	1.022972	0.949203
H	-0.222432	2.024196	0.692021
H	-1.653648	0.981048	0.908616
H	-0.246554	0.778704	1.96662
N	0.526584	1.350781	-2.001189
O	0.230984	2.476317	-1.613251
O	1.434177	1.093479	-2.792268
N	-1.661368	0.352194	-1.890729
H	-2.359305	0.468049	-1.156357
H	-1.981023	-0.368098	-2.517815
Br	-4.365303	0.0	0.0
