14

C	0.0	0.0	0.0
C	-0.53872	-0.011796	-1.421598
F	1.355343	0.0	0.0
H	0.251797	-0.457492	-2.031288
H	-1.425601	-0.640247	-1.441917
C	-0.443214	1.123219	0.835168
N	-0.590035	2.068311	1.516655
N	-0.318167	-1.31546	0.718749
O	-0.371767	-1.288303	1.941232
O	-0.339075	-2.316887	0.0127
N	-0.789625	1.36293	-1.839826
H	-0.823717	1.385827	-2.851502
H	-1.724719	1.584035	-1.504735
Cl	-3.332667	0.0	0.0
