14

C	0.0	0.0	0.0
C	-0.475039	-0.493771	-1.39097
F	1.362587	0.0	0.0
H	0.377286	-0.241945	-2.032831
H	-0.528639	-1.583146	-1.330656
C	-0.439131	1.370752	0.283666
N	-0.65254	2.519538	0.399837
N	-0.395614	-0.914699	1.153022
O	-0.752574	-0.389255	2.200058
O	-0.226781	-2.111997	0.952573
N	-1.675965	0.038297	-1.958064
H	-2.503808	-0.138289	-1.378235
H	-1.60694	1.04232	-2.06812
Cl	-4.163723	0.0	0.0
