14

C	0.0	0.0	0.0
C	-0.563705	0.058006	-1.404283
F	1.364438	0.0	0.0
H	-0.294325	1.050944	-1.776999
H	-1.653762	0.014616	-1.294959
C	-0.43777	1.12957	0.831608
N	-0.621126	2.088531	1.484031
N	-0.36446	-1.296359	0.72891
O	-0.090254	-1.317824	1.924332
O	-0.804815	-2.224694	0.067213
N	0.04004	-0.959292	-2.262388
H	-0.548931	-1.779917	-2.243771
H	0.057862	-0.611359	-3.210689
Cl	-3.615236	0.0	0.0
