14

C	0.0	0.0	0.0
C	-0.533726	-0.628839	-1.281412
F	1.35709	0.0	0.0
H	-1.372098	-1.271131	-1.020252
H	0.291422	-1.232411	-1.669468
C	-0.439453	1.37427	0.267596
N	-0.583142	2.524167	0.457248
N	-0.324929	-0.880098	1.209314
O	-0.2291	-2.087261	1.01341
O	-0.507683	-0.331078	2.287866
N	-0.879966	0.428918	-2.224319
H	-1.810287	0.735867	-1.938837
H	-0.977731	0.011977	-3.142988
Cl	-3.318509	0.0	0.0
