14

C	0.0	0.0	0.0
C	-0.543813	-0.162272	-1.408347
F	1.355436	0.0	0.0
H	-1.435792	-0.781212	-1.348626
H	0.240007	-0.679817	-1.967441
C	-0.44261	1.20371	0.715082
N	-0.585078	2.218736	1.286932
N	-0.319759	-1.235136	0.851626
O	-0.371286	-1.081625	2.064884
O	-0.334684	-2.304236	0.252304
N	-0.78466	1.161385	-1.976569
H	-1.709459	1.432823	-1.64713
H	-0.845175	1.068765	-2.983135
Cl	-3.339716	0.0	0.0
