14

C	0.0	0.0	0.0
C	-0.548402	-0.057727	-1.418239
F	1.350502	0.0	0.0
H	0.263343	-0.466464	-2.027555
H	-1.392184	-0.744063	-1.422642
C	-0.440792	1.147374	0.803383
N	-0.60725	2.108038	1.457853
N	-0.32388	-1.295873	0.754262
O	-0.474955	-1.23244	1.967156
O	-0.257623	-2.319685	0.08203
N	-0.887423	1.290481	-1.85832
H	-0.959744	1.284462	-2.869229
H	-1.823836	1.460342	-1.492321
Cl	-3.344033	0.0	0.0
