14

C	0.0	0.0	0.0
C	-0.467605	0.218832	-1.435214
F	1.364372	0.0	0.0
H	0.196011	-0.38752	-2.057106
H	-1.488358	-0.144745	-1.514973
C	-0.444676	1.015301	0.959451
N	-0.567556	1.923195	1.694874
N	-0.346981	-1.391074	0.515258
O	-0.441783	-1.532461	1.72793
O	-0.367672	-2.279457	-0.328474
N	-0.424064	1.610494	-1.846335
H	0.437164	2.052028	-1.545897
H	-1.202393	2.09387	-1.411824
Cl	-3.304673	0.0	0.0
