14

C	0.0	0.0	0.0
C	-0.567193	-0.149487	-1.396554
F	1.353971	0.0	0.0
H	-0.31914	0.786676	-1.906594
H	-1.655071	-0.197151	-1.275899
C	-0.440833	1.243039	0.653007
N	-0.622879	2.315246	1.095731
N	-0.371863	-1.172023	0.9115
O	-0.14597	-1.001542	2.104945
O	-0.7612	-2.206227	0.386352
N	0.057773	-1.263271	-2.108458
H	-0.496984	-2.092325	-1.944434
H	0.029877	-1.063071	-3.098796
Cl	-3.616345	0.0	0.0
