16
Coordinates from ORCA-job run
  C   0.45894168671950      0.31046474750389      0.27125916171485
  C   -0.82974276561823     -0.35676936344919     -0.26024005005063
  Cl  0.12604788324375      1.10393759788882      1.83772163976114
  H   -0.57338697187019     -0.91258427884937     -1.16680606305305
  N   0.82060229797411      1.34796286456540     -0.66353589257957
  H   1.04776082982572      0.95131104865899     -1.56954013038454
  H   1.62259710548521      1.86111079793317     -0.31782610131895
  C   1.50846073936618     -0.76959117933574      0.51051042673352
  H   1.17398511605187     -1.50948686705757      1.23994070010994
  H   2.42006574499239     -0.30325669133610      0.88844699318688
  H   1.74033668186851     -1.27299771387851     -0.43324970795182
  N   -1.82057090725126      0.68423420165333     -0.72140251620481
  O   -1.80562781470398      0.92476868067506     -1.92329038403246
  O   -2.52829062824845      1.20348620209761      0.13009748212737
  C   -1.44569386224738     -1.25077804535579      0.70827081016176
  N   -1.91448513558776     -2.01181200171402      1.46964363178037
