16
Coordinates from ORCA-job run
  C   0.47989901916590      0.29653211865850      0.21605023215199
  C   -0.74743121917691     -0.35644106054855     -0.45810745424908
  Cl  -0.16774865907419      1.18245318395200      1.69496073317886
  H   -0.42722926354605     -0.69756516214654     -1.44783293074569
  N   1.14292660026245      1.13671322879453     -0.71053701426371
  H   1.96347775201784      1.55524172929344     -0.29160110582107
  H   0.53926794365060      1.85797925402320     -1.08321558107773
  C   1.43724640153690     -0.76965540494734      0.72057229997398
  H   0.97839465861424     -1.39336348323946      1.48582361690455
  H   2.31153115933376     -0.28130328845665      1.15607012201117
  H   1.76531979860181     -1.38876630980065     -0.11804501518220
  N   -1.84440799893832      0.65795806220182     -0.72182028814502
  O   -1.54390276935253      1.56246681665638     -1.49555350891307
  O   -2.92038759680716      0.50729226404381     -0.16300339070415
  C   -1.28995633989066     -1.46663543293137      0.31133246585995
  N   -1.67699948639767     -2.40290651555311      0.90490681902122
