16
Coordinates from ORCA-job run
  C   0.49646226052096      0.51743938842850      0.07946444307461
  C   -0.95472102385908      0.26942674682623     -0.40084858939751
  Cl  0.45653178023377      1.98432331006755      1.10057283500687
  H   -1.30611939981091      1.18274015418564     -0.88084176342637
  N   1.22132684750841      0.85063506933208     -1.13595081438400
  H   1.51845355635795     -0.00412343545288     -1.59704899160311
  H   2.04887536530755      1.38703920654893     -0.90354741309777
  C   1.08904239255754     -0.62611898511947      0.88515667691050
  H   0.54721340314377     -0.80739694886028      1.81192096217836
  H   2.12437259366435     -0.37711026391361      1.12518924475420
  H   1.07540249191894     -1.54348783399224      0.29014683337901
  N   -1.90297948118519     -0.01233726779922      0.73580906513293
  O   -1.83980562121561     -1.12435101268254      1.25204802001575
  O   -2.64877592377162      0.90586946085208      1.05757394301467
  C   -0.98039730317234     -0.85361496710640     -1.33010310645347
  N   -0.94488193819849     -1.74793262131436     -2.09054134510468
