16

C	-0.398767	0.021778	-1.465164
C	0.0	0.0	0.0
F	-1.815304	-0.007051	-1.51239
H	1.093968	0.0	0.0
H	-0.356394	-0.929701	0.466448
N	0.009858	1.230859	-2.131705
H	1.013053	1.166499	-2.280018
H	-0.129104	1.97541	-1.4521
C	0.113136	-1.194193	-2.201723
H	1.200023	-1.254248	-2.10453
H	-0.166002	-1.12046	-3.254911
H	-0.32748	-2.099078	-1.777171
N	-0.475573	1.213447	0.66765
H	0.154336	1.437378	1.425984
H	-1.399963	1.06501	1.049115
Cl	3.529616	0.0	0.0
