16

C	-0.306646	0.07464	-1.481059
C	0.0	0.0	0.0
F	-1.692528	0.18376	-1.706796
H	1.104113	0.0	0.0
H	-0.374017	-0.946316	0.401952
N	0.281745	1.294978	-1.990394
H	1.255144	1.320604	-1.692971
H	0.263658	1.28341	-3.004091
C	0.148381	-1.183118	-2.198428
H	-0.379331	-2.058701	-1.811376
H	1.222407	-1.314196	-2.049704
H	-0.066312	-1.093924	-3.268142
N	-0.576855	1.133983	0.736839
H	0.1026	1.405323	1.439146
H	-0.626973	1.909131	0.083536
Cl	3.529342	0.0	0.0
