16

C	-0.496005	0.006246	-1.432341
C	0.0	0.0	0.0
F	-0.063031	-1.218068	-2.00846
H	1.094721	0.0	0.0
H	-0.340753	-0.939162	0.468553
N	-1.931859	0.047454	-1.463641
H	-2.244547	0.058718	-2.428352
H	-2.280932	-0.80556	-1.038791
C	0.111418	1.120484	-2.248298
H	-0.231509	1.060346	-3.286469
H	-0.169471	2.078235	-1.815586
H	1.197168	1.017465	-2.218816
N	-0.447597	1.214188	0.680726
H	0.132123	1.361825	1.495697
H	-1.410745	1.118335	0.972712
Cl	3.621877	0.0	0.0
