16

C	-0.377545	0.005737	-1.468979
C	0.0	0.0	0.0
F	-1.780688	0.161909	-1.555077
H	1.094085	0.0	0.0
H	-0.332728	0.961266	0.426184
N	0.202284	1.131944	-2.169152
H	1.20901	0.985632	-2.183264
H	0.05343	1.964577	-1.60572
C	-0.007283	-1.280509	-2.166252
H	-0.286235	-1.207645	-3.219285
H	-0.526153	-2.10939	-1.689024
H	1.068962	-1.446336	-2.07616
N	-0.510291	-1.16525	0.718381
H	-1.431192	-0.967019	1.087037
H	0.107288	-1.36128	1.495366
Cl	3.521941	0.0	0.0
