16

C	-0.394615	0.025718	-1.462143
C	0.0	0.0	0.0
F	-1.803342	0.153127	-1.553182
H	1.098662	0.0	0.0
H	-0.33612	0.949741	0.437308
N	0.177906	1.213933	-2.044949
H	0.22514	1.112239	-3.052319
H	1.130271	1.309619	-1.702583
C	-0.04392	-1.259818	-2.181788
H	-0.368926	-1.192953	-3.225613
H	1.038175	-1.405552	-2.143271
H	-0.534027	-2.104136	-1.699235
N	-0.505201	-1.183066	0.69277
H	0.149774	-1.428315	1.42383
H	-1.395196	-0.973645	1.125363
Cl	3.516354	0.0	0.0
