16

C	-0.32306	0.031462	-1.489365
C	0.0	0.0	0.0
F	-1.721711	0.202564	-1.631171
H	1.094648	0.0	0.0
H	-0.377895	-0.9265	0.445034
N	0.28545	1.145172	-2.185575
H	0.113842	1.981384	-1.635639
H	1.291632	0.995432	-2.153991
C	0.064284	-1.262007	-2.167057
H	-0.511662	-2.089144	-1.744711
H	1.128848	-1.453422	-2.004879
H	-0.13999	-1.185589	-3.237057
N	-0.492383	1.150611	0.753265
H	-1.364136	1.477549	0.355606
H	0.188859	1.897276	0.731159
Cl	3.511947	0.0	0.0
