16

C	-0.373199	0.031577	-1.488013
C	0.0	0.0	0.0
F	-0.181974	1.354409	-1.924862
H	1.09675	0.0	0.0
H	-0.321458	-0.967897	0.406041
N	0.504723	-0.784986	-2.293513
H	1.463167	-0.606959	-1.991995
H	0.315796	-1.759941	-2.092783
C	-1.820333	-0.30709	-1.782848
H	-2.053009	-1.328641	-1.469578
H	-2.483347	0.378312	-1.251265
H	-1.999143	-0.208665	-2.854797
N	-0.50881	1.07715	0.838707
H	-1.493518	1.227397	0.654863
H	-0.022063	1.924525	0.576315
Cl	3.559946	0.0	0.0
