16

C	-0.324087	0.014302	-1.487163
C	0.0	0.0	0.0
F	-1.731433	0.070684	-1.631672
H	1.094667	0.0	0.0
H	-0.356335	0.94476	0.430076
N	0.209594	1.184153	-2.147206
H	1.222992	1.088287	-2.148042
H	0.010136	1.992587	-1.564683
C	0.159833	-1.22853	-2.199954
H	1.236534	-1.340978	-2.04787
H	-0.058515	-1.137082	-3.265392
H	-0.346887	-2.110671	-1.80623
N	-0.523003	-1.120553	0.773007
H	-1.430507	-1.385198	0.409363
H	0.102032	-1.91023	0.681194
Cl	3.520117	0.0	0.0
