16

C	-0.345781	-0.036839	-1.491782
C	0.0	0.0	0.0
F	-0.114059	1.290525	-1.972141
H	1.096267	0.0	0.0
H	-0.376461	0.932751	0.426304
N	0.518481	-0.967262	-2.128655
H	0.440541	-0.899292	-3.136256
H	1.482612	-0.786192	-1.851869
C	-1.79709	-0.317892	-1.828757
H	-2.44614	0.399955	-1.321245
H	-2.07206	-1.331981	-1.539125
H	-1.950499	-0.211848	-2.906504
N	-0.455396	-1.139564	0.789267
H	0.051749	-1.959468	0.479976
H	-1.441348	-1.310362	0.633102
Cl	3.577396	0.0	0.0
