16

C	-0.45152	0.021444	-1.461792
C	0.0	0.0	0.0
F	-0.162771	-1.255916	-1.959695
H	1.093107	0.0	0.0
H	-0.371958	-0.928919	0.447721
N	-1.875223	0.206614	-1.664219
H	-2.112144	1.18852	-1.67237
H	-2.398072	-0.252397	-0.926407
C	0.331236	1.018281	-2.286803
H	0.018254	0.955939	-3.3313
H	0.169317	2.036298	-1.921457
H	1.394212	0.788658	-2.194797
N	-0.428892	1.153871	0.792896
H	0.257696	1.890682	0.703664
H	-1.324026	1.504529	0.476042
Cl	3.586876	0.0	0.0
