12

C	-0.586963	-0.088662	-1.403863
C	0.0	0.0	0.0
Cl	-0.223462	1.386532	-2.366831
H	1.093236	0.0	0.0
H	-1.675631	-0.147593	-1.338297
H	-0.358821	0.932205	0.44866
C	-0.137553	-1.270602	-2.139395
N	0.182357	-2.205878	-2.773254
N	-0.482404	-1.184083	0.731159
H	-0.893474	-0.904231	1.612322
H	0.341131	-1.734641	0.954281
H	2.930585	0.0	0.0
