12

C	-0.571745	0.008427	-1.408649
C	0.0	0.0	0.0
Cl	0.016508	1.423622	-2.357414
H	1.098612	0.0	0.0
H	-1.654682	0.138774	-1.352151
H	-0.352257	-0.923688	0.474587
C	-0.286909	-1.215942	-2.151503
N	-0.096014	-2.209508	-2.745304
N	-0.552306	1.157608	0.723725
H	-0.466522	0.954458	1.715359
H	0.101102	1.919624	0.567522
H	2.952416	0.0	0.0
