12

C	-0.479753	0.098482	-1.444717
C	0.0	0.0	0.0
Cl	-0.182234	-1.428637	-2.340183
H	1.092184	0.0	0.0
H	0.100959	0.877198	-1.942109
H	-0.384459	-0.920597	0.454966
C	-1.90368	0.4153	-1.53362
N	-3.048892	0.670735	-1.580395
N	-0.406707	1.231374	0.674227
H	-1.196005	1.0838	1.286066
H	0.381601	1.557742	1.219333
H	2.89816	0.0	0.0
