12

C	-0.58805	0.020088	-1.406369
C	0.0	0.0	0.0
Cl	-0.23668	1.568328	-2.249363
H	1.097734	0.0	0.0
H	-1.67636	-0.051183	-1.344674
H	-0.360102	0.89367	0.520212
C	-0.133244	-1.098801	-2.231779
N	0.170173	-2.00014	-2.920459
N	-0.479803	-1.237942	0.635852
H	0.343958	-1.803088	0.817717
H	-0.896769	-1.03008	1.532643
H	2.928497	0.0	0.0
