12

C	-0.327728	-0.060557	-1.48725
C	0.0	0.0	0.0
Cl	-2.07279	-0.459775	-1.837378
H	1.094357	0.0	0.0
H	0.252666	-0.865147	-1.945291
H	-0.406778	0.914974	0.438566
C	-0.032809	1.193086	-2.174809
N	0.172274	2.202715	-2.738463
N	-0.393802	-1.175919	0.755858
H	0.347128	-1.863086	0.679371
H	-1.261363	-1.575495	0.422301
H	2.858957	0.0	0.0
