15

C	0.0	0.0	0.0
C	-0.441508	0.01375	-1.463591
Cl	1.853737	0.0	0.0
H	-1.533546	-0.118152	-1.449353
H	-0.156956	0.950197	-1.937594
N	-0.446472	1.161605	0.705437
H	-0.161997	2.008306	0.229033
H	-1.469511	1.095329	0.723713
N	-0.495642	-1.115656	0.677412
H	-0.300757	-1.992992	0.223348
H	-0.253086	-1.0943	1.655618
N	0.150198	-1.056512	-2.308225
O	0.097764	-2.216615	-1.899928
O	0.643169	-0.720071	-3.385199
Br	-3.821787	0.0	0.0
