15

C	0.0	0.0	0.0
C	-0.470941	0.014225	-1.456959
Cl	1.796862	0.0	0.0
H	-1.565497	0.039262	-1.454333
H	-0.035517	0.871528	-1.962745
N	-0.437124	1.269138	0.545502
H	-0.12468	1.33314	1.509691
H	-1.461435	1.227998	0.554052
N	-0.440932	-1.213044	0.629998
H	-1.459436	-1.227645	0.539109
H	-0.215423	-1.171385	1.617337
N	-0.055198	-1.193561	-2.2148
O	0.966703	-1.107963	-2.90299
O	-0.761424	-2.195896	-2.126722
Br	-3.719901	0.0	0.0
