15

C	0.0	0.0	0.0
C	-0.444413	-0.005844	-1.452766
Cl	1.911493	0.0	0.0
H	-0.14636	-0.93942	-1.918826
H	-1.539678	0.111427	-1.438869
N	-0.448872	1.128233	0.695827
H	-0.192483	1.114558	1.671692
H	-0.211219	1.998123	0.243487
N	-0.419331	-1.250472	0.556785
H	-1.445298	-1.19524	0.57275
H	-0.090884	-1.318085	1.514315
N	0.120508	1.0808	-2.291325
O	0.490808	0.774607	-3.423343
O	0.152911	2.225458	-1.838737
Br	-3.768973	0.0	0.0
