15

C	0.0	0.0	0.0
C	-0.447367	-0.016624	-1.451558
Cl	1.911515	0.0	0.0
H	-0.154818	0.912	-1.930562
H	-1.54165	-0.139135	-1.432361
N	-0.422776	1.256456	0.539481
H	-1.448883	1.194864	0.557496
H	-0.096374	1.334904	1.496935
N	-0.442812	-1.120608	0.713598
H	-0.169226	-1.096052	1.684709
H	-0.207025	-1.994676	0.268128
N	0.123856	-1.111799	-2.275133
O	0.148108	-2.252118	-1.811173
O	0.506373	-0.816627	-3.405975
Br	-3.769345	0.0	0.0
