16
Coordinates from ORCA-job run
  C   0.90043513784725     -0.46962198260317      0.35230816569839
  C   -0.51951550473840      0.11965065510105      0.51554301985656
  Cl  1.45696858040913     -1.21925460950467      1.84576779016050
  H   -0.46579653445456      0.73397056360864      1.41892384186121
  C   0.93330549498323     -1.43699085793542     -0.73590729653563
  N   0.86456799061636     -2.22306825010008     -1.60700799932624
  N   1.83894123071558      0.69545432113504      0.02166369699934
  O   2.33824050551202      0.71620826827842     -1.09654342195943
  O   1.94315995734419      1.54608379094307      0.89324316453892
  N   -1.41312620528461     -0.99588473346063      0.75431860724554
  H   -2.15477131275298     -0.74126292470434      1.39069397799078
  H   -1.82368093359367     -1.32538597495806     -0.11071397966705
  C   -0.89041116902374      0.98737115589682     -0.68514838607096
  H   -1.91136608994817      1.34947398749141     -0.54864761450100
  H   -0.85611086623457      0.40682845191420     -1.61168344409100
  H   -0.24084028139705      1.85742813889773     -0.79681012219995
