16
Coordinates from ORCA-job run
  C   0.87214360364738     -0.46075114200730      0.32272148001996
  C   -0.54491267054967      0.13113808350817      0.45627274699148
  Cl  1.34650238869134     -1.27459305895191      1.82307505982627
  H   -0.49529055141477      0.79857757541143      1.32758384769092
  C   0.97381969310427     -1.38904380608604     -0.79263781794064
  N   1.03440104054767     -2.14141259543224     -1.69316972580440
  N   1.83149502861767      0.71465193566703      0.09770517071104
  O   1.91325073425912      1.51175731158260      1.02092425605563
  O   2.36217609505751      0.79887796746400     -1.00264317492717
  N   -1.45651020691512     -0.98553051620270      0.61227860832642
  H   -1.48764864934684     -1.30767356944122      1.57038535732543
  H   -2.39102983685851     -0.72430153295062      0.32916469809198
  C   -0.90870997081436      0.93001434249327     -0.78676848247432
  H   -1.90292179030650      1.36322300610274     -0.65122002612221
  H   -0.21745687581124      1.75398023220428     -0.96690102317181
  H   -0.93030803190796      0.28308576663853     -1.66677097459858
