16
Coordinates from ORCA-job run
  C   0.85156147519425     -0.24302391578529     -0.39594555101094
  C   -0.44421772546307      0.22902121027992      0.29437684748758
  Cl  0.67145951212988     -1.84185505161229     -1.11021561133737
  H   -0.19116262873602      1.21731822152897      0.68985526552660
  C   1.30112815604073      0.70544565011011     -1.40668641603206
  N   1.61860788153200      1.48573735761118     -2.22651489494237
  N   1.93428448421742     -0.27706197808296      0.71167712370336
  O   2.16762891556090      0.82857283624219      1.18151764047748
  O   2.42463528973408     -1.34111657228828      1.02972118167699
  N   -0.66691452280419     -0.64914205047409      1.42720518476023
  H   -1.19725999583482     -0.17302588527846      2.14429573429002
  H   -1.17695869142658     -1.47888211226660      1.14969891622585
  C   -1.59754743136021      0.35887715784815     -0.69357797076856
  H   -2.46224078049717      0.77581440229104     -0.17261552142244
  H   -1.35263181794777      1.02012676141847     -1.52836970836941
  H   -1.87937212033945     -0.61680603154206     -1.09442222026495
