16
Coordinates from ORCA-job run
  C   0.85514040375184     -0.37495636715865     -0.26366989870783
  C   -0.44434578548700      0.31482265313331      0.19881927836303
  Cl  0.60603868368881     -2.08237952034310     -0.61097091531370
  H   -0.14665661773690      1.35241936598893      0.37800396078220
  C   1.43507648899545      0.28996206338096     -1.42330871847864
  N   1.85888082157475      0.84466688294749     -2.36914848598768
  N   1.86039230749487     -0.21322350198523      0.90444701665418
  O   2.14131878083431      0.95611201766731      1.13040109343820
  O   2.25210062055445     -1.20129094327996      1.49118671118643
  N   -0.80050492954559     -0.26330629571600      1.48052228134907
  H   -1.33848325802149      0.39474740419070      2.02809299122740
  H   -1.35086791919410     -1.10496543773081      1.36008535113622
  C   -1.52095897144258      0.27564788233795     -0.87930275202469
  H   -2.38340417360888      0.85185608752256     -0.53698554601496
  H   -1.17635520597339      0.70786560114086     -1.82197456802753
  H   -1.84837124588456     -0.74897789209632     -1.06619779958169
