16
Coordinates from ORCA-job run
  C   0.80035539562179     -0.46973591982820     -0.28129385170439
  C   -0.40251746383133      0.36678697123306      0.19929860093306
  Cl  0.37974594057566     -2.16614847902033     -0.49142279905534
  H   -0.00293468320280      1.38133672772406      0.29003312472075
  C   1.36712630122151      0.05901247589554     -1.51516863810232
  N   1.79104123732036      0.51512853531076     -2.51219446042933
  N   1.88422721170497     -0.32519330204871      0.81676694910441
  O   2.22194328922776     -1.30482149237634      1.44936064847995
  O   2.28082664843792      0.82543537520868      0.94405467431837
  N   -0.73309143400190     -0.09190003035629      1.53514251355166
  H   -1.36130315303051     -0.88554246402184      1.50256003933090
  H   -1.17841062910375      0.64691618385626      2.06235140012341
  C   -1.53974542397443      0.35932401857885     -0.81547158388083
  H   -2.32626138506178      1.03272978690982     -0.46781327704555
  H   -1.21407314081108      0.69817539738018     -1.80204631095021
  H   -1.96692871109239     -0.64050378444550     -0.91515702939454
