16
Coordinates from ORCA-job run
  C   0.80248335913560     -0.34371068005644     -0.29102697764338
  C   -0.50958621407362      0.34818007177581      0.20736945157476
  Cl  0.53204095229149     -2.02379842209474     -0.73497011110786
  H   -0.19791165777797      1.37405048908147      0.43217844374558
  C   1.40378346266925      0.37748947854866     -1.40249282706936
  N   1.83258766815321      0.97744630704003     -2.31820076411554
  N   1.78001869797558     -0.26321863169964      0.89554776473016
  O   1.97387009573289     -1.26238373913301      1.56718727510294
  O   2.20584961813508      0.86690880322602      1.10387863837674
  N   -1.05317648589958     -0.22507487922182      1.40912122002317
  H   -1.27936200862010     -1.20456329004722      1.29154485250296
  H   -0.44744481122831     -0.11550892093770      2.21162224035208
  C   -1.55635039630589      0.36770637134874     -0.89504228374317
  H   -2.40142578032079      0.96278821982231     -0.54844932010241
  H   -1.17007434711217      0.80424978825556     -1.81786700982933
  H   -1.91530215275468     -0.64056096590801     -1.11040059279735
