16
Coordinates from ORCA-job run
  C   0.76336687541200     -0.41262780720247     -0.30635704715257
  C   -0.47208881950261      0.39097718832175      0.21960298973073
  Cl  0.32643097105474     -2.04447920087939     -0.79522602256296
  H   -0.06013997388293      1.37484386335386      0.46930134721980
  C   1.42905372194150      0.27675077984080     -1.40116435055766
  N   1.91255310171211      0.85720664827535     -2.30208442613067
  N   1.74833771983014     -0.46273657255445      0.87587950885764
  O   1.84568062972637     -1.49521703735334      1.51728393576405
  O   2.28335523434998      0.61375107362411      1.11394456190608
  N   -1.06373899878617     -0.15856034230846      1.40969576849748
  H   -0.44730099983449     -0.12795222414864      2.21092557737135
  H   -1.38348721730959     -1.10858661716405      1.26890625119590
  C   -1.51679495789157      0.54305831813254     -0.87441601933424
  H   -1.97559215261393     -0.41847313455789     -1.11268358753059
  H   -1.09297300717072      0.96271901606558     -1.78861652775081
  H   -2.29666212703483      1.21032604855470     -0.50699195952354
