16
Coordinates from ORCA-job run
  C   0.91891569225063     -0.17159252929703      0.46344520178440
  C   -0.60717950195204      0.03460457634135      0.33589106842718
  Cl  1.73093069308598      1.11401136463201      1.38138963928774
  H   -0.98797076417653     -0.23175697128765      1.32821188519792
  C   1.17788891894885     -1.45502524666006      1.10856881159959
  N   1.33084020258767     -2.45966021866586      1.69815747860802
  N   1.58884017977349     -0.20890076378535     -0.91696956951520
  O   1.10891732774630      0.51753291323862     -1.77685235401474
  O   2.57237193439203     -0.92506579851130     -1.02880720309562
  N   -1.03249490699388     -0.99485360008059     -0.60125980224722
  H   -1.88976151912674     -1.43780862176062     -0.30365337818055
  H   -1.16094432393317     -0.61039118186699     -1.52843946293316
  C   -1.08289119464335      1.44821308556143      0.01771299811268
  H   -2.17548340687467      1.43510466926175      0.00901183910771
  H   -0.72924219090410      1.77593157003673     -0.95785694157714
  H   -0.76173714018050      2.16965675284356      0.76944978943841
