16
Coordinates from ORCA-job run
  C   0.83706287820014     -0.41053054865771     -0.27001567067685
  C   -0.43040411564433      0.33911374242048      0.18894400991828
  Cl  0.56330579020730     -2.14386360955049     -0.40597774624097
  H   -0.11905693219330      1.38714434358859      0.23364291052413
  C   1.34663089769412      0.11326384437156     -1.53062892318800
  N   1.71316319962566      0.54979967075696     -2.55867648576030
  N   1.91116697613774     -0.12730947281663      0.80970286482165
  O   2.33277844362720     -1.04537678098882      1.48301280487153
  O   2.21032558442670      1.05714726225419      0.88244590456020
  N   -0.71113103008270     -0.09057252185910      1.54547111804871
  H   -1.21109489128960      0.62951281109556      2.04885900082805
  H   -1.27092709265650     -0.93441536494498      1.55208021272155
  C   -1.56976814216302      0.19220590535390     -0.81277939952368
  H   -1.90687408242705     -0.84454230776616     -0.87120067603216
  H   -2.41052842788453      0.80566937125552     -0.48155872420212
  H   -1.28264905557782      0.52175365548710     -1.81432120067006
