16
Coordinates from ORCA-job run
  C   0.92045971133955     -0.49940873436302      0.24271344988577
  C   -0.47614321939095      0.08073110223393      0.56248783243043
  Cl  1.58367343998006     -1.36805366989612      1.62399054444845
  H   -0.34620392965790      0.62168135248217      1.50421877484293
  C   0.85876360874398     -1.37751256738896     -0.91764107901601
  N   0.70993066178654     -2.09244299412567     -1.83847657803613
  N   1.84273513745738      0.68404625349197     -0.06711549898171
  O   2.25459961661654      0.79101164251333     -1.21555873720698
  O   2.02421890810907      1.46162911665515      0.85836638547896
  N   -1.35980675333833     -1.04646571569214      0.78360291201291
  H   -2.05279733446361     -0.83487301997353      1.48711647165220
  H   -1.83368139929033     -1.31012604974811     -0.07158624190645
  C   -0.93126061982361      1.04183192933238     -0.53362170283857
  H   -1.93334699915944      1.39849977499045     -0.28695470095840
  H   -0.28191694105898      1.91389948804636     -0.63079624019374
  H   -0.97922388784995      0.53455209144183     -1.50174559161366
