16
Coordinates from ORCA-job run
  C   0.85665145838917     -0.36058185914372     -0.27845857167689
  C   -0.44634681968731      0.30917259182953      0.20386861204819
  Cl  0.64385562781362     -2.08484090828490     -0.56061313443377
  H   -0.17150162074998      1.35918071644596      0.34220485649364
  C   1.37965836680547      0.27880144407509     -1.47884607647889
  N   1.75498134446760      0.80777527525620     -2.45928416697234
  N   1.89391929362528     -0.13252572049424      0.84943596094444
  O   2.14940427849302      1.05104471257213      1.02688735917730
  O   2.33089079989732     -1.08904564332938      1.45603139705908
  N   -0.74669153144645     -0.23858091322270      1.51300042308457
  H   -1.27891447912230      0.42409904633219      2.06017468447831
  H   -1.28265634556194     -1.09427015123570      1.43606545090100
  C   -1.55421968221274      0.20799537090616     -0.83779822292985
  H   -1.25086078840273      0.61966798515365     -1.80349642995197
  H   -2.42121133437207      0.77136845185038     -0.48588516460386
  H   -1.85895856793595     -0.83026039871066     -0.98328697713897
