16
Coordinates from ORCA-job run
  C   0.92720893615904     -0.21624055614389      0.42804168107721
  C   -0.60090350268981     -0.00035965327040      0.34823600257150
  Cl  1.75552145899594      0.97177074122177      1.45636569380086
  H   -0.96452298745798     -0.36640522335534      1.31490432776118
  C   1.19677759000699     -1.55775050529444      0.93606062432876
  N   1.35162270503381     -2.61943696774309      1.41487558893652
  N   1.57278115628312     -0.11351105794954     -0.96048274400836
  O   1.07846685445015      0.69559345692613     -1.73415154570676
  O   2.55279492127252     -0.81474925895721     -1.16206187628842
  N   -1.04295026335167     -0.92965567532237     -0.68112880024430
  H   -1.18761795868479     -0.45281987019116     -1.56187095658405
  H   -1.89494849460811     -1.40198120809406     -0.41522592441462
  C   -1.08118746326434      1.43777006240339      0.18360837573451
  H   -0.74762735411568      2.07941955349376      0.99952205792784
  H   -0.74363392585557      1.86355675581300     -0.75926476124092
  H   -2.17378167217362      1.42379940646344      0.19157225634906
