16
Coordinates from ORCA-job run
  C   0.91913884732398     -0.50651850736391      0.23521553103507
  C   -0.47081377023588      0.08325221261523      0.56689278753112
  Cl  1.58722046076538     -1.38008852389263      1.61097492555996
  H   -0.32988308499247      0.62020807716734      1.50933291935372
  C   0.84209799562590     -1.38427008007595     -0.92447000894550
  N   0.68476109735985     -2.09958199743630     -1.84369151441223
  N   1.84552870254941      0.67104098737405     -0.08233569186470
  O   2.04344372726788      1.44534568285868      0.84251520822137
  O   2.24271156450803      0.77880222967636     -1.23604167268579
  N   -1.36097114880488     -1.03819730880413      0.79209622515613
  H   -1.84008339916931     -1.29848105462743     -0.06134148379651
  H   -2.05057264007210     -0.82033741406055      1.49723301189059
  C   -0.92705908947480      1.05077159320506     -0.52305739512611
  H   -1.92502944913606      1.41356993441862     -0.26874741522083
  H   -0.27252166058236      1.91875956823132     -0.62219470589277
  H   -0.98496815293258      0.54672460071425     -1.49238072080351
