16
Coordinates from ORCA-job run
  C   0.81667204194062     -0.44874168185129      0.36732434156266
  C   -0.58503586937667      0.22180876791482      0.48002378184303
  Cl  1.26209948870701     -1.22029422348699      1.89637003674176
  H   -0.50526971748805      0.88345738803817      1.34858174322387
  C   0.84055401814420     -1.43178913177202     -0.70502301137690
  N   0.74770300284743     -2.24013661919392     -1.55351882633354
  N   1.83340318127245      0.65391595763006      0.07353688682478
  O   2.34443785680163      0.65691753364752     -1.03994366112270
  O   1.97783430731930      1.48535762844581      0.95772837975663
  N   -1.64980140855725     -0.71923388946669      0.71403484214732
  H   -1.77984903377516     -1.33801360789010     -0.07780321730551
  H   -1.49859789910083     -1.27122607485073      1.54797699599168
  C   -0.88166462933188      1.03824588909322     -0.76988159007792
  H   -0.87757398597403      0.40923179888046     -1.66471828121500
  H   -0.16951938254320      1.85120835767291     -0.91563484723628
  H   -1.87739197088556      1.46829190718876     -0.65905357342388
