16
Coordinates from ORCA-job run
  C   0.83155188850714     -0.10499472364199      0.60803410448102
  C   -0.71334701740724      0.07978038608606      0.36840631755075
  Cl  1.42966666069229      1.04478593519932      1.79814744098869
  H   -1.12004551045427      0.15665835103034      1.38224081009989
  C   1.12548952237775     -1.46232379184155      1.04375365758671
  N   1.30639031494094     -2.55211217923820      1.44560547272422
  N   1.52520681368984      0.11738533659968     -0.74063157556934
  O   2.06488052584551      1.18846267374583     -0.95694887808727
  O   1.37410869692588     -0.80979609544066     -1.53166505896784
  N   -1.36124037197720     -1.02347079752812     -0.28778125330557
  H   -1.28654195065471     -1.88345049319316      0.24095376271241
  H   -0.98767206348148     -1.17821336170681     -1.21582446228141
  C   -0.98419159941462      1.37078157139508     -0.39018303229145
  H   -0.67520025394178      1.27647122019812     -1.43500075081615
  H   -2.05825111506879      1.55471315061541     -0.37614925912394
  H   -0.46780454057926      2.22532281772065      0.04704270429925
