16
Coordinates from ORCA-job run
  C   0.88689140937366     -0.49252381275136      0.21670500987828
  C   -0.50640769126623      0.10012670548584      0.50577862260410
  Cl  1.46239904303498     -1.42875834597126      1.60635874946760
  H   -0.38026287855417      0.69710754942078      1.41936091703102
  C   0.88606252240548     -1.32927637137169     -0.97337096907846
  N   0.85896464925283     -2.00566804739741     -1.93375305916603
  N   1.84510557501641      0.68682698723795      0.01213383969545
  O   2.00575602352333      1.40901779859225      0.98538441581363
  O   2.30085370203539      0.84837278063925     -1.11284069144466
  N   -1.42089876081335     -1.01681577381128      0.64365492171987
  H   -1.37629924280405     -1.41904922411187      1.57056609982126
  H   -2.37137206675325     -0.72070355414992      0.46719586099549
  C   -0.95117088498041      0.99693656305655     -0.64027877891918
  H   -1.04649097783266      0.42134920223431     -1.56365383994720
  H   -0.26442931084127      1.82755546456238     -0.80692936363656
  H   -1.92670111079669      1.42550207833547     -0.39731173483462
