16
Coordinates from ORCA-job run
  C   0.73271742886214     -0.47231071312092     -0.29370587477188
  C   -0.44628165828720      0.42936038862426      0.20143994799937
  Cl  0.20874529712160     -2.11879210619194     -0.62120882786479
  H   0.01685495648110      1.41071885807616      0.35158582241478
  C   1.38495441097291      0.08845650479286     -1.46732292156909
  N   1.85775265306978      0.56565342625601     -2.43224922515956
  N   1.75960871557897     -0.46461653285765      0.85352802011371
  O   2.35085706708081      0.60191313598042      0.97519238241319
  O   1.83606353529358     -1.44017799069707      1.58121482684917
  N   -1.01751468103713      0.01059890213290      1.45313104625455
  H   -1.38641208796441     -0.93061097098154      1.40347319043859
  H   -0.37010986988902      0.07551103202771      2.22748371669756
  C   -1.52287163134894      0.53677522382098     -0.86670124465155
  H   -2.26046811086761      1.26611614276405     -0.53138949688516
  H   -1.11539343828003      0.86024861619540     -1.82625227742435
  H   -2.02950258678656     -0.41984391682164     -1.00821908485454
