16
Coordinates from ORCA-job run
  C   0.82850804981387     -0.30994369922312     -0.39800241266457
  C   -0.42435986397091      0.26577809259380      0.29272684252461
  Cl  0.53206454637287     -1.90895534851327     -1.07146229058170
  H   -0.10031599885901      1.24352184317296      0.66178763045082
  C   1.33033167603556      0.58159068205738     -1.43569712017968
  N   1.69135810874014      1.31865315358670     -2.27723629471976
  N   1.91876672074119     -0.39144590854417      0.69970584319694
  O   2.23205708615584      0.70654731589170      1.14000144727651
  O   2.33908655677229     -1.47866529112899      1.03904890643535
  N   -0.69395550243001     -0.56827636480640      1.44855875110888
  H   -1.26241365232258     -1.36745516371731      1.19605698635027
  H   -1.18232733951351     -0.04037335305267      2.15914161828776
  C   -1.57707652931754      0.45075486697005     -0.68708508023566
  H   -2.40477099917592      0.93968274289516     -0.16860562474749
  H   -1.93037182621208     -0.51269887568937     -1.05992435765226
  H   -1.29658103283019      1.07228530750754     -1.54101484485002
