16
Coordinates from ORCA-job run
  C   0.97620007198835     -0.14313828720734      0.33083318831105
  C   -0.55660707331068      0.02130275282152      0.41880699187168
  Cl  1.86905904352909      1.17128136758067      1.12507420508004
  H   -0.78314837773539     -0.23589734414966      1.45970049146956
  C   1.36195290368100     -1.41469812563654      0.93486060264182
  N   1.62632358779772     -2.41438084409307      1.49265132894926
  N   1.45484855689320     -0.17025984252737     -1.12831182922984
  O   2.47685188935722     -0.80100767098218     -1.35312223906219
  O   0.80157398298557      0.47828711453254     -1.93468063893401
  N   -1.08619393585045     -1.03581761431232     -0.42983062198052
  H   -1.89313421737577     -1.47670840731075     -0.01205502857470
  H   -1.33803787958733     -0.67539292875537     -1.34126687686978
  C   -1.10880536439632      1.41867366759853      0.15473921045875
  H   -0.71424614794123      2.15556629049673      0.85457933411229
  H   -2.19245839436431      1.37583908310214      0.28741226288363
  H   -0.89417864567068      1.74635078884248     -0.86039038112703
