16
Coordinates from ORCA-job run
  C   0.84452887449191     -0.48304341136087      0.23774408239997
  C   -0.53322434807117      0.17071905898819      0.55533401275081
  Cl  1.43059670808565     -1.40697073785930      1.62884918058887
  H   -0.36321406057549      0.73998247103018      1.47488626227568
  C   0.75408558735093     -1.35133541109894     -0.92626250783882
  N   0.56805784567012     -2.06875452668091     -1.83877611868333
  N   1.83794840247568      0.64431628378954     -0.04058459804585
  O   2.24091188288896      0.75953718004714     -1.19185552163044
  O   2.07397227076342      1.38239148675966      0.90474609897745
  N   -1.57862303234305     -0.79036061980298      0.79470285663603
  H   -1.79121480277898     -1.32405944984466     -0.04000777564749
  H   -1.35152427349906     -1.42552431797126      1.54837715914421
  C   -0.94248301057219      1.11142707533062     -0.56933959835585
  H   -0.24178588333564      1.93732089809876     -0.69725053667041
  H   -1.02797359559484      0.57890203747323     -1.52095748671767
  H   -1.92005856495627      1.52445198310160     -0.31960550918316
