16
Coordinates from ORCA-job run
  C   0.87365040842672     -0.52461463883700      0.19917577143909
  C   -0.49763686711783      0.10676095362341      0.51295427454219
  Cl  1.43128793619022     -1.50366562726543      1.56615584194176
  H   -0.34308247853961      0.68282314220411      1.43565948001759
  C   0.83474015689016     -1.33939536562227     -1.00534054318499
  N   0.77494238313049     -1.99765225202435     -1.97678631954790
  N   1.86617905909660      0.62784391007259      0.00576167745060
  O   2.30557750224547      0.80297971296575     -1.12385746203237
  O   2.06652694875347      1.32153529414867      0.99230616374250
  N   -1.44546359185435     -0.98286502615061      0.64167064473747
  H   -2.38699001485406     -0.65672144846037      0.47049062116586
  H   -1.41056713142001     -1.39676416709780      1.56383736597803
  C   -0.92513589456548      1.03762363013212     -0.61246299144570
  H   -0.21396762237855      1.84873934395393     -0.77242816613435
  H   -1.04819801951432      0.48169383774214     -1.54463090998517
  H   -1.88386277448891      1.49267870061511     -0.35150544868462
