16
Coordinates from ORCA-job run
  C   0.90976255876944     -0.51890769324097      0.24225306145102
  C   -0.47423733532736      0.09072003847111      0.56243670979666
  Cl  1.55404357163502     -1.40127422732389      1.62385930646066
  H   -0.33279832852672      0.62847212557640      1.50434693773270
  C   0.82952086397684     -1.39577598774202     -0.91791816991376
  N   0.66945538199688     -2.10838666794787     -1.83872078057204
  N   1.85665266172778      0.64469680533929     -0.06775263547876
  O   2.05596540802130      1.41769810878905      0.85797638653191
  O   2.26896400612274      0.74395537136546     -1.21681649646280
  N   -1.38166804286412     -1.01777602024967      0.78258613364383
  H   -2.06598750363857     -0.79475162678315      1.49103217708980
  H   -1.86578930873279     -1.26636085272961     -0.07134796845874
  C   -0.90952490618591      1.06144145931462     -0.53313176500061
  H   -0.97030696128800      0.55502079521407     -1.50101029988676
  H   -1.90296660495854      1.44046811416094     -0.28484261552216
  H   -0.24108546072799      1.91876025778624     -0.63194998141094
