16
Coordinates from ORCA-job run
  C   0.88480009654636     -0.36138965371750      0.50372984728276
  C   -0.62599268979847     -0.02528587282926      0.42733747725484
  Cl  1.63316224380912      0.42215037297829      1.89349376475803
  H   -0.98545943227558     -0.19623902866743      1.44697943599695
  C   1.12618575497010     -1.79714140141807      0.56434788011948
  N   1.36341391413853     -2.94224236911998      0.67690754353260
  N   1.52749664937338      0.16595590620415     -0.79639078269408
  O   2.16167593090041      1.20574381103796     -0.76042045365119
  O   1.24886341762569     -0.49799815888598     -1.78911977773827
  N   -1.27894596194806     -1.00147970599693     -0.42292605552348
  H   -1.15516437289793     -0.78127153230492     -1.40321587577966
  H   -2.26885835457938     -1.03501029303582     -0.21830071384989
  C   -0.85202777287088      1.43720544514977      0.04743682134378
  H   -0.58391172147582      1.60819145935660     -0.99877232283345
  H   -1.91316436312486      1.66875055674055      0.15991361664057
  H   -0.28107333839262      2.12906046450857      0.66899959514101
