16
Coordinates from ORCA-job run
  C   0.91172637428604     -0.51500133306686      0.24340618807130
  C   -0.47694372988670      0.08587545946519      0.56075689269223
  Cl  1.55525642301386     -1.39947944103190      1.62407548133002
  H   -0.34166872218423      0.62046542947589      1.50537282367372
  C   0.84091842678704     -1.38813931819352     -0.92018627473316
  N   0.68907532783193     -2.09922466567968     -1.84353521514039
  N   1.85305975922732      0.65517152039714     -0.05841606969444
  O   2.26354761130880      0.76494492985275     -1.20721950297139
  O   2.04830281546591      1.42312396207595      0.87236038939392
  N   -1.37924743789462     -1.02810335928696      0.77241587229065
  H   -2.06490968992629     -0.81429488532624      1.48229652323798
  H   -1.86095020721403     -1.27429292702403     -0.08344202854205
  C   -0.91261921585039      1.05911280832770     -0.53251000208474
  H   -0.96358371500733      0.55747338651160     -1.50340467372727
  H   -1.91030459551362      1.42973562188866     -0.28866641955183
  H   -0.24965942444368      1.92163281161432     -0.62230398424457
