16
Coordinates from ORCA-job run
  C   0.91066037738981     -0.38193110247679      0.43885418480800
  C   -0.60471922616779     -0.05816961580483      0.45227469826874
  Cl  1.71646832338572      0.32357287620670      1.83821805743351
  H   -0.91554912141378     -0.29676292823661      1.47430842435507
  C   1.16573065671009     -1.81595576219586      0.40014311877584
  N   1.40636664333100     -2.96513938725091      0.44011014610926
  N   1.48812878574835      0.23101480837373     -0.85460115774423
  O   2.11418525788998      1.27386217917890     -0.78409071101089
  O   1.17021812884223     -0.37507396167025     -1.87217576163580
  N   -1.28827314728037     -0.98579463292307     -0.42767173671077
  H   -2.26672093120479     -1.04562675850124     -0.17892075624880
  H   -1.21395444972863     -0.70179833125773     -1.39643786060264
  C   -0.85959859696352      1.42265057917129      0.17589565533685
  H   -0.26699467814387      2.08068776143298      0.81367806240228
  H   -0.64044616984604      1.66173201472133     -0.86836214395502
  H   -1.91650185254835      1.63473226123235      0.34977778041860
