16
Coordinates from ORCA-job run
  C   0.83389760579593     -0.48925131517863      0.26145234615881
  C   -0.53951020503258      0.19043892188745      0.54254991128534
  Cl  1.38475665131131     -1.39061766856556      1.68140120180308
  H   -0.37565856026195      0.77747370287573      1.45196311495004
  C   0.74950080632291     -1.38155952403269     -0.88467361062004
  N   0.56905764589253     -2.11708150616954     -1.78380850847876
  N   1.84721384535094      0.61813564470827     -0.02500576768043
  O   2.26886619386264      0.70349209639693     -1.17209304690794
  O   2.07822219966931      1.37312408487449      0.90807726071582
  N   -1.60194196363540     -0.75056931418440      0.78654785285561
  H   -1.39608552102702     -1.37089772640133      1.55844819592217
  H   -1.80838382736492     -1.30069233853112     -0.03900728018422
  C   -0.91763569098304      1.11107975739278     -0.60917013432434
  H   -0.99752091718114      0.55806816668375     -1.54947488484944
  H   -0.20251955222364      1.92312510512478     -0.74527940203258
  H   -1.89225871049588      1.54473191311910     -0.38392724861312
