15
Coordinates from ORCA-job run
  C   -0.62685085509874     -0.07118943327877     -0.07618992838291
  C   0.65450667283019     -0.93263789364402      0.01230976856677
  Br  -2.13542409405874     -1.16157887800040      0.46998753715306
  H   0.51168084727722     -1.82628399554214     -0.60262589842413
  C   -0.55933561361542      1.20509643063240      0.72521229909259
  H   0.26141795898878      1.82793449206480      0.35969034284298
  H   -1.48986661363698      1.75985432626920      0.62632094590331
  H   -0.39397365347810      0.96591132591922      1.77704552630543
  N   -0.84997988655480      0.23946016914781     -1.56003607298031
  O   -1.43921075935280      1.27901720117441     -1.82137278934376
  O   -0.45114121982082     -0.59664720690175     -2.36358350915841
  C   0.91062086810689     -1.32855931074024      1.39873816829365
  N   1.12187801307947     -1.64107925877273      2.51081646964485
  C   1.79506573590933     -0.17600490063087     -0.51750103666046
  N   2.68961259942453      0.45770693230310     -0.93881182285266
