15
Coordinates from ORCA-job run
  C   -0.50699277862398     -0.03912647186601     -0.12382836007131
  C   0.98522347583712     -0.37712944540917      0.09558879541694
  Br  -1.55415516579054     -1.65462981102868     -0.10574375770468
  H   1.54225528439895      0.56408710326327      0.02768651732862
  C   -1.02758217761462      0.95955152260667      0.89312485789899
  H   -2.06536012514592      1.20544682186191      0.66350032850908
  H   -0.98092861126425      0.53345623028767      1.89579886055724
  H   -0.42264382530531      1.86998195427162      0.85289750631435
  N   -0.61679179839158      0.64024655309060     -1.49835880978406
  O   -1.65099726752006      0.50659480923602     -2.12984816385913
  O   0.34112352314917      1.34856867260645     -1.79856583960590
  C   1.49998927725392     -1.27546950624648     -0.94092728795898
  N   1.92092400176392     -1.97992170231764     -1.78073180709266
  C   1.18665581500759     -0.94256552224773      1.43093792712846
  N   1.35128037224561     -1.35909120810850      2.51646923292305
