15
Coordinates from ORCA-job run
  C   -0.50417559570628     -0.00869262832486     -0.13992231552734
  C   0.96406524678541     -0.42793826231836      0.10365115191984
  Br  -1.62310247920289     -1.57172401473474     -0.24392631603663
  H   1.56418360210472      0.48891564395701      0.10861315926754
  C   -1.01119722703836      0.95523318008130      0.91662046547961
  H   -2.02976554214417      1.25999587771048      0.67288636475297
  H   -1.01365107910193      0.47274847862484      1.89439967343341
  H   -0.36643482514775      1.83803632436582      0.94489161493153
  N   -0.53669554813377      0.75020131558409     -1.47641268555378
  O   -1.54316578292110      0.68112189133786     -2.16094636729327
  O   0.45072597452549      1.44951142413634     -1.69034978944937
  C   1.46946918240650     -1.28708320030642     -0.97000838211331
  N   1.88129173256703     -1.95966232818401     -1.83985261303776
  C   1.09547152400606     -1.07912207166084      1.40827412838639
  N   1.20298081700105     -1.56454163026851      2.47208191084018
