15
Coordinates from ORCA-job run
  C   -0.62352910121652     -0.08253506545196     -0.09596442707532
  C   0.67117576966173     -0.92235889066800      0.00843863671606
  Br  -2.12554838892341     -1.21393974718827      0.37990302351016
  H   0.56157125813736     -1.80617485643706     -0.62717341528853
  C   -0.60293795371403      1.17395565234940      0.73876476036168
  H   -1.54067988329445      1.71383660225966      0.62776685389974
  H   0.21532817029716      1.82106960132271      0.41226563227097
  H   -0.46227171302106      0.91112510678210      1.78826764576907
  N   -0.81051168148833      0.26208846617266     -1.57699502638975
  O   -0.36854656714092     -0.54291233664688     -2.38965013893760
  O   -1.41740326908428      1.29401565273533     -1.82825166528008
  C   0.89971665548119     -1.33828221863333      1.39401017037644
  N   1.08917036469686     -1.65777134021277      2.50794191477656
  C   1.81034923588282     -0.13404460198617     -0.47686062935933
  N   2.70411710372586      0.52192797560256     -0.86446333535006
