15
Coordinates from ORCA-job run
  C   -0.60244260635046      0.02562838922483      0.12315209329777
  C   0.72413472665428     -0.64634076698096      0.53767924597619
  Br  -2.05607383372733     -0.91298442071312      0.99581760230919
  H   0.78203896771667     -0.52720744217683      1.62757564526797
  C   -0.63624210095832      1.50033200693433      0.46666077977584
  H   0.14242460093381      2.02932526551974     -0.08938058530925
  H   -1.60680751341718      1.91463291998890      0.19946503723301
  H   -0.47149829128004      1.63589964442546      1.53698573488698
  N   -0.80918716865957     -0.11286142843835     -1.38478033920484
  O   0.03771760351636     -0.74428874391922     -2.00900084655679
  O   -1.79465233781972      0.44524853144770     -1.84476087611749
  C   1.87292700841264      0.05600497161270     -0.04550846969837
  N   2.78591137158287      0.66352909512644     -0.46534359515869
  C   0.78055542713445     -2.08344019318334      0.25546546950397
  N   0.84919414626154     -3.24447782886829      0.09597310379450
