15
Coordinates from ORCA-job run
  C   -0.49744322924377     -0.03094137846862     -0.15868378781080
  C   0.97900705101507     -0.38320955156848      0.13515202871658
  Br  -1.53815596702032     -1.64368891571675     -0.30902485562820
  H   1.53606311851924      0.56006841781486      0.16193407336946
  C   -1.08622305174623      0.90214186051934      0.88306873670656
  H   -2.10830494372710      1.16109595895357      0.60355693927852
  H   -0.48434463424359      1.81353953050515      0.93847088838845
  H   -1.10174228320058      0.41428866993717      1.85804775283103
  N   -0.51956005722656      0.73338078256004     -1.49208146762918
  O   0.44753921645998      1.46845753729468     -1.67689995017772
  O   -1.50463213271704      0.63240480041314     -2.20330483409311
  C   1.56060996360316     -1.21593285751377     -0.92063711617479
  N   2.03327162933008     -1.86924980055609     -1.77407930764899
  C   1.09469370338249     -1.03035395766308      1.44332189905534
  N   1.18722161681519     -1.51000109651115      2.51115900081687
