15
Coordinates from ORCA-job run
  C   -0.59372384744201     -0.03273226777300      0.15573891399254
  C   0.80745998939322     -0.59842245123651      0.47278016932089
  Br  -1.90945365858380     -1.12689420626327      1.06540723719364
  H   0.91553884685768     -0.51342122808505      1.56204416428732
  C   -0.73630744947545      1.41999501316118      0.55953216196876
  H   -1.75324665473329      1.75478194135419      0.36281485282076
  H   -0.52223308394113      1.53158368598130      1.62389629721127
  H   -0.04058596810173      2.03589150993329     -0.01641148497058
  N   -0.87165624286209     -0.13569297238022     -1.34353008612064
  O   -0.00920506503382     -0.66629383243033     -2.03662046514887
  O   -1.92558595615413      0.34951223992876     -1.72827721442776
  C   1.85512793755127      0.22438603615638     -0.14223158625217
  N   2.68123848712314      0.92851202046755     -0.59002424643130
  C   0.97205883656773     -2.01410889820002      0.13087018620710
  N   1.12957382883439     -3.15909659061425     -0.07498889965095
