15
Coordinates from ORCA-job run
  C   -0.63230973454829     -0.04147122226684     -0.05193737376926
  C   0.60987173451513     -0.96213946048695     -0.00863906520616
  Br  -2.16975325519434     -1.06037657944000      0.54856247617316
  H   0.40132599481151     -1.84912892256899     -0.61459829977648
  C   -0.47651118329956      1.22948885968321      0.74515044693497
  H   0.35893907992884      1.81312288840054      0.35014457957782
  H   -0.28492572971109      0.98165853469292      1.79029047470838
  H   -1.38233517120592      1.82803928988601      0.67955575521839
  N   -0.89157755258668      0.27845002890586     -1.52802988769918
  O   -1.41618386077995      1.35577284682095     -1.77376226459025
  O   -0.58201289069078     -0.58654965188511     -2.34023037846813
  C   0.90031121603394     -1.36671512383550      1.36827762322289
  N   1.13718065981198     -1.68367245804828      2.47388458151605
  C   1.76250781127100     -0.26162950589188     -0.58715389054429
  N   2.66647288164420      0.32715047603404     -1.05151477729791
