15
Coordinates from ORCA-job run
  C   -0.49874444779363     -0.06670067263626     -0.14237004697900
  C   1.00190092122434     -0.32002360096202      0.12899769700394
  Br  -1.45005701722475     -1.74032645168989     -0.17483157557026
  H   1.50526476998703      0.65254760798737      0.09140309018218
  C   -1.11268546074751      0.89013419108400      0.86272051846283
  H   -2.15429002058593      1.07738234320893      0.59793645498356
  H   -1.07669607406312      0.45788385902515      1.86319976624584
  H   -0.56102479644590      1.83454990976990      0.85101483505042
  N   -0.59835231807348      0.61836926647338     -1.51460829830327
  O   -1.59888152510967      0.43035485556859     -2.18554517142474
  O   0.32594112125355      1.38562125066917     -1.77300412893798
  C   1.60545138099245     -1.17460657758622     -0.89660922849545
  N   2.09751736834373     -1.84413874079740     -1.72628108964488
  C   1.18549169219145     -0.88979476573685      1.46512652954138
  N   1.33116440605143     -1.31025247437784      2.55185064788544
