15
Coordinates from ORCA-job run
  C   -0.50270591944945      0.02190374256491     -0.11537248742078
  C   0.94553001755301     -0.48285555856642      0.06955432413508
  Br  -1.73002210520634     -1.46371278675257     -0.02337964822339
  H   1.61149743765071      0.37669055674813     -0.06762561405408
  C   -0.87669607597772      1.09680536989546      0.88727309442043
  H   -0.83574110069641      0.69823746759156      1.90130880497110
  H   -0.18143545452527      1.93755038966840      0.79745763404833
  H   -1.88960155148450      1.44474994016736      0.68333914241267
  N   -0.60367603669044      0.66757620702144     -1.50352648908683
  O   -1.72507208517344      0.87037698095525     -1.93969579395475
  O   0.45748570884399      1.01154075208188     -2.01837013701713
  C   1.31407268416729     -1.49683910602412     -0.92201908370364
  N   1.62638525832608     -2.30848977249347     -1.71076439474467
  C   1.12321551942810     -0.99787404974724      1.42956655880495
  N   1.26776370323438     -1.37466013311060      2.53225408941271
