15
Coordinates from ORCA-job run
  C   -0.59622887136439     -0.04292846017963      0.14466336251215
  C   0.81154096872768     -0.56815927783303      0.49936446599435
  Br  -1.90321537445226     -1.15052028300334      1.05022742429970
  H   0.89764714081817     -0.45643092676340      1.58818817099448
  C   -0.78111386920686      1.41350146527265      0.51662594484140
  H   -0.59690551235840      1.55004725356392      1.58358745394319
  H   -0.08475292345558      2.03408251202808     -0.05358859501979
  H   -1.79990026780265      1.72140110842783      0.28814281855921
  N   -0.84176640609205     -0.18232618505061     -1.35748590982826
  O   0.04579580756949     -0.70816827521403     -2.02174289837921
  O   -1.89910370882181      0.26892206395732     -1.77272583883824
  C   1.85247313336686      0.26449579948523     -0.11416069424838
  N   2.67657492211857      0.97321895371292     -0.55834864707248
  C   1.01558904827635     -1.98659552466302      0.19208924925028
  N   1.20436591267688     -3.13154022374089      0.01416369299161
