15
Coordinates from ORCA-job run
  C   -0.49585607120892     -0.03581566112028     -0.16327672290258
  C   0.98065773496974     -0.37494005249273      0.14608083619959
  Br  -1.51859001453080     -1.65790199286670     -0.33269998411027
  H   1.52677429207118      0.57426177483100      0.18765941970930
  C   -1.10556657141266      0.88707010063208      0.87545692736853
  H   -2.12767249266191      1.13535149033184      0.58617687073171
  H   -1.12512407026385      0.39577841967358      1.84876881486128
  H   -0.51462839836461      1.80518564167254      0.93996216013195
  N   -0.50889265883154      0.73410790958589     -1.49351039848797
  O   -1.48033742949495      0.62124456694285     -2.22158090051593
  O   0.44994499552572      1.48457916463784     -1.65912171239593
  C   1.58408144326498     -1.19089992063052     -0.91051911300389
  N   2.07389885011778     -1.82645796823636     -1.76778156760322
  C   1.08781001764647     -1.03208148963732      1.44997818223693
  N   1.17350037317336     -1.52048198332370      2.51440718778052
