15
Coordinates from ORCA-job run
  C   -0.59550737595885     -0.04928430378543      0.14630927430929
  C   0.81679316226048     -0.56963853979134      0.48927436283249
  Br  -1.89149103572872     -1.17811916784407      1.04204003757893
  H   0.90507864036899     -0.47350968151751      1.57941902495714
  C   -0.78923273394349      1.40080764808310      0.53805950142998
  H   -1.81189117851168      1.70354571522622      0.31999089322974
  H   -0.59897678664371      1.52534347092973      1.60548965722345
  H   -0.10133293651971      2.03387027162434     -0.02884238593113
  N   -0.84600729606741     -0.17025882794510     -1.35658946079493
  O   -1.90820257777621      0.27914572491643     -1.76153861857759
  O   0.04341196994789     -0.67879574212993     -2.03183111049356
  C   1.85000561259906      0.27960589737920     -0.11448754330711
  N   2.66739482607511      1.00149813317171     -0.54985799187912
  C   1.03064261261903     -1.98167053999649      0.16001087447308
  N   1.22931509727922     -3.12154005832085     -0.03844651505064
