15
Coordinates from ORCA-job run
  C   -0.63163510600176     -0.04970187006883     -0.05513684169674
  C   0.62066969719259     -0.95524907374748      0.01124809838048
  Br  -2.16112071881637     -1.07658022183904      0.55230338318215
  H   0.42538351575948     -1.85455089158251     -0.58077699602087
  C   -0.49573214636990      1.23579621549213      0.72208610582176
  H   0.33566435024162      1.82243033079927      0.32280738744889
  H   -0.30804464989035      1.00748238715719      1.77234649442282
  H   -1.40771602078809      1.82295542575913      0.64056791194527
  N   -0.88446136842230      0.24320431353307     -1.53777203745249
  O   -0.55885381556070     -0.63087791161384     -2.33385118029358
  O   -1.41986259308380      1.31020376863489     -1.80455110048497
  C   0.90694771195187     -1.33366873411416      1.39644652227883
  N   1.14086658268198     -1.62965438831681      2.50847721876890
  C   1.76891281345742     -0.25169534069963     -0.57196701174759
  N   2.66898174764831      0.33990599060663     -1.04022795455286
