15
Coordinates from ORCA-job run
  C   -0.60281416198180      0.03399376759657      0.11939162841220
  C   0.70696703472063     -0.67602205404517      0.52381419092468
  Br  -2.08160415153407     -0.90075403991295      0.95296903874856
  H   0.75866642559746     -0.59012953719966      1.61714052214544
  C   -0.61041422339139      1.49835012790703      0.50599887228242
  H   -1.57081752989854      1.93945468976989      0.24478971952298
  H   0.18237900179656      2.02812169083372     -0.02900423844960
  H   -0.45094239386900      1.59895484425053      1.58101602324584
  N   -0.79981738982362     -0.05604200177742     -1.39350280902281
  O   0.04030276413707     -0.68460158134116     -2.02972074699376
  O   -1.77064990917112      0.53424489474728     -1.84435984339637
  C   1.87405712141657      0.02017667806570     -0.02969637124566
  N   2.80253556200419      0.62128904215597     -0.42396330162052
  C   0.73732451276794     -2.10502702124202      0.19973568289331
  N   0.78382733722912     -3.26200949980831      0.00639163255330
