15
Coordinates from ORCA-job run
  C   -0.59787557652714      0.03144583998087      0.14247109015253
  C   0.73681856208319     -0.64551286726935      0.52126668248613
  Br  -2.02869108178578     -0.88683110613310      1.07262339576063
  H   0.83102715718891     -0.51470037051768      1.60727643229907
  C   -0.61026178467138      1.51007759314131      0.47012834335894
  H   -1.58612168915868      1.92845385648630      0.22992539597634
  H   0.15353196338149      2.02713513704278     -0.11691058676975
  H   -0.40979294688990      1.65635789372287      1.53291892409830
  N   -0.85465354142480     -0.12226733190179     -1.35626676745714
  O   -1.85092703874030      0.43751095905325     -1.79017051175293
  O   -0.03263360675678     -0.76626660152442     -2.00058517851360
  C   1.87090241475246      0.04187975487877     -0.10681624613883
  N   2.77419776830424      0.63795135491653     -0.56244620932062
  C   0.77409800913265     -2.08601177119793      0.25356608343857
  N   0.82938139111180     -3.24922234067841      0.10501915238238
