15
Coordinates from ORCA-job run
  C   -0.62062711552687     -0.09839754636701     -0.09245949260843
  C   0.69363779173211     -0.90527013344733      0.02679255066715
  Br  -2.09477628377331     -1.25190244730964      0.41673036365900
  H   0.60582173611625     -1.80075715388690     -0.59575169564980
  C   -0.62548355598388      1.17919321632395      0.70990004410414
  H   -1.57747304150890      1.69229007071623      0.59329099958169
  H   -0.46910135320359      0.94728265706427      1.76454423820611
  H   0.17349608835340      1.83784966274256      0.35958878006675
  N   -0.82238144478412      0.20555888965027     -1.58078645293597
  O   -0.35324140157250     -0.60055050005067     -2.37686105585250
  O   -1.46304168117675      1.21114923023594     -1.85281010043091
  C   0.92770180935586     -1.29758915112671      1.41811589703726
  N   1.11955829234812     -1.60408659917379      2.53535278231858
  C   1.81407877179162     -0.09669183385101     -0.46721681987653
  N   2.68983138783255      0.58192163847985     -0.85743003828654
