15
Coordinates from ORCA-job run
  C   -0.50376662786017     -0.03344381265541      0.11245144149318
  C   0.98258370089916     -0.39077785532624     -0.11035484425155
  Br  -1.27878636970187     -1.23799704653007      1.40464514603561
  H   1.36118002133045      0.26507713963661     -0.90266392479585
  C   -0.69818566345074      1.41101035191559      0.53214767791048
  H   -1.76385434966639      1.61769555079778      0.63325390543501
  H   -0.20835920323963      1.59592195798711      1.48844750992395
  H   -0.27299247240502      2.07233908347758     -0.22935526957825
  N   -1.23370699330174     -0.19925860162621     -1.22688970416085
  O   -2.45256960989433     -0.24680588450943     -1.19250519494456
  O   -0.52823352110085     -0.17551829321231     -2.23249493105214
  C   1.16232400416864     -1.77584511522213     -0.55342953779967
  N   1.32213805426088     -2.88091382764714     -0.91615303375395
  C   1.74722446158919     -0.13236676585732      1.11230651871573
  N   2.36500456837242      0.11188311877158      2.08059424082285
