15
Coordinates from ORCA-job run
  C   -0.59611724044556      0.03347386422564      0.14902008334767
  C   0.74276999371914     -0.63778134831819      0.52286905808289
  Br  -2.01621485222129     -0.87011918872138      1.10931794988888
  H   0.84909024171822     -0.49119668839776      1.60578652110156
  C   -0.60523846042217      1.51704043118338      0.45360107320487
  H   -1.58367872808115      1.93122448563137      0.21658133246522
  H   0.15272042648732      2.02483953900578     -0.14888830447415
  H   -0.39440696377338      1.67983071837994      1.51200882176606
  N   -0.86988297923898     -0.14314702251826     -1.34450329374956
  O   -0.05368647184423     -0.79448343821877     -1.98882313544277
  O   -1.87235954818025      0.40801582581747     -1.77500000973699
  C   1.86975643241173      0.04032639208891     -0.12773819294625
  N   2.76734644217682      0.63025530018023     -0.60229034874551
  C   0.77731030514381     -2.08210602812779      0.27570220055587
  N   0.83159140254997     -3.24717284221056      0.14235624468222
