15
Coordinates from ORCA-job run
  C   -0.61343594951986     -0.14453616075203     -0.08094727178984
  C   0.76439288220672     -0.84528303465624     -0.02475550178603
  Br  -1.97623381752019     -1.43610479507359      0.40690214126588
  H   0.73025761462229     -1.72394464480392     -0.67597979339584
  C   -0.70357786999445      1.09170446554318      0.77851201591383
  H   -1.69490870361930      1.53251485591418      0.70022583577775
  H   -0.50999815149149      0.82618014651044      1.81891699787622
  H   0.03427174981574      1.82687113792669      0.44695598860842
  N   -0.87170780267459      0.20294050271314     -1.55062804810463
  O   -0.38899931813146     -0.55298689193675     -2.38688929775457
  O   -1.56501094169024      1.18652667604402     -1.77008402165313
  C   1.07067321160234     -1.26217116550069      1.34506043291848
  N   1.31750039478091     -1.58815949358941      2.44583989807789
  C   1.80087314271945      0.06588518411068     -0.52449078635872
  N   2.60590355889414      0.82056321755030     -0.92663858959571
