15
Coordinates from ORCA-job run
  C   -0.60086314369338     -0.04273701087859      0.12626014863915
  C   0.79381460451106     -0.57430929549923      0.52043443062308
  Br  -1.93739293577868     -1.15211525445266      0.98574546392774
  H   0.84573434605221     -0.47193873536348      1.61232792967919
  C   -0.79250744209510      1.41220107761887      0.50105299207453
  H   -0.63382800953057      1.54349030895871      1.57273786341731
  H   -0.08141606396976      2.03402261162792     -0.04922581398037
  H   -1.80485500174162      1.72323217305805      0.24930068026805
  N   -0.80176973847843     -0.17169394313055     -1.38314023612639
  O   -1.84534714800367      0.28492454408290     -1.82660921016005
  O   0.10485645129291     -0.69352788912799     -2.02456223761512
  C   1.85526215782045      0.26101448747490     -0.05298008031308
  N   2.69360554381331      0.97279462270875     -0.46455722160726
  C   1.00502945948104     -1.99051081275140      0.20763136492141
  N   1.19867692032021     -3.13384688432618      0.02458392625179
