15
Coordinates from ORCA-job run
  C   -0.50868880611478     -0.01456990446005      0.08623017859398
  C   0.98025511744302     -0.41373771393159     -0.01568499635090
  Br  -1.37354502680656     -1.06056735488722      1.45755905811156
  H   1.41138916923372      0.14410091126083     -0.85476873571603
  C   -0.69776427094535      1.46926818347700      0.33721681920091
  H   -0.22099433396399      2.03968572923025     -0.46624135036443
  H   -0.25574448974812      1.74924524576699      1.29380065439172
  H   -1.76312080887296      1.69984509266125      0.35766086531542
  N   -1.17085859756888     -0.31637207218682     -1.26445260602575
  O   -2.39058623333676     -0.33768602294672     -1.29132282307270
  O   -0.41368842364091     -0.41791740511783     -2.22659847680733
  C   1.15616230936193     -1.84223776936466     -0.29004953332315
  N   1.31054059043929     -2.98475170403755     -0.51197044745836
  C   1.68480670771722     -0.02923375900613      1.20978874804672
  N   2.25283709680312      0.31592854354224      2.17783264545834
