15
Coordinates from ORCA-job run
  C   -0.62555200583058     -0.00279566394943      0.17627020246178
  C   0.77225667437796     -0.58522045776395      0.51921254168609
  Br  -1.94278900003463     -0.99960070296283      1.17550683983420
  H   0.86760954380001     -0.52779519087546      1.61079684118307
  C   -0.72745159692873      1.47474970067782      0.49242661021850
  H   -1.72211050070707      1.83843700871033      0.23201244290092
  H   0.01510813224240      2.03732726281507     -0.07201936289664
  H   -0.57155040881970      1.62731740714346      1.56173283214270
  N   -0.83591200063084     -0.22525111359393     -1.32919409509738
  O   -1.46203006958045     -1.20399096095976     -1.70559973497059
  O   -0.28160824731833      0.61131668376751     -2.03726601712740
  C   1.85609336417845      0.20976342312368     -0.07016740033758
  N   2.73943847152005      0.85698530179480     -0.49494134313282
  C   0.89864073068208     -1.99188204175451      0.12493419787929
  N   1.02185691304937     -3.11836065617281     -0.18370455474413
