15
Coordinates from ORCA-job run
  C   -0.49572884191397      0.02408383580591     -0.14364572760826
  C   0.94498464787999     -0.47865849242530      0.09798820710490
  Br  -1.70795574625174     -1.47473770358479     -0.21585933815705
  H   1.60716256921290      0.39357982601080      0.05412400174658
  C   -0.94226672691606      1.03290307451317      0.89716513809638
  H   -0.25416301814213      1.88405973633556      0.89897085727052
  H   -0.95596316239475      0.57440068801953      1.88620339023143
  H   -1.94582648931466      1.38287431057021      0.65454366024594
  N   -0.51955346383341      0.75245665279919     -1.49411988876489
  O   -1.61358640657057      0.96439151062880     -1.99108107509448
  O   0.56605860074888      1.14481395919004     -1.91471346937427
  C   1.38382254200334     -1.42610471323006     -0.92997082749316
  N   1.74986065170934     -2.18380877813817     -1.74866548998575
  C   1.04847434122206     -1.07460260764903      1.43233482958487
  N   1.13568050256078     -1.51665129884589      2.51672573219723
