15
Coordinates from ORCA-job run
  C   -0.59320864180522     -0.03772697044230      0.15807294956364
  C   0.81914377792857     -0.56366528251629      0.49241259940071
  Br  -1.88549462771276     -1.11977856077068      1.11425825099449
  H   0.92834402841162     -0.43398789918469      1.57718949222272
  C   -0.76249133542128      1.42704422246357      0.50424803297072
  H   -0.54849319045583      1.58524484567819      1.56256158908661
  H   -0.07965438918967      2.03241689952337     -0.09772680463449
  H   -1.78589809711919      1.73477739366410      0.29697887577463
  N   -0.87243528576336     -0.20496727820687     -1.33527009322875
  O   0.00025216160834     -0.74305847054162     -2.00952267255589
  O   -1.93805750442408      0.24075389075549     -1.73528970473787
  C   1.85102329013912      0.25377686496889     -0.15551477390962
  N   2.66855601144948      0.95511050043472     -0.62304350158988
  C   1.00935905400752     -1.98836992777758      0.20604506630595
  N   1.18805474834672     -3.13757022804830      0.04560069433705
