15
Coordinates from ORCA-job run
  C   -0.48683991148753     -0.02558936638932     -0.17079239758172
  C   0.98372672940201     -0.37764021779056      0.14562619393039
  Br  -1.52814152582000     -1.64249585031673     -0.32299803694317
  H   1.55145289357890      0.55983637172846      0.14535319969340
  C   -1.09327207782782      0.91517404212334      0.85276057921642
  H   -2.11330842975546      1.16184968078530      0.55746307249617
  H   -1.11282160843673      0.44252883819230      1.83505234185720
  H   -0.49961213319327      1.83347232581904      0.90146897745875
  N   -0.51534289229329      0.71549899352763     -1.51408945756123
  O   0.54459427995175      1.22146776365043     -1.87461122998163
  O   -1.59856450776135      0.82180972126252     -2.06568024469784
  C   1.57515076707107     -1.25916694224938     -0.86438809675056
  N   2.06253919634648     -1.96325008241320     -1.66759155758751
  C   1.07710028187696     -0.97847526503655      1.47847187151522
  N   1.15133893834829     -1.42502001289329      2.56195478493612
