15
Coordinates from ORCA-job run
  C   -0.60733140155542     -0.16044124972535     -0.09823959053465
  C   0.78226126620021     -0.82843693865229      0.02595437873132
  Br  -1.95894478381589     -1.46739382071105      0.37881006455559
  H   0.79010699907385     -1.72490545436711     -0.60146043201134
  C   -0.75382821838322      1.09761161859816      0.72087344795743
  H   -1.75103034897955      1.51364306792306      0.59548503018960
  H   -0.59176016713292      0.86587791908501      1.77466646168636
  H   -0.02063119607991      1.83926039759908      0.39369212309047
  N   -0.82004314378560      0.13943710138258     -1.58588721114673
  O   -1.52240870241163      1.10312621612763     -1.85834118066377
  O   -0.29508867523804     -0.63154217205706     -2.38196949108995
  C   1.04866745739422     -1.20169970022367      1.41657311453135
  N   1.26464682747113     -1.49304584104449      2.53345631928421
  C   1.81608139978213      0.09259790073188     -0.46069812207545
  N   2.61930268746065      0.85491095533360     -0.85191491250443
