15
Coordinates from ORCA-job run
  C   -0.60275360947349     -0.16755961362997     -0.11239203457865
  C   0.79874747942576     -0.81285585838230     -0.00476174885495
  Br  -1.93173383558189     -1.52212990730543      0.29027623311236
  H   0.83090149789776     -1.67838969684820     -0.67359038375021
  C   -0.78278614800073      1.04806810543693      0.76218334076273
  H   -0.06084094559838      1.81789026536877      0.47826205444282
  H   -1.78662802324698      1.45019564114325      0.64500947326468
  H   -0.62733434871715      0.77051579119238      1.80575302754673
  N   -0.80827370464745      0.19604303828087     -1.58681735178691
  O   -1.52858399569984      1.15633086085063     -1.82193060136056
  O   -0.25951169633773     -0.52608879048124     -2.41209350374525
  C   1.05875671562206     -1.24548268304198      1.36990811788722
  N   1.26983537750197     -1.58282508912787      2.47468180285522
  C   1.81872502060987      0.15047322316754     -0.43571878666758
  N   2.61048021624623      0.94681471337660     -0.77976963912765
