15
Coordinates from ORCA-job run
  C   -0.60722803238408      0.02941996113479      0.10837987303125
  C   0.73427580000148     -0.62295331227635      0.51739872570877
  Br  -2.06293923440603     -0.98823380335489      0.88453247205975
  H   0.84058814710303     -0.42783777885452      1.59258385266166
  C   -0.68441914694740      1.47612812638374      0.54100764553080
  H   -1.63040598411041      1.91064563901168      0.22619570681604
  H   -0.60944425595637      1.53342601607205      1.62816344214375
  H   0.12935650018499      2.04725249353615      0.08704078158603
  N   -0.76157107536803     -0.07348628746055     -1.40979895466610
  O   -0.27294802734132     -1.06316868898460     -1.94165533486691
  O   -1.37085610019207      0.83069872448991     -1.96591705043985
  C   1.83646274538322      0.05136638188821     -0.17821401602073
  N   2.69457286291510      0.61275175471929     -0.75075529671372
  C   0.81599470086145     -2.07577690109125      0.34141705771968
  N   0.94856110025647     -3.24223232521367      0.31962109544956
