15
Coordinates from ORCA-job run
  C   -0.62844837096451     -0.07067916055673     -0.07173934970134
  C   0.64745502334614     -0.93749256057917      0.04554970438306
  Br  -2.14332433442635     -1.13097144891588      0.51392477460234
  H   0.49468232122822     -1.85416765812462     -0.53207725977728
  C   -0.55115413961807      1.23222920695918      0.68437465153421
  H   -0.38809374943777      1.02825555627788      1.74373933315432
  H   0.27420194445360      1.83565452344063      0.29786317088686
  H   -1.47710151565614      1.79067130714276      0.56617024146306
  N   -0.84902099470608      0.18771058583387     -1.56603412329276
  O   -1.40712292441474      1.23369624552344     -1.86731604543854
  O   -0.47787281278043     -0.69154691436218     -2.33603264875629
  C   0.90827340386308     -1.27621126647084      1.44600335406675
  N   1.12180059702924     -1.53453426530636      2.57154075507925
  C   1.78988776566706     -0.21131406080115     -0.52155857066445
  N   2.68483778641676      0.39969990993917     -0.97440798753919
