15
Coordinates from ORCA-job run
  C   -0.62636076964552     -0.01423327308747      0.17421379313846
  C   0.77617528974691     -0.58935003441651      0.51003325860571
  Br  -1.93556418644769     -1.04433378786558      1.14958883842048
  H   0.86342256038359     -0.56326686615203      1.60348954616521
  C   -0.74548620822363      1.45598346793983      0.51796796128581
  H   -0.00524410888783      2.03657110238963     -0.03151571536671
  H   -0.59742142674867      1.59023150796767      1.59093183651603
  H   -1.74266120261379      1.81419851647839      0.25848449296007
  N   -0.82918380811229     -0.20680286467423     -1.33601987732640
  O   -1.48128588106177     -1.15814158455790     -1.73700861737945
  O   -0.24270872561856      0.62580845354163     -2.02254308503754
  C   1.85755778574030      0.23277499120818     -0.04602147034177
  N   2.74017001846137      0.90065861824864     -0.43925371331190
  C   0.91842775515838     -1.98255049924069      0.07498601333604
  N   1.05016290786919     -3.09854774777955     -0.26633326166404
