13

C	0.0	0.0	0.0
C	-0.474382	0.025374	-1.452473
F	1.36511	0.0	0.0
H	0.272747	-0.562705	-1.993362
H	-0.38117	0.787017	0.648794
H	-0.370055	1.064411	-1.785308
N	-0.367606	-1.300119	0.6711
O	-0.142227	-2.325982	0.030065
O	-0.791684	-1.244972	1.822922
N	-1.786089	-0.461183	-1.781677
H	-1.852299	-1.448246	-1.571615
H	-2.547055	-0.017939	-1.264781
Cl	-4.434056	0.0	0.0
