13

C	0.0	0.0	0.0
C	-0.453761	0.118577	-1.449374
F	1.36521	0.0	0.0
H	-0.183238	1.138195	-1.750737
H	-0.378922	0.755814	0.686413
H	0.201065	-0.559673	-2.00388
N	-0.369631	-1.329894	0.611453
O	-0.366716	-2.309247	-0.130921
O	-0.552626	-1.345936	1.82645
N	-1.820038	-0.154131	-1.799061
H	-2.512121	0.344576	-1.242903
H	-2.032761	-1.130639	-1.648376
Cl	-4.476093	0.0	0.0
