13

C	0.0	0.0	0.0
C	-0.437454	-0.100286	-1.453789
F	1.365391	0.0	0.0
H	-0.092816	0.834434	-1.914621
H	-0.376387	0.854642	0.560286
H	0.175782	-0.901326	-1.876686
N	-0.365012	-1.217558	0.817808
O	-0.545199	-2.276795	0.222537
O	-0.340457	-1.070219	2.036425
N	-1.814097	-0.339881	-1.786526
H	-2.482291	0.258368	-1.307542
H	-2.082609	-1.274152	-1.508254
Cl	-4.455346	0.0	0.0
