13

C	0.0	0.0	0.0
C	-0.500349	0.189242	-1.418235
F	1.359407	0.0	0.0
H	-0.366684	1.253856	-1.639491
H	-0.382854	0.738552	0.701292
H	-1.573354	-0.003801	-1.416741
N	-0.361299	-1.337837	0.606009
O	-0.523063	-2.297929	-0.14447
O	-0.365473	-1.384262	1.833457
N	0.18134	-0.594609	-2.442057
H	-0.07245	-1.564114	-2.306196
H	1.18225	-0.528059	-2.300042
Cl	-3.54038	0.0	0.0
