13

C	0.0	0.0	0.0
C	-0.442578	0.348958	-1.421023
F	1.358789	0.0	0.0
H	-0.234439	1.420722	-1.529124
H	-0.384448	0.63423	0.798169
H	0.26821	-0.178677	-2.06411
N	-0.363679	-1.414593	0.384391
O	-0.340797	-2.259663	-0.507841
O	-0.543778	-1.634673	1.578291
N	-1.778166	0.060229	-1.865966
H	-1.916616	-0.939392	-1.909882
H	-2.513668	0.400383	-1.247121
Cl	-4.386513	0.0	0.0
