16

C	0.0	0.0	0.0
C	-0.60335	0.037866	-1.389655
Cl	1.793566	0.0	0.0
H	-1.663479	0.269776	-1.179521
H	-0.274964	0.949482	0.462272
C	-0.532227	-1.145428	0.831092
H	-0.208261	-1.051764	1.870807
H	-0.174327	-2.102573	0.444268
H	-1.629401	-1.082388	0.780599
N	-0.462086	-1.267796	-2.062031
H	-0.845154	-1.144916	-2.995045
H	-1.106366	-1.905909	-1.599443
N	-0.027401	1.11452	-2.170148
H	-0.624443	1.299697	-2.967698
H	0.880404	0.814446	-2.512381
H	-3.459033	0.0	0.0
