16

C	0.0	0.0	0.0
C	-0.583649	-0.075052	-1.390973
Cl	1.80783	0.0	0.0
H	-1.67149	-0.030473	-1.18
H	-0.275901	0.977631	0.396275
C	-0.52131	-1.098771	0.894133
H	-0.226034	-2.075219	0.50908
H	-0.15565	-0.975033	1.917449
H	-1.617388	-1.004809	0.872445
N	-0.289434	-1.365507	-2.010996
H	0.652211	-1.353555	-2.389997
H	-0.937462	-1.516155	-2.775531
N	-0.221959	1.121071	-2.1519
H	0.73919	1.042022	-2.468889
H	-0.817323	1.174059	-2.969951
H	-3.409109	0.0	0.0
