16

C	0.0	0.0	0.0
C	-0.600899	0.144007	-1.393888
Cl	1.792117	0.0	0.0
H	-1.672485	0.303067	-1.169296
H	-0.2841	0.898217	0.554897
C	-0.528084	-1.21921	0.72058
H	-1.625561	-1.147895	0.679955
H	-0.174876	-2.129107	0.230108
H	-0.197765	-1.234704	1.762451
N	-0.379081	-1.070852	-2.182008
H	-0.626278	-0.813593	-3.131235
H	-1.075817	-1.748828	-1.882663
N	-0.110405	1.273354	-2.16886
H	-0.499034	2.122666	-1.777628
H	0.899634	1.321788	-2.083667
H	-3.400001	0.0	0.0
