16

C	0.0	0.0	0.0
C	-0.42186	0.018946	-1.488353
Cl	1.804781	0.0	0.0
H	0.225816	0.774637	-1.964975
H	-0.274782	0.964676	0.432303
C	-0.578654	-1.128772	0.813687
H	-0.29812	-2.090425	0.386901
H	-0.242622	-1.069043	1.852869
H	-1.670912	-1.022218	0.781866
N	-1.782838	0.405729	-1.755535
H	-2.496965	0.031828	-1.085621
H	-1.868089	1.410702	-1.650519
N	-0.209745	-1.312813	-2.057935
H	0.777993	-1.464413	-2.228865
H	-0.703869	-1.312695	-2.94204
H	-3.780516	0.0	0.0
