15

C	0.0	0.0	0.0
C	-0.484268	-0.038433	-1.440907
F	1.424353	0.0	0.0
H	-1.58579	-0.097247	-1.346651
H	-0.290173	0.97672	0.396625
N	-0.47043	-1.07327	0.799068
H	-1.153017	-1.607	0.274941
H	-1.003966	-0.686908	1.566749
N	0.007745	-1.308624	-2.071308
O	-0.643219	-2.333163	-1.85568
O	1.041602	-1.264268	-2.734263
N	-0.073292	1.06823	-2.257391
H	-0.702582	1.837726	-2.066609
H	0.872956	1.338718	-2.019039
H	-3.080163	0.0	0.0
