15

C	0.0	0.0	0.0
C	-0.322867	-0.03144	-1.499231
F	1.391834	0.0	0.0
H	0.179012	-0.916783	-1.898211
H	-0.299701	0.955062	0.441903
N	-0.533523	-1.164909	0.633033
H	-1.55126	-1.088184	0.502902
H	-0.3768	-1.080466	1.633024
N	0.501858	1.109775	-2.121839
O	1.19561	0.834451	-3.10255
O	0.372285	2.236984	-1.653987
N	-1.663449	0.122589	-1.898709
H	-1.941499	-0.622152	-2.521333
H	-2.36559	0.168041	-1.100852
H	-3.334448	0.0	0.0
