15

C	0.0	0.0	0.0
C	-0.396459	-0.076014	-1.422667
F	1.418	0.0	0.0
H	0.056964	0.813692	-1.90049
H	-0.308727	0.949613	0.4568
N	-0.487628	-1.061244	0.743004
H	-0.228926	-1.03435	1.728539
H	-0.259654	-1.953198	0.321654
N	-1.877673	0.073641	-1.633298
O	-2.629068	-1.016225	-1.632336
O	-2.020012	0.930313	-2.55089
N	0.061551	-1.303708	-2.037325
H	-0.298839	-1.286609	-2.989183
H	1.078931	-1.297823	-2.063347
H	-2.189031	0.0	0.0
