15

C	0.0	0.0	0.0
C	-0.394631	-0.021387	-1.497661
F	1.376779	0.0	0.0
H	0.452858	-0.469462	-2.028813
H	-0.299469	0.95294	0.452682
N	-0.492443	-1.157744	0.677286
H	-0.364428	-1.00427	1.672791
H	-1.503411	-1.172786	0.51945
N	-0.283973	1.469385	-1.997989
O	-1.244021	1.952112	-2.592708
O	0.787157	2.051529	-1.812104
N	-1.611716	-0.631068	-1.78591
H	-2.39233	-0.314145	-1.136696
H	-1.870972	-0.508047	-2.755835
H	-3.326608	0.0	0.0
