15

C	0.0	0.0	0.0
C	-0.321291	0.021691	-1.50197
F	1.385034	0.0	0.0
H	0.252886	-0.798444	-1.938598
H	-0.305681	0.932492	0.483236
N	-0.531097	-1.194327	0.579855
H	-0.367772	-1.159072	1.581431
H	-1.548994	-1.108361	0.458925
N	0.398106	1.25732	-2.062977
O	1.105211	1.097426	-3.059229
O	0.178716	2.342098	-1.530691
N	-1.666151	0.064237	-1.924996
H	-2.367996	0.150956	-1.133456
H	-1.895978	-0.766801	-2.451206
H	-3.325925	0.0	0.0
