15

C	0.0	0.0	0.0
C	-0.452569	-0.122396	-1.466781
F	1.411802	0.0	0.0
H	-1.517395	-0.386521	-1.402044
H	-0.335803	0.984616	0.33364
N	-0.492446	-0.975604	0.902757
H	-0.378955	-1.89021	0.476428
H	-1.511467	-0.783201	0.906966
N	0.29636	-1.262751	-2.081638
O	1.227037	-1.018971	-2.845381
O	-0.037221	-2.398749	-1.72906
N	-0.286875	1.05158	-2.274887
H	-1.066899	1.662043	-2.060461
H	0.579512	1.520247	-2.040507
H	-2.996363	0.0	0.0
