16

C	0.0	0.0	0.0
C	-0.503436	0.138784	-1.434887
F	1.386539	0.0	0.0
H	-1.591378	0.273881	-1.336388
H	-0.222059	-0.754021	-1.988525
C	-0.421516	1.166795	0.881701
H	-0.011924	2.114449	0.527868
H	-0.046257	0.977225	1.893709
H	-1.513378	1.17132	0.865594
N	-0.531085	-1.262273	0.441687
H	-1.557038	-1.074615	0.357463
H	-0.338233	-1.334138	1.437607
N	0.121933	1.278889	-2.138069
O	1.046647	1.03687	-2.919821
O	-0.30297	2.412917	-1.906776
F	-2.891392	0.0	0.0
