16

C	0.0	0.0	0.0
C	-0.492396	-0.32538	-1.417238
F	1.406057	0.0	0.0
H	-1.328844	-1.012778	-1.356042
H	0.335622	-0.757582	-1.987177
C	-0.400465	1.345515	0.581599
H	-1.490185	1.389688	0.52796
H	-0.075628	1.339541	1.62754
H	0.079147	2.174302	0.064827
N	-0.479147	-1.109728	0.783142
H	-0.210728	-0.930496	1.747538
H	-1.508839	-0.935566	0.702344
N	-1.008403	0.78329	-2.268482
O	-0.484921	1.898037	-2.216684
O	-1.906721	0.47987	-3.05339
F	-2.776595	0.0	0.0
