16

C	0.0	0.0	0.0
C	-0.418763	0.377978	-1.44952
F	1.401967	0.0	0.0
H	0.486357	0.511805	-2.046572
H	-1.019128	1.278869	-1.456224
C	-0.406145	1.149808	0.908734
H	0.039051	2.085651	0.554187
H	-1.49797	1.175221	0.885541
H	-0.031587	0.937022	1.912184
N	-0.494819	-1.216127	0.544185
H	-0.330381	-1.960354	-0.123795
H	-1.522222	-1.015299	0.530758
N	-1.231913	-0.598367	-2.218523
O	-2.112168	-0.148936	-2.942964
O	-0.906434	-1.786047	-2.179427
F	-2.758757	0.0	0.0
