16

C	0.0	0.0	0.0
C	-0.244147	0.235187	-1.521159
F	1.402047	0.0	0.0
H	-0.143649	1.291455	-1.768778
H	0.520995	-0.343008	-2.044479
C	-0.449235	1.180796	0.830419
H	-0.168627	0.990227	1.868608
H	-1.536957	1.223032	0.723885
H	0.043491	2.093349	0.483443
N	-0.528426	-1.202083	0.531536
H	-0.393864	-1.946709	-0.145047
H	-1.556967	-0.972388	0.515536
N	-1.521135	-0.219071	-2.13577
O	-1.694645	-1.433658	-2.198407
O	-2.22329	0.6227	-2.682941
F	-2.794891	0.0	0.0
