16

C	0.0	0.0	0.0
C	-0.475361	-0.028135	-1.458956
F	1.408286	0.0	0.0
H	-1.568922	-0.149084	-1.36221
H	-0.192939	0.878123	-1.991595
C	-0.448547	1.320705	0.595571
H	-1.539653	1.328355	0.532873
H	0.001958	2.156987	0.053691
H	-0.119442	1.344389	1.636432
N	-0.502548	-1.066833	0.80634
H	-1.525484	-0.884704	0.752049
H	-0.335718	-1.938977	0.315068
N	0.129941	-1.134978	-2.229459
O	-0.083211	-2.292756	-1.859539
O	0.828399	-0.84825	-3.206512
F	-2.879508	0.0	0.0
