12

C	0.0	0.0	0.0
C	-0.498094	0.003347	-1.4184
F	1.354062	0.0	0.0
H	-0.054435	0.843945	-1.95209
H	-1.590032	0.074996	-1.328261
H	-0.216232	-0.946824	-1.874895
N	-0.33763	1.29232	0.729634
O	-0.446456	1.240975	1.948453
O	-0.264866	2.318299	0.05672
C	-0.492456	-1.150796	0.779344
N	-0.528592	-2.182917	1.344625
H	-2.852113	0.0	0.0
