12

C	0.0	0.0	0.0
C	-0.329215	0.045763	-1.485679
F	1.353975	0.0	0.0
H	-1.396767	0.129667	-1.633132
H	0.205228	0.894608	-1.914048
H	0.057481	-0.880417	-1.921396
N	-0.385803	1.269415	0.726262
O	-0.433923	2.305066	0.060303
O	-0.354372	1.221923	1.957248
C	-0.560402	-1.147441	0.710741
N	-0.605436	-2.213043	1.224753
H	-2.358014	0.0	0.0
