16

C	0.0	0.0	0.0
C	-0.594435	-0.060029	-1.408537
Cl	1.792114	0.0	0.0
H	-1.653448	-0.277234	-1.17787
H	-0.284664	-0.934592	0.488837
C	-0.542645	1.157909	0.806503
H	-0.194367	2.105505	0.387775
H	-0.216645	1.096217	1.848956
H	-1.638119	1.035857	0.725428
N	-0.036132	-1.084231	-2.280984
H	0.976854	-1.053545	-2.217369
H	-0.337298	-1.989969	-1.941554
N	-0.433934	1.234398	-2.08401
H	-1.169149	1.831943	-1.716239
H	-0.677522	1.053726	-3.052507
F	-3.009015	0.0	0.0
