16

C	0.0	0.0	0.0
C	-0.530105	0.064807	-1.427667
Cl	1.804962	0.0	0.0
H	-1.61695	0.152154	-1.23921
H	-0.297407	-0.957459	0.426398
C	-0.507957	1.139033	0.854518
H	-1.6037	1.033312	0.789719
H	-0.155849	1.042437	1.886499
H	-0.169173	2.090517	0.440631
N	-0.288576	-1.16103	-2.20367
H	-0.924268	-1.871795	-1.854396
H	0.660133	-1.484364	-2.026129
N	-0.022225	1.248629	-2.106238
H	0.972089	1.123673	-2.276091
H	-0.469668	1.271171	-3.015409
F	-2.940813	0.0	0.0
