16

C	0.0	0.0	0.0
C	-0.378821	-0.202328	-1.524075
Cl	1.800526	0.0	0.0
H	0.454415	0.232171	-2.092614
H	-0.331606	-0.863605	0.578299
C	-0.547809	1.269037	0.607406
H	-0.25179	2.144006	0.020403
H	-0.192229	1.402876	1.632881
H	-1.637738	1.132726	0.587713
N	-1.599932	0.403191	-1.982636
H	-2.357042	0.208095	-1.264578
H	-1.468818	1.40963	-1.997597
N	-0.438535	-1.636522	-1.848731
H	0.238466	-2.12469	-1.268251
H	-1.364569	-1.934707	-1.535356
F	-3.154194	0.0	0.0
