16

C	0.0	0.0	0.0
C	-0.54937	0.098151	-1.459923
Cl	1.793062	0.0	0.0
H	0.312322	0.120178	-2.137575
H	-0.262803	-0.989746	0.375786
C	-0.517485	1.031674	0.977622
H	-0.096066	0.855533	1.972191
H	-0.263603	2.037022	0.642001
H	-1.60449	0.896584	0.989829
N	-1.30483	1.331291	-1.618835
H	-1.611646	1.333214	-2.587095
H	-2.153294	1.145245	-1.057148
N	-1.387529	-1.0499	-1.818522
H	-2.187977	-0.955871	-1.167103
H	-0.889014	-1.910426	-1.605068
F	-3.080594	0.0	0.0
