16

C	0.0	0.0	0.0
C	-0.541725	-0.071164	-1.422349
Cl	1.803508	0.0	0.0
H	-1.626366	-0.154025	-1.222009
H	-0.291178	-0.928145	0.488615
C	-0.542129	1.180045	0.769362
H	-0.219344	1.143681	1.813431
H	-0.203054	2.125064	0.335409
H	-1.637293	1.046679	0.67968
N	-0.056468	-1.278112	-2.08047
H	-0.491352	-1.291938	-2.99645
H	0.942995	-1.180974	-2.238776
N	-0.293751	1.130362	-2.228196
H	0.654099	1.455985	-2.065788
H	-0.921804	1.857868	-1.910685
F	-2.960651	0.0	0.0
