16

C	0.0	0.0	0.0
C	-0.307362	-0.280265	-1.502157
F	1.394374	0.0	0.0
H	0.487638	0.2796	-2.007599
N	-0.450556	1.331097	0.306688
H	-1.477027	1.195477	0.281622
H	-0.180067	1.526918	1.266181
N	-0.481848	-1.069607	0.828415
H	-0.173758	-0.886805	1.778783
H	-1.508948	-0.895443	0.761029
C	-1.551097	0.261105	-2.088859
N	-2.320031	0.631388	-2.900038
N	-0.133152	-1.707556	-1.787433
H	-0.51019	-2.207005	-0.988512
H	-0.675686	-1.949108	-2.607791
F	-2.730392	0.0	0.0
