16

C	0.0	0.0	0.0
C	-0.417142	-0.074802	-1.467443
F	1.42168	0.0	0.0
H	0.003161	0.842792	-1.903976
N	-0.446281	1.225942	0.571747
H	-1.472967	1.056396	0.527405
H	-0.200155	1.187812	1.559352
N	-0.349453	-1.189277	0.747916
H	-0.501459	-1.943099	0.085389
H	0.455343	-1.427519	1.315853
C	-1.866126	-0.069976	-1.809121
N	-2.578238	-0.100913	-2.759052
N	0.155466	-1.292484	-2.064146
H	-0.226757	-1.372809	-2.99853
H	1.158535	-1.169138	-2.131858
F	-2.698117	0.0	0.0
