16

C	0.0	0.0	0.0
C	-0.185754	-0.154814	-1.564874
F	1.421603	0.0	0.0
H	0.546834	-0.928165	-1.823879
N	-0.484189	1.1927	0.608491
H	-0.210701	2.004517	0.065016
H	-1.50766	1.074426	0.555512
N	-0.496559	-1.171163	0.642157
H	-1.514992	-1.100939	0.49208
H	-0.352132	-1.015447	1.636924
C	0.299447	1.104298	-2.16844
N	0.632238	2.106372	-2.685866
N	-1.501007	-0.529813	-2.054235
H	-1.689329	-0.061196	-2.930241
H	-2.22143	-0.269867	-1.347764
F	-2.944762	0.0	0.0
