16

C	0.0	0.0	0.0
C	-0.434831	-0.117612	-1.474661
F	1.410899	0.0	0.0
H	-1.532013	-0.152316	-1.418488
N	-0.470537	1.278859	0.469396
H	-0.191289	1.382971	1.440191
H	-1.496979	1.117164	0.436261
N	-0.456989	-1.165284	0.700784
H	-1.483073	-1.045443	0.627575
H	-0.19937	-1.063626	1.678522
C	0.081102	-1.357773	-2.061755
N	0.529473	-2.310642	-2.581894
N	-0.002512	1.008721	-2.305526
H	1.005032	1.079109	-2.193614
H	-0.379763	1.830333	-1.846633
F	-2.803624	0.0	0.0
