16

C	0.0	0.0	0.0
C	-0.227854	-0.181275	-1.529178
F	1.417235	0.0	0.0
H	0.246341	0.705925	-1.973721
N	-0.487836	1.27333	0.405395
H	-0.311172	1.326804	1.405278
H	-1.514253	1.119451	0.298782
N	-0.449888	-1.071179	0.822672
H	-1.475823	-0.939898	0.762055
H	-0.220857	-1.93967	0.347399
C	-1.589136	-0.231923	-2.087819
N	-2.412051	-0.325502	-2.924589
N	0.435515	-1.436196	-1.933798
H	1.430178	-1.307988	-1.79624
H	0.264163	-1.589194	-2.920353
F	-2.750897	0.0	0.0
