12
Coordinates from ORCA-job run
  C   0.54542703316965      0.25235477896648     -0.03475180632795
  C   -0.78133604692143     -0.33342535301077      0.49758809904021
  Cl  0.83386574248683      1.79609388575268      0.82921379686451
  H   -0.93886461665758     -1.30650033386327      0.02088169915643
  H   -0.67091893461083     -0.49315303405077      1.57414572731752
  C   0.41767782970998      0.52920139092914     -1.47068867437643
  N   0.29509973311028      0.69461569720500     -2.62698786893055
  N   1.69175842951729     -0.59333467514400      0.16987569033303
  H   1.78951692944642     -0.83393328404155      1.14933021862774
  H   1.62630203788853     -1.43466939346718     -0.39129697518626
  C   -1.93759514542545      0.52051595350039      0.24568901404562
  N   -2.86893299171370      1.20323436722385      0.03700107943613
