17

C	-0.310333	0.020895	-1.49148
C	0.0	0.0	0.0
Br	-2.21283	0.41501	-1.899857
H	1.091406	0.0	0.0
C	0.589307	1.048207	-2.186318
H	0.533143	0.91271	-3.267152
H	1.598793	0.864727	-1.799859
H	0.284838	2.058955	-1.925067
C	-0.017668	-1.288953	-2.073229
N	0.296327	-2.285784	-2.611465
N	-0.523886	-1.171019	0.737479
O	-1.289653	-1.950697	0.168024
O	-0.125838	-1.281111	1.893729
N	-0.511484	1.216809	0.677463
O	-1.47533	1.11035	1.43502
O	0.065938	2.268425	0.410333
F	2.485175	0.0	0.0
