17

C	-0.301423	0.11582	-1.486983
C	0.0	0.0	0.0
Br	-2.216168	0.452707	-1.88881
H	1.092075	0.0	0.0
C	0.554351	1.234521	-2.091038
H	0.204321	2.206801	-1.751517
H	0.50552	1.186375	-3.180341
H	1.571525	1.06228	-1.718323
C	0.058206	-1.131422	-2.161768
N	0.392732	-2.056563	-2.80585
N	-0.516063	-1.218837	0.66016
O	-1.204725	-2.01022	0.01559
O	-0.18008	-1.358949	1.831999
N	-0.52274	1.166833	0.750271
O	0.09746	2.220198	0.619719
O	-1.539793	1.02364	1.427522
F	2.481722	0.0	0.0
