13

C	-0.424412	-0.02048	-1.456936
C	0.0	0.0	0.0
F	-1.821034	-0.146868	-1.548466
H	1.09391	0.0	0.0
H	-0.172526	0.935801	-1.924565
H	-0.333823	-0.921882	0.486505
C	0.227284	-1.16457	-2.196292
H	-0.086997	-2.115228	-1.757828
H	-0.063208	-1.153224	-3.249334
H	1.312962	-1.080297	-2.108628
C	-0.545177	1.14369	0.720407
N	-1.008408	2.062974	1.284381
Cl	3.393242	0.0	0.0
