13

C	-0.424401	-0.022315	-1.456904
C	0.0	0.0	0.0
F	-1.820995	-0.148767	-1.548334
H	1.093913	0.0	0.0
H	-0.172472	0.933329	-1.925782
H	-0.333825	-0.921246	0.487698
C	0.227274	-1.167366	-2.194719
H	1.31296	-1.083039	-2.107137
H	-0.063225	-1.157351	-3.247794
H	-0.087026	-2.117427	-1.754985
C	-0.545139	1.144634	0.718924
N	-1.008307	2.064686	1.281671
Cl	3.393233	0.0	0.0
