13

C	-0.519101	-0.023782	-1.433444
C	0.0	0.0	0.0
F	-0.111796	1.165529	-2.040875
H	1.093035	0.0	0.0
H	-0.035168	-0.839902	-1.979566
H	-0.34047	0.922471	0.480697
C	-2.02827	-0.10221	-1.55199
H	-2.321044	-0.046938	-2.602502
H	-2.483063	0.739962	-1.02063
H	-2.408599	-1.034307	-1.12657
C	-0.501949	-1.145904	0.748694
N	-0.925804	-2.084163	1.312512
Cl	3.432885	0.0	0.0
