16
Coordinates from ORCA-job run
  C   -0.31800067361056     -0.05816698254676     -0.34724939900514
  C   0.95104105641778     -0.20861092132820      0.53323671031654
  Cl  -0.16488809976748     -1.19796357189661     -1.72265312836987
  H   0.84276432768640      0.49522012007251      1.37025219427915
  C   -1.55264269944245     -0.42954318471317      0.45849291910846
  H   -1.64986689092044      0.23547003845710      1.32239063092418
  H   -2.44212800505183     -0.31925206223432     -0.16372885868613
  H   -1.50521960196780     -1.46184262314234      0.80812276032217
  C   -0.40192520750633      1.35778217756076     -0.89457784504223
  H   -0.46663564723289      2.07462451087362     -0.07000226444584
  H   -1.29653711644921      1.45911247461328     -1.51091964922037
  H   0.46632245500599      1.60013396138728     -1.50900534787399
  C   2.17336532925463      0.15326701612009     -0.19106969448120
  N   3.14370637066439      0.47689412003183     -0.76713810136740
  C   1.07346240649505     -1.55428388601547      1.10222318202793
  N   1.14618199642475     -2.62384118723959      1.58062589151372
