16
Coordinates from ORCA-job run
  C   -0.36266778945438     -0.11547409788249     -0.44980247614153
  C   0.89689354186087     -0.74763355634951      0.20521940241480
  Cl  -0.47217628909540     -0.84794919280671     -2.08719271844026
  H   0.77387660061290     -1.83739791486985      0.18557871931005
  C   -1.60491183034286     -0.50568183273771      0.33506984389895
  H   -2.49379409836906     -0.14470915014924     -0.18469914895941
  H   -1.68377429603134     -1.59082625080273      0.43295936750985
  H   -1.58034411602100     -0.05884699604053      1.33205942896907
  C   -0.22110953463389      1.38910674574478     -0.59258429515255
  H   -1.11036204428277      1.79635147362040     -1.07653250681747
  H   0.64879989727091      1.65005381445652     -1.19724953403850
  H   -0.12101510177163      1.85031816652574      0.39417084177949
  C   1.01667377640804     -0.31774756652104      1.60299952593342
  N   1.07619399782856      0.03907742466764      2.72020736055491
  C   2.12699660252321     -0.41583066062950     -0.52101565261726
  N   3.11172068349783     -0.14281040622576     -1.09918815820357
