16
Coordinates from ORCA-job run
  C   -0.31949373308764     -0.05134955025773     -0.34704037834913
  C   0.95296287224023     -0.21889245737389      0.52541481868380
  Cl  -0.17142832757070     -1.16313540292509     -1.74565421692291
  H   0.84704069555320      0.46747184232272      1.37708151276678
  C   -1.55096346263501     -0.43927025135645      0.45578049100729
  H   -1.64574277243503      0.20906176199357      1.33258466469867
  H   -2.44281439249999     -0.31798403946216     -0.16111053668453
  H   -1.50135258853843     -1.47809631394818      0.78531689029868
  C   -0.40568881822421      1.37534215037438     -0.86532301222688
  H   0.45941806437809      1.62938030678489     -1.47961566207360
  H   -0.46513469819694      2.07563181241897     -0.02608717726969
  H   -1.30382888483523      1.48960473553185     -1.47437494601479
  C   2.17206033462212      0.15852815755794     -0.19632832761052
  N   3.13977741709296      0.49220200391508     -0.77109307532868
  C   1.07892028686605     -1.57572708607001      1.06655688207651
  N   1.15626800727053     -2.65376766950588      1.52489207294901
