16
Coordinates from ORCA-job run
  C   -0.37145380701349     -0.10085207359535     -0.44573338514946
  C   0.91256624969808     -0.74383664907688      0.14895117561710
  Cl  -0.51103133037515     -0.75923946426780     -2.11212853589848
  H   0.80609490450666     -1.83317956225273      0.07899884968643
  C   -1.58916702129729     -0.54395996190019      0.34931317852925
  H   -2.49470163148128     -0.17299173004566     -0.13335627436136
  H   -1.54733119154723     -0.14151458455433      1.36449711404022
  H   -1.65106597897483     -1.63342783391683      0.40023289068321
  C   -0.25354238765078      1.41063585684552     -0.52244962145081
  H   0.59599354954192      1.71178736478877     -1.13739309527738
  H   -1.16103263553099      1.82674988578295     -0.96306568554654
  H   -0.13242648624082      1.82742508121744      0.48159923178201
  C   1.05888078059062     -0.38004473277969      1.56289184073063
  N   1.13771689774297     -0.07806241115016      2.69498278796981
  C   2.11876838129422     -0.35514746587984     -0.58916919888732
  N   3.08173170673736     -0.03234171921522     -1.17817127246732
