16
Coordinates from ORCA-job run
  C   -0.40383817449680     -0.10868688855703     -0.41467741513984
  C   1.02281546662423     -0.60049484069762     -0.04243178479068
  Cl  -1.07689032731538     -1.36825877821320     -1.50568716082638
  H   1.57648370044168     -0.76209187968334     -0.97529500444218
  C   -1.29155148682342      0.00526733260025      0.81143952948264
  H   -2.28898477964047      0.33150739041109      0.51223384952433
  H   -0.87819917582844      0.74351078719616      1.50471507923922
  H   -1.38345077077069     -0.95285308242343      1.32536664608999
  C   -0.31679707612149      1.19837502960528     -1.18622347936692
  H   0.33283768494435      1.09806010773098     -2.05873604372795
  H   0.06927389135429      1.99386388764641     -0.54399471748451
  H   -1.31121272098652      1.48454025023033     -1.53238527067307
  C   0.99610566306100     -1.86658965747166      0.69723806319804
  N   0.96752499642560     -2.87513897702502      1.29760207951488
  C   1.72554346666776      0.41834372495394      0.74568728153098
  N   2.26133964246431      1.26064559369685      1.36414834787146
