16
Coordinates from ORCA-job run
  C   -0.25703854112457      0.12100210458569     -0.51589987814696
  C   1.15328421610417     -0.27984327325171      0.00010143634711
  Cl  -0.24574098298632     -0.24163417810160     -2.27603888756289
  H   1.89567206405721      0.27015954045664     -0.59094368342253
  C   -1.34768441374739     -0.69973897854091      0.14823763923025
  H   -1.20735218984504     -1.76653881103479     -0.03263540060869
  H   -2.32021986030261     -0.40864669636439     -0.25210960425023
  H   -1.34772518588605     -0.51784932684150      1.22681163589080
  C   -0.46963461548183      1.61544281045437     -0.33479610492855
  H   -0.50391924055776      1.86835556964747      0.72777385680274
  H   0.32967852199801      2.18736913984780     -0.81156148141768
  H   -1.41678491875539      1.90733707367081     -0.79112846958894
  C   1.41404978350444     -1.71417590576088     -0.15989921893396
  N   1.61256064435750     -2.86497048486479     -0.28046617056266
  C   1.30851400044876      0.09745626944040      1.40957617075530
  N   1.40334071821689      0.42627514665738      2.53297816039690
