16
Coordinates from ORCA-job run
  C   -0.33894258442461     -0.02987544367369     -0.33162170074178
  C   0.95146788295273     -0.29833226578615      0.48715336789213
  Cl  -0.36059617954086     -1.17938680296748     -1.70714762674769
  H   0.94615230351570      0.40749501643259      1.32947445043701
  C   -1.56170942407160     -0.28326024920365      0.53573708379346
  H   -1.55477422113875      0.39111450485862      1.39784987434471
  H   -1.59240337887490     -1.31425309903713      0.89112418712484
  H   -2.46678070728978     -0.09353582226890     -0.04333792731152
  C   -0.31703915643522      1.38736826833479     -0.88151624252707
  H   -1.22956532316837      1.57310497446940     -1.45013291208846
  H   -0.26893333504774      2.10772185046463     -0.05890188453841
  H   0.53632468206870      1.54538141258257     -1.54246223881255
  C   2.16646145144787     -0.04107325928177     -0.29238209897623
  N   3.13562491518837      0.20440270687164     -0.90741256214014
  C   0.97921827400950     -1.65263379343684      1.04826540935935
  N   0.97749480080898     -2.72523799835861      1.52531082093237
