16
Coordinates from ORCA-job run
  C   -0.37521243264199     -0.10670109445184     -0.44051256092638
  C   0.89084373515717     -0.76233967218498      0.17839608024286
  Cl  -0.53586880576193     -0.82408005590049     -2.08033601809081
  H   0.75016959061408     -1.84982661441072      0.15764183247556
  C   -1.60381576501473     -0.48502094970987      0.37113880458874
  H   -1.69858615874795     -1.56976879269034      0.45880860770004
  H   -1.54720908655614     -0.04999325515378      1.37207096530228
  H   -2.49896229083892     -0.10337926690747     -0.12240827251192
  C   -0.21475314258413      1.39685828771990     -0.57467885534438
  H   0.64562124078681      1.65043349420318     -1.19597102468153
  H   -1.10820640065967      1.82070910276026     -1.03605901707407
  H   -0.08686446445318      1.84848631271518      0.41325776812044
  C   1.05406361165529     -0.34096109840829      1.57420235309500
  N   1.14632114594269      0.00730517872266      2.69198679743364
  C   2.10533241133435     -0.44592781585989     -0.58024409434228
  N   3.07512681176824     -0.18479376044352     -1.18829336598717
