16
Coordinates from ORCA-job run
  C   -0.36600601700112     -0.09682264103004     -0.45124224670858
  C   0.89685467072792     -0.75856340567001      0.16742099230779
  Cl  -0.48781937371658     -0.75735583792017     -2.11800030856151
  H   0.77171249761322     -1.84635857559082      0.10386502761870
  C   -1.60410060862560     -0.51835439785869      0.32378668842422
  H   -2.49507784848218     -0.13219268939953     -0.17379785228379
  H   -1.57208004869673     -0.11625039068419      1.33944883648409
  H   -1.68550019796431     -1.60656158985808      0.37370934697802
  C   -0.22238577572956      1.41236834483407     -0.52940620459475
  H   -0.11354441778036      1.82994632444238      0.47575271579282
  H   -1.11466627885886      1.84176108179834     -0.98814537144861
  H   0.64340028890986      1.69807759912865     -1.12903007899795
  C   1.02919608356764     -0.38560466164106      1.58046403380207
  N   1.09983037444296     -0.07302816538189      2.71016333955513
  C   2.12121570963967     -0.39719471423657     -0.55484389998230
  N   3.09897094195403     -0.09486628093239     -1.13014501838534
