16
Coordinates from ORCA-job run
  C   -0.39172834866620     -0.12990268495926     -0.42039089593384
  C   1.01403127018998     -0.61535430959028      0.03100831826679
  Cl  -1.04916857133788     -1.44929800256523     -1.44816781979200
  H   1.59657268213570     -0.84256589955012     -0.87008953677533
  C   -1.31676425952686      0.07742853024363      0.76524470466708
  H   -1.44008897362105     -0.84306431941002      1.33802492236324
  H   -2.29883495427669      0.39630233444035      0.41200726960896
  H   -0.91465104449841      0.85465867705230      1.42152266956116
  C   -0.25859425282739      1.12174728567851     -1.27297502103831
  H   -1.23676246355042      1.39922106670207     -1.66889604867562
  H   0.12101493868143      1.95217796596566     -0.67249281315065
  H   0.41583080004680      0.95392295669057     -2.11578983377739
  C   0.94353798193289     -1.83160649857658      0.84767036325095
  N   0.87937670313146     -2.79818346096985      1.51102836210436
  C   1.70426943151109      0.44183746529632      0.77878659932888
  N   2.22995906067556      1.31267889355193      1.36550875999173
