16
Coordinates from ORCA-job run
  C   -0.31818947196707      0.00057001760191     -0.35157856590195
  C   0.94694475168099     -0.30187395828350      0.49483778311420
  Cl  -0.18028696608614     -0.91875604369919     -1.88458312968525
  H   0.84823425987390      0.26745966996815      1.42956562407167
  C   -1.55977018855556     -0.47002862863806      0.38902721396633
  H   -1.52858654211924     -1.54405239518178      0.57783695349481
  H   -1.64857089414286      0.05757186153948      1.34389964871376
  H   -2.44637040198708     -0.25311444002855     -0.20882392537906
  C   -0.37939764895998      1.48445572639098     -0.67688527460090
  H   0.49335684172885      1.80396933075547     -1.24816250713518
  H   -1.27150852813995      1.69234358507458     -1.26972186835865
  H   -0.43408829350684      2.06836256803710      0.24728317388630
  C   2.17569964538821      0.14724725295841     -0.16711033686263
  N   3.15181627424944      0.53980368534402     -0.68798687740103
  C   1.04781214327064     -1.72048443132166      0.85133563849207
  N   1.10390501927267     -2.85147380051734      1.16106644958551
