16
Coordinates from ORCA-job run
  C   -0.29367258971571      0.02062313791327     -0.50985743511489
  C   1.13390487605768     -0.34910107735877     -0.01873387195847
  Cl  -0.45051481226845     -0.72523305235960     -2.13734318582133
  H   1.85017159201561      0.00644317422623     -0.76941394832469
  C   -1.36271262464130     -0.55604281313250      0.40058929857748
  H   -2.35040971753696     -0.29868253948142      0.01445964830507
  H   -1.26312128656338     -0.13678833791414      1.40594761810152
  H   -1.28976022020267     -1.64310288970425      0.45959363518024
  C   -0.41620735622792      1.52859200160403     -0.65912717420551
  H   -1.38500025197094      1.77442500110509     -1.09688798705737
  H   -0.34318860704140      2.01443831672225      0.31701948907637
  H   0.36422173927665      1.92390084133808     -1.31335130690788
  C   1.31044578430347     -1.79743602033146      0.12916043280581
  N   1.44397007726414     -2.95723989106595      0.25295574814719
  C   1.42469944296150      0.31787573975637      1.25548879063077
  N   1.62717395428968      0.87632840868278      2.26850024856568
