16
Coordinates from ORCA-job run
  C   -0.36901333436577     -0.10907543709365     -0.44630984329812
  C   0.90076245038828     -0.75178999036706      0.17884455314369
  Cl  -0.50188003609710     -0.81218925795071     -2.09478429496838
  H   0.77960373573409     -1.84117500192997      0.14135130459596
  C   -1.59979778035662     -0.51377853532163      0.34905227791053
  H   -1.56039741732615     -0.08623485462731      1.35398983005125
  H   -1.67831248046192     -1.60054216568287      0.42692113404206
  H   -2.49576365794719     -0.14204360821461     -0.15059881629657
  C   -0.23008836769138      1.39797879903957     -0.56399037802216
  H   -0.11543674670516      1.84129452516330      0.42935960657029
  H   0.63059791446530      1.67060236268653     -1.17667355604658
  H   -1.12664310765003      1.81331078422467     -1.02719613956743
  C   1.04034152725932     -0.34602396403990      1.58197787922999
  N   1.11428570437962     -0.01136735150788      2.70522453908097
  C   2.11851816409651     -0.40123839536437     -0.55943674235187
  N   3.09122343227820     -0.10772790901411     -1.14773135407362
