12

C	-0.44869	-0.056017	-1.452215
C	0.0	0.0	0.0
Br	-2.413926	-0.233909	-1.583637
H	1.094884	0.0	0.0
H	-0.053311	-0.959203	-1.916923
H	-0.356938	0.933067	0.452962
C	-0.076762	1.123089	-2.223211
N	0.203199	2.074151	-2.853207
N	-0.42959	-1.21265	0.688304
H	0.313197	-1.499481	1.312457
H	-1.264936	-1.04746	1.232447
Cl	3.415514	0.0	0.0
