12

C	-0.495333	0.083938	-1.44414
C	0.0	0.0	0.0
Br	-0.055769	-1.536314	-2.446994
H	1.091985	0.0	0.0
H	0.015289	0.906044	-1.946147
H	-0.364052	-0.928703	0.453958
C	-1.939501	0.286359	-1.508393
N	-3.10324	0.448139	-1.523642
N	-0.451391	1.21645	0.673699
H	-1.251477	1.038762	1.264507
H	0.304313	1.573436	1.242972
Cl	3.452534	0.0	0.0
