12

C	-0.5824	0.005093	-1.405524
C	0.0	0.0	0.0
Br	0.023049	1.558549	-2.439211
H	1.098629	0.0	0.0
H	-1.665095	0.130618	-1.337148
H	-0.343957	-0.930691	0.466732
C	-0.28684	-1.207974	-2.157394
N	-0.088855	-2.217287	-2.724595
N	-0.575348	1.130358	0.7449
H	-0.384798	0.964315	1.72722
H	-0.026725	1.950409	0.505121
Cl	3.492892	0.0	0.0
