12

C	-0.433601	-0.009941	-1.455726
C	0.0	0.0	0.0
Br	-2.385633	-0.313239	-1.606422
H	1.095029	0.0	0.0
H	0.017809	-0.849689	-1.986698
H	-0.32149	-0.952963	0.44315
C	-0.133496	1.232141	-2.156849
N	0.123473	2.224444	-2.730031
N	-0.494504	1.181432	0.685894
H	-1.377566	0.996357	1.146932
H	0.186058	1.469466	1.379002
Cl	3.441783	0.0	0.0
