12

C	-0.492864	0.058456	-1.446624
C	0.0	0.0	0.0
Br	-0.058605	-1.576534	-2.431601
H	1.091984	0.0	0.0
H	0.014226	0.875442	-1.958612
H	-0.36022	-0.925469	0.464902
C	-1.93774	0.259653	-1.513142
N	-3.101194	0.425164	-1.521741
N	-0.449391	1.227748	0.649387
H	-1.287282	1.072019	1.196524
H	0.28717	1.558725	1.25957
Cl	3.483315	0.0	0.0
