12

C	-0.446307	0.001135	-1.454898
C	0.0	0.0	0.0
Br	-2.374079	-0.421128	-1.604287
H	1.095003	0.0	0.0
H	0.059731	-0.790491	-2.01121
H	-0.314224	-0.9554	0.436109
C	-0.231881	1.280409	-2.118393
N	-0.064511	2.304494	-2.667901
N	-0.517588	1.15954	0.710321
H	0.244901	1.607516	1.201309
H	-1.224354	0.896901	1.382475
Cl	3.422745	0.0	0.0
