12

C	-0.449591	-0.050584	-1.45194
C	0.0	0.0	0.0
Br	-2.414601	-0.238575	-1.580538
H	1.094652	0.0	0.0
H	-0.049995	-0.94896	-1.922263
H	-0.357537	0.931223	0.456419
C	-0.087377	1.134869	-2.216359
N	0.18625	2.091448	-2.840561
N	-0.427127	-1.215674	0.683545
H	-1.269722	-1.057941	1.2197
H	0.312282	-1.498634	1.313071
Cl	3.416193	0.0	0.0
