12

C	-0.492555	0.063718	-1.446229
C	0.0	0.0	0.0
Br	-0.058541	-1.573661	-2.422353
H	1.091989	0.0	0.0
H	0.022716	0.875572	-1.959764
H	-0.363905	-0.923199	0.465804
C	-1.934981	0.272057	-1.517328
N	-3.096885	0.444184	-1.542087
N	-0.451601	1.225448	0.655906
H	0.295205	1.579107	1.239618
H	-1.267483	1.060282	1.229522
Cl	3.451226	0.0	0.0
