17

C	0.0	0.0	0.0
C	-0.324975	0.170651	-1.537664
F	1.385051	0.0	0.0
H	0.6801	0.219818	-1.976433
C	-0.453515	1.118543	0.83732
N	-0.527596	2.080376	1.510616
C	-0.441276	-1.280164	0.571421
N	-0.555277	-2.355128	1.033273
C	-1.042221	1.475812	-1.864289
H	-0.471924	2.344586	-1.520298
H	-1.159403	1.561661	-2.9505
H	-2.01125	1.448807	-1.368243
C	-1.042238	-1.030493	-2.14352
H	-1.139358	-0.886639	-3.225667
H	-2.019001	-1.100844	-1.668937
H	-0.483114	-1.957329	-1.978877
F	-2.371929	0.0	0.0
