17

C	0.0	0.0	0.0
C	-0.326274	0.102611	-1.541896
F	1.380514	0.0	0.0
H	0.67878	0.136909	-1.981952
C	-0.447294	1.155717	0.790452
N	-0.538497	2.133951	1.436359
C	-0.446546	-1.250273	0.630423
N	-0.536051	-2.304858	1.143437
C	-1.04955	1.389079	-1.92872
H	-0.506572	2.275614	-1.58892
H	-2.032031	1.358812	-1.462267
H	-1.130571	1.444757	-3.020252
C	-1.044347	-1.124621	-2.093514
H	-0.496865	-2.047864	-1.877693
H	-1.133366	-1.034394	-3.182147
H	-2.025764	-1.160641	-1.62261
F	-2.373576	0.0	0.0
