17

C	0.0	0.0	0.0
C	-0.324279	-0.262256	-1.524504
F	1.385082	0.0	0.0
H	0.681179	-0.338073	-1.958259
C	-0.445853	1.309766	0.493989
N	-0.535717	2.413354	0.890145
C	-0.448693	-1.068427	0.902292
N	-0.552388	-1.984485	1.632883
C	-1.04141	0.901317	-2.20047
H	-1.131416	0.699141	-3.273839
H	-0.489059	1.839353	-2.083125
H	-2.02122	0.989686	-1.733598
C	-1.045094	-1.583141	-1.773922
H	-0.484377	-2.429505	-1.364495
H	-1.147915	-1.740186	-2.853905
H	-2.018748	-1.512449	-1.293677
F	-2.372587	0.0	0.0
