15

C	0.0	0.0	0.0
C	-0.564499	-0.177303	-1.401293
Cl	1.782932	0.0	0.0
H	-1.652149	-0.319186	-1.291008
H	-0.285571	-0.910936	0.535235
N	-0.519886	1.224567	0.537731
H	-0.22634	1.30396	1.504349
H	-1.541203	1.121145	0.529163
N	0.009283	-1.395144	-2.050283
O	-0.146631	-2.438452	-1.425667
O	0.581996	-1.277411	-3.128612
N	-0.361204	0.966931	-2.336851
O	-1.239414	1.096837	-3.187945
O	0.646992	1.654913	-2.232157
Cl	-3.491755	0.0	0.0
