16

C	-0.420737	0.018985	-1.466816
C	0.0	0.0	0.0
Cl	-2.208548	-0.023568	-1.691747
H	1.092522	0.0	0.0
N	0.068579	1.267598	-1.993427
H	-0.061334	1.285534	-2.998055
H	1.062806	1.34848	-1.778215
C	0.1105	-1.158422	-2.179703
N	0.538153	-1.990494	-2.893024
N	-0.440058	-1.191784	0.771467
O	-0.308539	-1.112075	1.987857
O	-0.830614	-2.173786	0.14427
N	-0.502597	1.220423	0.69808
O	-1.656588	1.183479	1.119472
O	0.270514	2.167256	0.772605
Br	3.281422	0.0	0.0
