16

C	-0.573613	0.013564	-1.437089
C	0.0	0.0	0.0
Cl	-0.084546	-1.568636	-2.139223
H	1.090025	0.0	0.0
N	-1.994495	0.156818	-1.60815
H	-2.253815	1.097876	-1.336088
H	-2.466015	-0.500741	-0.997659
C	0.094505	1.066953	-2.211111
N	0.542331	1.926635	-2.874492
N	-0.511182	-1.18685	0.751182
O	-1.730248	-1.211856	0.951823
O	0.2899	-2.042511	1.096187
N	-0.438635	1.189453	0.790607
O	-0.877852	2.161719	0.176757
O	-0.272227	1.119638	2.001817
Br	3.295265	0.0	0.0
