15

C	0.0	0.0	0.0
C	-0.489694	-0.282136	-1.422595
Cl	1.78442	0.0	0.0
H	-0.129682	0.52268	-2.067764
H	-0.342049	1.001959	0.247864
C	-0.409403	-0.986183	1.087655
H	0.017953	-1.968561	0.890291
H	-0.023518	-0.62597	2.045533
H	-1.495104	-1.017286	1.098191
C	-1.948943	-0.469548	-1.682851
N	-2.669059	-0.756534	-2.583596
N	0.199916	-1.501901	-1.988692
O	0.946938	-1.330485	-2.950813
O	-0.030227	-2.58464	-1.458164
F	-2.633606	0.0	0.0
