15

C	0.0	0.0	0.0
C	-0.575967	0.033679	-1.425854
Cl	1.783915	0.0	0.0
H	0.218021	0.342272	-2.116274
H	-0.306566	0.933423	0.465062
C	-0.41921	-1.161568	0.895948
H	0.031086	-2.091391	0.550769
H	-1.508546	-1.181994	0.87133
H	-0.060329	-0.960011	1.908629
C	-1.704007	0.962981	-1.589556
N	-2.211598	1.892624	-2.113044
N	-0.927703	-1.344057	-1.933355
O	-2.008556	-1.527059	-2.473612
O	-0.031512	-2.182426	-1.829849
F	-2.61338	0.0	0.0
