15

C	0.0	0.0	0.0
C	-0.329361	0.025982	-1.513944
Cl	1.784153	0.0	0.0
H	0.342798	-0.696034	-1.990332
H	-0.370439	0.902749	0.474554
C	-0.480453	-1.247545	0.709459
H	-0.125126	-2.143536	0.194962
H	-0.091912	-1.246198	1.732
H	-1.575958	-1.151813	0.683397
C	-0.0443	1.344533	-2.085355
N	0.257139	2.38472	-2.540698
N	-1.691281	-0.447736	-2.007597
O	-1.84313	-1.662404	-1.975579
O	-2.397214	0.358085	-2.594795
F	-2.660017	0.0	0.0
