15

C	0.0	0.0	0.0
C	-0.489663	-0.338814	-1.408471
Cl	1.784348	0.0	0.0
H	-0.128537	0.433008	-2.089453
H	-0.345362	1.008535	0.210499
C	-0.398714	-0.948725	1.125111
H	0.05074	-1.928345	0.971015
H	-1.482611	-1.006849	1.142908
H	-0.020137	-0.543316	2.068256
C	-1.950621	-0.528982	-1.656643
N	-2.66399	-0.841737	-2.55483
N	0.196027	-1.584909	-1.91636
O	-0.070708	-2.645582	-1.362247
O	0.978117	-1.457318	-2.855653
F	-2.620869	0.0	0.0
