15

C	0.0	0.0	0.0
C	-0.494546	-0.217814	-1.433684
Cl	1.783939	0.0	0.0
H	-0.184137	0.64007	-2.034097
H	-0.341286	0.988579	0.297696
C	-0.409719	-1.040453	1.035749
H	-0.018183	-0.734464	2.009832
H	0.011168	-2.013383	0.782415
H	-1.495711	-1.066353	1.048467
C	-1.945396	-0.46436	-1.687027
N	-2.662884	-0.77426	-2.581918
N	0.241729	-1.368522	-2.078373
O	0.06366	-2.490848	-1.612913
O	0.970312	-1.107267	-3.034093
F	-2.635059	0.0	0.0
