13

C	0.0	0.0	0.0
C	-0.564356	0.139182	-1.389833
F	1.354942	0.0	0.0
H	-1.470077	0.742684	-1.308938
H	-0.385208	-0.859339	0.538889
H	0.189741	0.633253	-2.010663
N	-0.324773	1.204951	0.855993
O	-0.417636	1.021142	2.066891
O	-0.312554	2.303746	0.30387
N	-0.853804	-1.212504	-1.883786
H	-1.770147	-1.4084	-1.467413
H	-1.000074	-1.149908	-2.885629
H	-2.993561	0.0	0.0
