13

C	0.0	0.0	0.0
C	-0.436795	-0.345204	-1.406467
F	1.358619	0.0	0.0
H	-0.238367	0.526526	-2.046455
H	-0.366902	-0.755382	0.714689
H	-1.516823	-0.509093	-1.369183
N	-0.588699	1.255174	0.446641
O	-1.752296	1.426205	-0.131949
O	-0.325529	1.592884	1.633201
N	0.248503	-1.576046	-1.825896
H	1.238185	-1.381415	-1.921627
H	-0.097636	-1.840996	-2.740507
H	-2.837269	0.0	0.0
