13

C	0.0	0.0	0.0
C	-0.423019	-0.363573	-1.404205
F	1.360546	0.0	0.0
H	-0.134465	-1.419541	-1.552305
H	-0.37666	-0.746391	0.717631
H	-1.511595	-0.298268	-1.432982
N	-0.581981	1.253401	0.475041
O	-0.290316	1.551583	1.665662
O	-1.745416	1.455461	-0.072868
N	0.191368	0.545224	-2.371368
H	-0.192623	0.361112	-3.289385
H	1.18646	0.36399	-2.407316
H	-2.842772	0.0	0.0
