13

C	0.0	0.0	0.0
C	-0.444885	-0.487803	-1.389573
F	1.367527	0.0	0.0
H	-0.433274	-1.582938	-1.321633
H	-0.390656	-0.544518	0.855684
H	0.381855	-0.198735	-2.048028
N	-0.336121	1.449222	0.247091
O	-0.64249	1.77329	1.39126
O	-0.164407	2.222373	-0.694324
N	-1.695623	-0.055921	-1.958367
H	-2.458597	-0.142794	-1.240304
H	-1.625404	0.938874	-2.141952
H	-3.447754	0.0	0.0
