15

C	-0.311177	0.0674	0.078743
C	-0.423805	0.133346	-1.445484
F	0.58258	-0.906207	0.439138
H	-0.632148	-0.891662	-1.744515
H	-1.349018	-0.160645	0.394071
N	0.158905	1.353265	0.684362
O	1.260903	1.390281	1.222142
O	-0.624885	2.297857	0.600875
N	0.914821	0.477828	-2.036848
O	1.520055	-0.392519	-2.661124
O	1.315337	1.628239	-1.859607
N	-1.439557	0.990828	-1.963854
H	-2.278368	0.530259	-1.535417
H	-1.342096	1.900021	-1.524663
F	-2.85679	-0.543805	-0.402511
