14

C	0.0	0.0	0.0
C	-0.290689	-0.023652	-1.511723
Br	1.944613	0.0	0.0
H	0.304778	0.734733	-2.017681
H	-0.365916	-0.89273	0.487794
C	-0.472106	1.224275	0.627086
N	-0.572883	2.265586	1.165642
N	-1.691814	0.1988	-2.060863
O	-2.298644	-0.77111	-2.48806
O	-1.971649	1.376081	-2.235113
N	0.145825	-1.3284	-2.11368
O	0.476411	-1.273762	-3.296934
O	0.104038	-2.34052	-1.425026
F	-2.279444	0.0	0.0
