14

C	0.0	0.0	0.0
C	-0.295834	-0.220471	-1.491795
Br	1.936275	0.0	0.0
H	0.406645	-0.958782	-1.872751
H	-0.331393	-0.882582	0.536632
C	-0.500083	1.204397	0.64488
N	-0.586747	2.200999	1.266882
N	-0.040683	0.987929	-2.340871
O	-0.353874	2.090499	-1.913569
O	0.455694	0.751817	-3.442916
N	-1.629349	-0.789685	-1.917972
O	-2.335214	-0.125561	-2.660382
O	-1.744852	-1.980996	-1.666905
F	-2.278024	0.0	0.0
