14

C	0.0	0.0	0.0
C	-0.525494	0.176107	-1.415712
Br	2.017096	0.0	0.0
H	-1.615699	0.327022	-1.297165
H	-0.323879	-0.718941	-2.002446
C	-0.346366	1.09405	0.910675
N	-0.561424	1.922051	1.715887
N	-0.5034	-1.21088	0.484039
H	-0.646313	-1.267772	1.477759
H	-0.103717	-2.036174	0.069105
N	0.066601	1.315361	-2.150553
O	0.14052	2.392233	-1.561444
O	0.411785	1.114662	-3.31685
Cl	-3.594979	0.0	0.0
