14

C	0.0	0.0	0.0
C	-0.481208	-0.161377	-1.443132
Br	1.966066	0.0	0.0
H	-1.570863	-0.007892	-1.420536
H	-0.233108	-1.161052	-1.79672
C	-0.365882	1.295529	0.589941
N	-0.589703	2.335725	1.087178
N	-0.490946	-1.046446	0.851903
H	-1.512185	-0.913081	0.88744
H	-0.303018	-1.943304	0.41353
N	0.116616	0.782376	-2.419654
O	0.545163	0.304981	-3.471335
O	0.120202	1.976018	-2.129822
Cl	-3.458517	0.0	0.0
