17

C	-0.357634	-0.242465	-1.466302
C	0.0	0.0	0.0
F	-1.652984	-0.729613	-1.633206
H	1.110023	0.0	0.0
C	-0.28053	1.048893	-2.182312
N	-0.192364	2.024449	-2.83008
C	0.648623	-1.192494	-2.103283
H	0.455474	-2.199704	-1.740541
H	0.552645	-1.160553	-3.190036
H	1.643373	-0.880043	-1.770135
N	-0.484213	-1.090379	0.875405
O	-0.288355	-2.239153	0.490172
O	-1.003023	-0.786377	1.94788
N	-0.584366	1.2583	0.529802
O	0.088803	1.89394	1.335762
O	-1.713569	1.566842	0.140193
F	2.505583	0.0	0.0
