17

C	-0.354914	-0.082551	-1.475613
C	0.0	0.0	0.0
F	-1.70877	-0.360686	-1.677584
H	1.0909	0.0	0.0
C	-0.059109	1.207115	-2.129773
N	0.188839	2.15765	-2.772614
C	0.502657	-1.149796	-2.142244
H	0.163277	-2.135251	-1.826796
H	0.421515	-1.061588	-3.22685
H	1.529453	-0.994021	-1.79764
N	-0.529458	-1.19387	0.709772
O	-1.540332	-1.067326	1.400133
O	0.079707	-2.246675	0.534231
N	-0.546277	1.185285	0.698206
O	-0.158864	1.342239	1.852747
O	-1.328315	1.927956	0.101354
F	2.493939	0.0	0.0
