17

C	-0.338634	-0.236888	-1.457683
C	0.0	0.0	0.0
F	-1.708994	-0.396458	-1.673622
H	1.109796	0.0	0.0
C	0.115668	0.90916	-2.269297
N	0.493176	1.721425	-3.027988
C	0.406442	-1.473637	-1.940774
H	1.445859	-1.367068	-1.619908
H	-0.026593	-2.364377	-1.485752
H	0.328839	-1.546925	-3.026641
N	-0.542512	-1.115746	0.818244
O	-1.67451	-0.992698	1.28897
O	0.168761	-2.112224	0.935512
N	-0.539424	1.251826	0.565963
O	-1.103828	2.051808	-0.181499
O	-0.341065	1.422465	1.766064
F	2.480526	0.0	0.0
