17

C	-0.352415	0.082025	-1.492884
C	0.0	0.0	0.0
F	-0.23521	-1.235238	-1.954306
H	1.102306	0.0	0.0
C	-1.736728	0.497272	-1.790524
N	-2.816948	0.829257	-2.111195
C	0.678213	0.915198	-2.230802
H	0.600395	0.702825	-3.299448
H	1.654236	0.629781	-1.823836
H	0.506806	1.975378	-2.050945
N	-0.622939	-1.215825	0.582722
O	-1.85396	-1.220469	0.649482
O	0.11379	-2.136879	0.918479
N	-0.474419	1.157256	0.771858
O	-0.586697	1.013563	1.985929
O	-0.655147	2.210854	0.16028
F	2.511053	0.0	0.0
