17
Coordinates from ORCA-job run
  C   -0.52241984655623      0.47865708975873     -0.35536600735169
  C   0.91524929753946     -0.03109575398100     -0.16900041069207
  F   -0.39574377929001      1.56011818821975     -1.22115490232291
  H   1.42178297808373     -0.09090619623300     -1.12989434161796
  N   -1.01970418394083      0.99875267186447      0.87805263858573
  H   -1.96642741932697      1.33638193535883      0.75359549572372
  H   -1.00765675062168      0.28481996771126      1.59576141086783
  C   -1.38010644257447     -0.54406706019020     -1.08219142445525
  H   -1.60650471424201     -1.39511396034752     -0.44134614294138
  H   -2.31529913941649     -0.05443251744370     -1.36215967732799
  H   -0.89377122610803     -0.89093889065574     -1.99745701020585
  N   0.99940844512218     -1.37850265502929      0.46575708273878
  O   0.16329100826658     -1.66846628640179      1.31827297625585
  O   1.93559326995709     -2.08321178241380      0.09673561156114
  N   1.70799251630902      0.92318912527510      0.68508397820546
  O   2.14901185394991      1.89563373437229      0.08992832688254
  O   1.81630413284876      0.66118239013562      1.87538239609404
