17

C	0.0	0.0	0.0
C	-0.380743	0.184841	-1.537171
Cl	1.767827	0.0	0.0
H	0.478747	0.704884	-1.966551
N	-0.274259	1.386007	0.719506
O	-0.662706	1.336572	1.880948
O	-0.032562	2.419457	0.103439
N	-0.658425	-1.033027	0.635782
H	-1.689455	-0.774552	0.495634
H	-0.439903	-1.033335	1.624824
N	-1.546977	0.947101	-1.903168
H	-2.322621	0.631743	-1.28864
H	-1.3662	1.922241	-1.700456
N	-0.413943	-1.168808	-2.081465
H	-1.034004	-1.715203	-1.492911
H	-0.876419	-1.065037	-2.978669
F	-2.959757	0.0	0.0
