17

C	0.0	0.0	0.0
C	-0.510107	0.107889	-1.461401
Cl	1.76351	0.0	0.0
H	-1.580742	0.288231	-1.283844
N	-0.398639	1.270339	0.786577
O	-0.656031	1.157135	1.972025
O	-0.371151	2.341619	0.179034
N	-0.554334	-1.090294	0.698592
H	-0.392418	-1.883668	0.08448
H	-1.584901	-0.854413	0.622891
N	-0.342201	-1.211981	-2.064445
H	0.414193	-1.14536	-2.734937
H	-1.195775	-1.478979	-2.535326
N	0.188861	1.094809	-2.291283
H	0.26232	1.950644	-1.755403
H	-0.42941	1.297318	-3.07072
F	-2.826166	0.0	0.0
