17

C	0.0	0.0	0.0
C	-0.523405	-0.031284	-1.499806
Cl	1.777622	0.0	0.0
H	0.374877	0.017883	-2.122023
N	-0.239535	1.459272	0.621283
O	0.29846	2.417071	0.088631
O	-0.920569	1.504094	1.642415
N	-0.591636	-0.973517	0.792651
H	-0.336901	-0.823795	1.761622
H	-1.618123	-0.768138	0.671328
N	-1.343727	1.12864	-1.778782
H	-1.638289	1.026848	-2.743606
H	-2.173191	0.983424	-1.182581
N	-1.24067	-1.260407	-1.815219
H	-0.741266	-2.052902	-1.423477
H	-2.11326	-1.164422	-1.287164
F	-2.935691	0.0	0.0
