17

C	0.0	0.0	0.0
C	-0.522311	0.164015	-1.443238
Cl	1.755171	0.0	0.0
H	-1.544469	0.514423	-1.276472
N	-0.342377	1.330671	0.774697
O	-0.240143	1.259888	1.998963
O	-0.671078	2.332888	0.155682
N	-0.594397	-1.091092	0.637035
H	-0.359386	-1.067042	1.621225
H	-1.636217	-0.849319	0.499609
N	-0.544433	-1.150404	-2.09809
H	-1.508317	-1.328757	-2.352493
H	-0.331537	-1.849406	-1.393652
N	0.27475	1.123444	-2.202837
H	0.7294	0.602229	-2.94546
H	-0.345448	1.814912	-2.602806
F	-2.826719	0.0	0.0
