17

C	0.0	0.0	0.0
C	-0.289371	0.018132	-1.559623
Cl	1.844878	0.0	0.0
H	0.564537	0.534267	-2.003638
N	-0.247743	1.437243	0.585066
O	-0.764926	1.491318	1.69738
O	0.120632	2.397438	-0.076615
N	-0.658998	-0.985843	0.69446
H	-1.696398	-0.744825	0.493238
H	-0.500702	-0.867243	1.689561
N	-1.482387	0.726916	-1.934342
H	-1.707608	0.403081	-2.867757
H	-2.251355	0.481947	-1.281302
N	-0.250577	-1.353955	-2.079828
H	-0.930202	-1.892209	-1.548726
H	0.658852	-1.756646	-1.866566
F	-2.95969	0.0	0.0
