17

C	0.0	0.0	0.0
C	-0.500622	-0.334748	-1.484048
Cl	1.767155	0.0	0.0
H	0.400157	-0.391474	-2.102017
N	-0.311422	1.492117	0.299037
O	0.118137	2.308981	-0.514958
O	-0.925761	1.77361	1.315504
N	-0.533989	-0.749023	1.068979
H	-0.421698	-1.718709	0.788084
H	-1.551985	-0.535945	0.986433
N	-1.426967	0.582113	-2.113111
H	-0.998523	1.494693	-2.203217
H	-2.219855	0.630198	-1.453757
N	-1.094952	-1.664989	-1.382876
H	-1.322739	-1.927068	-2.337371
H	-1.990227	-1.461178	-0.919199
F	-2.87851	0.0	0.0
