17

C	0.0	0.0	0.0
C	-0.532561	-0.054085	-1.483133
Cl	1.777184	0.0	0.0
H	0.335892	-0.034795	-2.146789
N	-0.290587	1.43155	0.582929
O	-1.098016	1.513836	1.496745
O	0.326486	2.366865	0.094162
N	-0.548542	-0.920637	0.91779
H	-0.47675	-1.822837	0.455638
H	-1.55967	-0.671081	0.899676
N	-1.36101	1.102348	-1.773028
H	-2.199247	0.948473	-1.185467
H	-1.634053	1.041538	-2.748818
N	-1.185986	-1.361296	-1.623144
H	-2.085084	-1.207976	-1.144213
H	-1.383952	-1.488369	-2.610738
F	-2.963196	0.0	0.0
