17

C	0.0	0.0	0.0
C	-0.471762	-0.192192	-1.457925
Cl	1.822555	0.0	0.0
H	-1.554184	-0.035763	-1.329998
N	-0.379952	1.397277	0.521713
O	-0.643499	2.274912	-0.298463
O	-0.344092	1.566386	1.730859
N	-0.552915	-0.92432	0.897499
H	-1.58693	-0.695214	0.77322
H	-0.40129	-1.827598	0.456274
N	-0.22658	-1.58866	-1.800659
H	0.627998	-1.618177	-2.346308
H	-0.992194	-1.932808	-2.365275
N	0.196406	0.663278	-2.444598
H	-0.396784	0.649497	-3.268714
H	0.156446	1.615127	-2.099127
F	-2.804312	0.0	0.0
