17

C	0.0	0.0	0.0
C	-0.470864	-0.135677	-1.511516
Cl	1.836969	0.0	0.0
H	0.438744	-0.015079	-2.10271
N	-0.187857	1.534412	0.426506
O	-0.671823	1.740121	1.533534
O	0.199071	2.412865	-0.338777
N	-0.598657	-0.83766	0.905222
H	-0.349685	-0.566942	1.84884
H	-1.631577	-0.661725	0.737292
N	-1.442841	0.819226	-2.003841
H	-1.053385	1.751867	-1.972759
H	-2.238186	0.744749	-1.35224
N	-0.955129	-1.499893	-1.676263
H	-1.827825	-1.510814	-1.148196
H	-1.232147	-1.542891	-2.653968
F	-2.894491	0.0	0.0
