17

C	0.0	0.0	0.0
C	-0.260832	-0.262567	-1.549362
Cl	1.810386	0.0	0.0
H	0.488917	0.324717	-2.086694
N	-0.365951	1.450616	0.322785
O	-0.175447	2.269352	-0.575489
O	-0.778538	1.715369	1.440843
N	-0.622322	-0.842719	0.915808
H	-0.53702	-1.768721	0.501675
H	-1.639293	-0.568804	0.809655
N	-1.55016	0.060683	-2.087802
H	-2.27524	-0.102278	-1.345444
H	-1.567976	1.05986	-2.247447
N	-0.045708	-1.709317	-1.713214
H	0.919359	-1.894617	-1.956584
H	-0.638655	-1.970309	-2.491841
F	-2.977538	0.0	0.0
