12

C	-0.522113	0.06669	-1.416213
C	0.0	0.0	0.0
Br	0.083505	-1.587157	-2.42195
H	1.092701	0.0	0.0
H	0.002824	0.856944	-1.950506
H	-0.306539	0.936496	0.48428
N	-1.931066	0.247607	-1.505192
H	-2.244153	0.206753	-2.467539
H	-2.403114	-0.484459	-0.986839
C	-0.568915	-1.106533	0.743624
N	-1.027922	-2.004625	1.348752
F	2.562904	0.0	0.0
