12

C	-0.085155	-0.453155	-1.462738
C	0.0	0.0	0.0
Br	-0.783053	1.534102	-2.611376
H	1.093607	0.0	0.0
H	-0.963265	-0.945967	-1.862861
H	-0.434371	0.980896	0.1688
N	1.107033	-0.878925	-1.86729
H	1.212404	-1.230283	-2.804352
H	1.949989	-0.552946	-1.287167
C	-0.558826	-1.013323	0.879827
N	-1.01089	-1.849401	1.573306
F	2.6939	0.0	0.0
