18

C	-0.285468	0.168802	-1.501122
C	0.0	0.0	0.0
Cl	-0.457223	1.978262	-1.977955
H	1.097663	0.0	0.0
N	0.666557	-0.505619	-2.239864
H	1.608656	-0.371632	-1.87458
H	0.592011	-0.383332	-3.238197
N	-1.679165	-0.341786	-1.877021
O	-1.80843	-0.872932	-2.975271
O	-2.583525	-0.144272	-1.073409
N	-0.439158	-1.353709	0.3451
H	0.314036	-1.830625	0.822463
H	-1.248908	-1.31681	0.950641
C	-0.510753	1.078713	0.939341
H	-0.222669	0.7947	1.954151
H	-1.59725	1.169982	0.886818
H	-0.060851	2.046126	0.724396
Cl	3.402787	0.0	0.0
