18

C	-0.608124	-0.035797	-1.414373
C	0.0	0.0	0.0
Cl	0.243023	-1.282647	-2.374074
H	1.096939	0.0	0.0
N	-2.012607	-0.273178	-1.449105
H	-2.495617	0.614251	-1.397343
H	-2.211664	-0.840516	-0.629578
N	-0.328099	1.317658	-2.077869
O	0.803277	1.533795	-2.478583
O	-1.257503	2.129169	-2.084855
N	-0.503932	-1.218494	0.666027
H	0.089478	-1.987768	0.367277
H	-0.328131	-1.109782	1.659135
C	-0.478935	1.219603	0.772736
H	-0.053526	1.176671	1.778792
H	-0.121177	2.145041	0.320497
H	-1.56934	1.251999	0.85164
Cl	3.452823	0.0	0.0
