18

C	-0.243481	0.035797	-1.521943
C	0.0	0.0	0.0
Cl	-2.001068	0.13908	-1.945319
H	1.096781	0.0	0.0
N	0.459502	1.106569	-2.08886
H	0.509234	1.014361	-3.096806
H	1.408698	1.106346	-1.705753
N	0.162464	-1.310987	-2.238418
O	-0.051307	-2.383787	-1.683116
O	0.639721	-1.18487	-3.3636
N	-0.526294	-1.107045	0.764574
H	-0.051242	-1.957783	0.497725
H	-1.510502	-1.227194	0.549412
C	-0.482124	1.302166	0.62659
H	-0.104167	1.328474	1.647833
H	-0.123634	2.174752	0.086595
H	-1.57371	1.332988	0.65941
Cl	3.374681	0.0	0.0
