18

C	-0.286301	0.042657	-1.525515
C	0.0	0.0	0.0
Cl	-1.93079	0.639327	-1.896849
H	1.097391	0.0	0.0
N	0.663204	0.788718	-2.294445
H	1.596766	0.557058	-1.945128
H	0.50577	1.774676	-2.12771
N	-0.209759	-1.408973	-2.019752
O	0.917136	-1.797689	-2.301382
O	-1.223068	-2.101737	-2.003015
N	-0.50006	-1.146954	0.72836
H	-1.45009	-1.36791	0.452928
H	0.085218	-1.952547	0.54628
C	-0.44755	1.284413	0.681865
H	0.038767	1.321826	1.657021
H	-1.530721	1.301155	0.826437
H	-0.154081	2.173032	0.117994
Cl	3.409524	0.0	0.0
