18

C	-0.287186	0.096767	-1.494654
C	0.0	0.0	0.0
Cl	-2.025403	0.354968	-1.858003
H	1.099721	0.0	0.0
N	0.490344	1.133762	-2.057976
H	0.444997	1.103956	-3.0687
H	1.454304	1.033149	-1.734416
N	0.054122	-1.239481	-2.234497
O	0.52926	-2.172722	-1.599399
O	-0.101711	-1.222607	-3.453189
N	-0.629899	-1.158262	0.622197
H	0.005051	-1.942234	0.55068
H	-0.735334	-0.952732	1.606284
C	-0.467734	1.267849	0.700197
H	-1.557004	1.267925	0.796779
H	-0.019798	1.296571	1.697709
H	-0.154718	2.158289	0.158192
Cl	3.41973	0.0	0.0
