18

C	-0.41124	-0.02307	-1.484825
C	0.0	0.0	0.0
Cl	0.362709	1.299803	-2.356171
H	1.094722	0.0	0.0
N	-0.144978	-1.257457	-2.158454
H	0.857994	-1.274638	-2.326502
H	-0.341276	-1.977044	-1.465806
N	-1.933582	0.191645	-1.523476
O	-2.593313	-0.793326	-1.195633
O	-2.398227	1.29923	-1.768729
N	-0.382655	-1.274965	0.609892
H	0.341969	-1.540587	1.263997
H	-1.263229	-1.19943	1.102534
C	-0.513737	1.217568	0.754015
H	-0.264614	2.148953	0.244164
H	-0.049156	1.237138	1.74236
H	-1.602153	1.174693	0.88307
Cl	3.398369	0.0	0.0
