17

C	0.0	0.0	0.0
C	-0.2919	-0.238662	-1.494221
F	1.374778	0.0	0.0
H	0.343816	0.509713	-1.977574
C	-0.402871	1.353889	0.528563
H	0.101201	1.493744	1.485947
H	-1.488746	1.354518	0.610217
H	-0.050482	2.109012	-0.17811
N	-0.446362	-1.122247	0.900624
O	-0.387891	-0.885869	2.103396
O	-0.712204	-2.205044	0.397046
N	-1.655983	0.072604	-2.072634
O	-1.860683	1.26603	-2.256682
O	-2.311266	-0.85684	-2.516852
C	0.180083	-1.533375	-1.989534
N	0.671018	-2.476009	-2.488522
F	-2.487803	0.0	0.0
