17

C	0.0	0.0	0.0
C	-0.452274	-0.276773	-1.44078
F	1.380231	0.0	0.0
H	0.273491	-0.969708	-1.868509
C	-0.386704	1.31743	0.620958
H	-1.464578	1.422313	0.570091
H	0.139497	2.103902	0.074798
H	-0.033936	1.31788	1.652029
N	-0.377045	-1.198184	0.843786
O	-0.535117	-1.033319	2.045179
O	-0.358795	-2.2827	0.265671
N	-0.235237	1.007437	-2.209095
O	0.925851	1.232456	-2.557924
O	-1.190583	1.749713	-2.399914
C	-1.811184	-0.785885	-1.68688
N	-2.515639	-1.392102	-2.419104
F	-2.516517	0.0	0.0
