14

C	0.0	0.0	0.0
C	-0.427021	0.431866	-1.459078
Cl	1.782572	0.0	0.0
H	0.508323	0.602573	-1.998995
H	-0.360322	-0.99195	0.256653
C	-0.41746	0.994973	0.983273
N	-0.612398	1.835363	1.780611
N	-1.25707	1.553744	-1.67128
H	-2.121215	1.453513	-1.132447
H	-0.762918	2.401843	-1.427493
N	-0.973307	-0.80501	-2.174
O	-0.523577	-1.886233	-1.797841
O	-1.700562	-0.633949	-3.137365
Br	-3.491759	0.0	0.0
