14

C	0.0	0.0	0.0
C	-0.558769	0.014733	-1.416698
Cl	1.785547	0.0	0.0
H	-1.644581	0.164779	-1.291729
H	-0.339872	-0.940382	0.43345
C	-0.415353	1.106213	0.864271
N	-0.597391	1.967794	1.64063
N	-0.28074	-1.206377	-2.083618
H	0.639622	-1.186663	-2.503084
H	-0.96745	-1.362436	-2.808136
N	-0.026049	1.238237	-2.154149
O	0.597648	1.055746	-3.200866
O	-0.264854	2.333129	-1.655327
Br	-3.608584	0.0	0.0
