14

C	0.0	0.0	0.0
C	-0.457503	-0.26417	-1.453353
Cl	1.780607	0.0	0.0
H	0.076428	0.425477	-2.108847
H	-0.358725	-0.795498	0.654814
C	-0.471185	1.306334	0.439546
N	-0.774854	2.39296	0.767429
N	-1.837914	-0.265033	-1.738655
H	-2.446864	-0.660863	-1.019897
H	-2.19066	0.668195	-1.899382
N	0.087932	-1.633419	-1.817019
O	0.702661	-1.73973	-2.87438
O	-0.169889	-2.549075	-1.039353
Br	-4.549201	0.0	0.0
