14

C	0.0	0.0	0.0
C	-0.44938	-0.069524	-1.475472
Cl	1.779937	0.0	0.0
H	0.100677	0.684501	-2.040456
H	-0.357878	-0.875433	0.542535
C	-0.467272	1.241668	0.603945
N	-0.751892	2.289801	1.050707
N	-1.822588	-0.01925	-1.757452
H	-2.481457	-0.348417	-1.044676
H	-2.131055	0.896873	-2.043822
N	0.097137	-1.393013	-2.012602
O	-0.090691	-2.393192	-1.325917
O	0.626205	-1.370954	-3.119142
Br	-4.542324	0.0	0.0
