17

C	0.0	0.0	0.0
C	-0.309754	0.06406	-1.51417
Cl	1.769718	0.0	0.0
H	0.274101	-0.761013	-1.92956
N	-0.487087	1.213577	0.757994
O	-0.739436	2.221916	0.117528
O	-0.489343	1.112399	1.977263
C	-0.434558	-1.289094	0.669183
H	-0.061984	-2.128677	0.078522
H	-1.527603	-1.246389	0.684825
H	0.002427	-1.325843	1.666818
C	0.171014	1.276863	-2.179034
N	0.624928	2.155679	-2.812135
N	-1.704935	-0.253721	-2.033207
O	-2.35546	0.660205	-2.51361
O	-1.932162	-1.45322	-2.140285
F	-2.542109	0.0	0.0
