16

C	0.0	0.0	0.0
C	-0.400536	0.087344	-1.47827
F	1.423949	0.0	0.0
H	-1.496681	0.140123	-1.439062
N	-0.519148	1.029577	0.820923
H	-1.542915	0.807415	0.822723
H	-0.432469	1.879707	0.267922
C	-0.352381	-1.329795	0.55529
N	-0.470317	-2.404887	1.01183
N	-0.005675	-1.070117	-2.281031
H	0.911549	-1.386181	-1.982069
H	-0.657729	-1.824963	-2.094955
N	0.138852	1.340786	-1.986093
H	-0.229087	1.464645	-2.921466
H	1.144722	1.240171	-2.070853
H	-2.991082	0.0	0.0
