16

C	0.0	0.0	0.0
C	-0.45679	-0.033679	-1.476357
F	1.417521	0.0	0.0
H	0.186983	-0.791498	-1.948612
N	-0.540209	1.092054	0.662355
H	-0.248355	1.208705	1.618162
H	-0.499796	1.918611	0.084088
C	-0.331532	-1.273162	0.678708
N	-0.507004	-2.306103	1.207384
N	-0.195156	1.311774	-2.012406
H	-0.872085	1.431957	-2.755603
H	0.739931	1.361847	-2.397166
N	-1.830744	-0.369545	-1.699463
H	-2.534569	-0.036366	-0.977773
H	-1.948227	-1.375691	-1.706116
H	-3.900883	0.0	0.0
