16

C	0.0	0.0	0.0
C	-0.280636	0.092081	-1.547294
F	1.386762	0.0	0.0
H	0.126425	-0.860948	-1.92657
N	-0.539932	1.098124	0.718281
H	-0.389987	0.954425	1.712897
H	-1.560783	1.051006	0.565278
C	-0.355656	-1.343005	0.529632
N	-0.537647	-2.416773	0.971038
N	0.517306	1.153189	-2.165883
H	1.450613	1.166351	-1.770817
H	0.050491	2.018352	-1.918173
N	-1.648769	0.329949	-1.87927
H	-1.896696	-0.160484	-2.727808
H	-2.347853	0.106317	-1.12295
H	-3.31447	0.0	0.0
