16

C	0.0	0.0	0.0
C	-0.372721	0.124017	-1.523925
F	1.373654	0.0	0.0
H	0.461093	-0.404124	-2.005562
N	-0.588909	1.013012	0.803583
H	-1.614761	0.865689	0.674572
H	-0.379215	0.833253	1.781348
C	-0.329095	-1.389015	0.452098
N	-0.477709	-2.490283	0.833812
N	-0.313797	1.538197	-1.884942
H	-0.622456	2.088033	-1.090111
H	-0.999087	1.648567	-2.623828
N	-1.598014	-0.494032	-1.976618
H	-1.488237	-1.504355	-1.956214
H	-2.358483	-0.270353	-1.296685
H	-3.220534	0.0	0.0
