16

C	0.0	0.0	0.0
C	-0.281773	0.041048	-1.550415
F	1.386647	0.0	0.0
H	0.130683	-0.919863	-1.89897
N	-0.546371	1.115328	0.680939
H	-1.569149	1.056826	0.532039
H	-0.395615	1.006337	1.679425
C	-0.348579	-1.328201	0.571763
N	-0.522376	-2.375896	1.074803
N	0.507418	1.08801	-2.205202
H	1.436494	1.138726	-1.803456
H	0.022236	1.955601	-2.007664
N	-1.653703	0.249491	-1.894479
H	-1.908111	-0.322044	-2.688069
H	-2.346658	0.087167	-1.118844
H	-3.313345	0.0	0.0
