12

C	0.0	0.0	0.0
C	-0.506275	0.003533	-1.44541
F	1.369606	0.0	0.0
H	-1.710923	-0.001236	-1.063133
H	-0.369381	-0.914245	0.470304
C	-0.499617	1.175204	0.755235
N	-0.619262	2.173195	1.357068
C	-0.093541	-1.20878	-2.123687
N	0.230928	-2.214431	-2.646618
C	-0.080579	1.182766	-2.169498
N	0.266291	2.142441	-2.756859
H	-2.520518	0.0	0.0
