12

C	0.0	0.0	0.0
C	-0.416418	-0.089289	-1.459714
F	1.374359	0.0	0.0
H	0.085285	0.74873	-1.969747
H	-0.346582	-0.857168	0.565996
C	-0.507929	1.241815	0.614437
N	-0.52802	2.288841	1.148517
C	-1.934915	0.043526	-1.60261
N	-2.638926	0.172885	-2.572136
C	0.143613	-1.306124	-2.057101
N	0.610504	-2.246724	-2.585003
H	-2.231586	0.0	0.0
