13

C	-0.66431	-0.007897	-1.345222
C	0.0	0.0	0.0
F	-2.126323	-0.004757	-1.088423
H	1.088542	0.0	0.0
H	-0.36453	0.8814	0.540795
H	-0.364537	-0.874878	0.551385
N	-0.393545	1.157862	-2.119928
H	-0.45981	1.968883	-1.520373
H	-1.089898	1.242282	-2.851408
N	-0.39568	-1.183619	-2.10529
H	-0.464946	-1.987166	-1.495949
H	-1.091421	-1.275377	-2.836592
F	2.748948	0.0	0.0
