18

C	-0.510341	-0.010733	-1.412481
C	0.0	0.0	0.0
Cl	-2.27259	-0.114666	-1.554431
H	1.096094	0.0	0.0
N	-0.015273	1.232353	-2.150462
O	-0.742023	2.21824	-2.167026
O	1.11796	1.150498	-2.604879
N	0.065641	-1.167615	-2.239603
O	-0.293275	-1.203214	-3.413096
O	0.839343	-1.934477	-1.691541
N	-0.462566	-1.233663	0.641438
H	-1.021558	-1.015137	1.457361
H	0.372574	-1.722346	0.942606
C	-0.425439	1.250962	0.749422
H	-1.513737	1.334204	0.861934
H	0.036507	1.196452	1.738547
H	-0.052838	2.159408	0.274676
F	2.57588	0.0	0.0
