18

C	-0.517104	0.019891	-1.410812
C	0.0	0.0	0.0
Cl	-2.25153	0.399266	-1.562067
H	1.092175	0.0	0.0
N	0.187728	1.019935	-2.326613
O	0.694662	2.00087	-1.804676
O	0.137448	0.780045	-3.528765
N	-0.23865	-1.341191	-2.055583
O	-1.173356	-2.069316	-2.348341
O	0.952715	-1.57389	-2.194456
N	-0.363448	-1.301857	0.563925
H	-1.118925	-1.221296	1.231949
H	0.463122	-1.649624	1.033582
C	-0.465544	1.168141	0.851386
H	-0.309724	2.125733	0.355901
H	0.1438	1.159258	1.758961
H	-1.523733	1.080608	1.130193
F	2.567889	0.0	0.0
