18

C	-0.477079	0.031784	-1.434179
C	0.0	0.0	0.0
Cl	0.354494	-1.166188	-2.397837
H	1.097347	0.0	0.0
N	-1.987302	-0.193079	-1.509242
O	-2.432939	-1.268681	-1.876336
O	-2.642693	0.75695	-1.087496
N	-0.279081	1.365406	-2.154012
O	0.537109	2.147833	-1.688339
O	-0.925896	1.521574	-3.185017
N	-0.359444	-1.332445	0.510545
H	-0.992939	-1.253947	1.293322
H	0.50095	-1.754542	0.831204
C	-0.513132	1.109434	0.901567
H	0.082293	1.054576	1.818026
H	-0.371732	2.101967	0.478188
H	-1.572489	0.985925	1.156293
F	2.584374	0.0	0.0
