18

C	-0.525667	0.051559	-1.407524
C	0.0	0.0	0.0
Cl	-2.2483	0.48296	-1.543814
H	1.091889	0.0	0.0
N	0.203319	1.045447	-2.311725
O	0.750873	1.997124	-1.776727
O	0.131057	0.829593	-3.517692
N	-0.288048	-1.30573	-2.070711
O	0.894531	-1.562611	-2.234111
O	-1.242957	-2.011068	-2.350134
N	-0.37381	-1.303917	0.549065
H	-1.143078	-1.226485	1.203993
H	0.443419	-1.656785	1.03345
C	-0.444532	1.164713	0.869479
H	-1.496097	1.079214	1.172095
H	0.187194	1.148897	1.761056
H	-0.296123	2.124835	0.376178
F	2.5693	0.0	0.0
