18

C	-0.374241	-0.002008	-1.464266
C	0.0	0.0	0.0
Cl	0.562075	-1.164125	-2.367079
H	1.094403	0.0	0.0
N	-1.86347	-0.267455	-1.757328
O	-2.181336	-0.488793	-2.919432
O	-2.636106	-0.198374	-0.807574
N	-0.153533	1.395642	-2.049227
O	-1.143871	2.12635	-2.080092
O	0.987133	1.704361	-2.352963
N	-0.425446	-1.276163	0.558084
H	0.330799	-1.612494	1.141145
H	-1.266466	-1.169936	1.11162
C	-0.438151	1.237894	0.768834
H	-1.522817	1.375094	0.805818
H	0.026822	2.139466	0.363092
H	-0.053961	1.123976	1.786025
F	2.589685	0.0	0.0
