18

C	-0.428407	-0.003138	-1.44066
C	0.0	0.0	0.0
Cl	0.419791	1.198898	-2.389655
H	1.094383	0.0	0.0
N	-0.150756	-1.387837	-2.044328
O	1.020833	-1.683931	-2.176305
O	-1.124992	-2.08378	-2.308715
N	-1.944128	0.178971	-1.672082
O	-2.329545	0.54712	-2.774268
O	-2.667059	-0.101399	-0.720725
N	-0.394866	-1.25813	0.614377
H	0.353332	-1.53109	1.23763
H	-1.264406	-1.177882	1.123612
C	-0.420717	1.259925	0.744178
H	0.116049	1.262715	1.695699
H	-0.120364	2.162507	0.20664
H	-1.496999	1.299454	0.941398
F	2.584554	0.0	0.0
