18

C	-0.345786	-0.005068	-1.469155
C	0.0	0.0	0.0
Cl	0.39302	1.33241	-2.329445
H	1.094838	0.0	0.0
N	0.142083	-1.325338	-2.093876
O	1.342141	-1.428859	-2.265376
O	-0.714831	-2.178753	-2.305469
N	-1.849798	-0.000988	-1.814231
O	-2.62914	-0.185992	-0.883488
O	-2.166415	0.160691	-2.986196
N	-0.416759	-1.270425	0.571262
H	0.282346	-1.546619	1.248989
H	-1.328548	-1.210876	1.007309
C	-0.47063	1.244855	0.736629
H	-1.561939	1.330214	0.777216
H	-0.050889	2.151305	0.296497
H	-0.086569	1.176544	1.758058
F	2.586865	0.0	0.0
