15

C	-0.405974	0.065454	-1.469429
C	0.0	0.0	0.0
Br	0.088225	-1.57453	-2.366122
H	1.106703	0.0	0.0
H	0.092047	0.877348	-1.990411
N	-1.876606	0.258724	-1.704024
O	-2.651683	-0.295422	-0.924879
O	-2.20188	0.924532	-2.678256
N	-0.455112	-1.073345	0.803507
H	-1.344874	-1.440721	0.50574
H	0.254147	-1.785263	0.871688
N	-0.411706	1.323865	0.628629
O	-0.898172	2.180947	-0.120518
O	-0.214792	1.466448	1.823853
Cl	3.236176	0.0	0.0
