15

C	-0.677615	0.088597	-1.361126
C	0.0	0.0	0.0
Br	-0.064835	1.556896	-2.43857
H	1.103804	0.0	0.0
H	-1.756453	0.181083	-1.246626
N	-0.472929	-1.211048	-2.09019
O	-1.488347	-1.890891	-2.236744
O	0.655412	-1.497255	-2.455426
N	-0.444727	-1.191887	0.641756
H	-1.370264	-1.089711	1.03635
H	0.227289	-1.474826	1.341484
N	-0.471459	1.253266	0.738806
O	0.305579	2.18701	0.884536
O	-1.644029	1.231876	1.133055
Cl	3.293252	0.0	0.0
