15

C	-0.574324	0.051496	-1.421528
C	0.0	0.0	0.0
Br	0.414627	1.203902	-2.591318
H	1.0915	0.0	0.0
H	-1.607297	0.386714	-1.419685
N	-0.615528	-1.350554	-1.970917
O	0.366174	-1.825264	-2.518225
O	-1.681269	-1.939165	-1.76468
N	-0.453304	-1.089103	0.800544
H	-1.257932	-1.573612	0.436151
H	0.30941	-1.724084	0.986004
N	-0.417414	1.294917	0.697469
O	0.061631	1.472255	1.80657
O	-1.206473	2.058888	0.132709
Cl	3.253767	0.0	0.0
