15

C	-0.393112	0.237649	-1.456516
C	0.0	0.0	0.0
Br	-0.082883	-1.346682	-2.518024
H	1.09379	0.0	0.0
H	0.180111	1.041722	-1.9055
N	-1.840511	0.60461	-1.627279
O	-2.120907	1.361586	-2.548706
O	-2.642404	0.102108	-0.841629
N	-0.46948	-1.144555	0.673659
H	-1.348692	-1.493942	0.331021
H	0.24437	-1.854152	0.720201
N	-0.396742	1.273636	0.7466
O	-0.483654	2.29932	0.063361
O	-0.547828	1.220527	1.955625
Cl	3.225533	0.0	0.0
