16

C	-0.561527	-0.03016	-1.436547
C	0.0	0.0	0.0
Br	-0.144495	-1.655441	-2.444932
H	1.090044	0.0	0.0
N	-2.00406	0.09776	-1.38436
H	-2.372001	0.14271	-2.328028
H	-2.191923	0.984571	-0.925122
C	0.073566	1.06655	-2.188338
N	0.467396	1.989422	-2.802118
N	-0.491711	-1.214629	0.756056
O	0.074849	-2.27807	0.542804
O	-1.434987	-1.061494	1.535471
N	-0.470947	1.217664	0.609115
H	-1.221088	1.005877	1.256416
H	0.299034	1.639687	1.113061
Cl	3.243749	0.0	0.0
