16

C	-0.317039	0.072188	-1.489444
C	0.0	0.0	0.0
Br	-2.24864	0.364104	-1.832329
H	1.104803	0.0	0.0
N	0.403859	1.235876	-1.964487
H	1.384018	1.120905	-1.68914
H	0.351725	1.284237	-2.975294
C	0.033303	-1.141543	-2.240587
N	0.366567	-1.996599	-2.976968
N	-0.48114	-1.241701	0.673966
O	-0.940414	-2.160939	-0.002473
O	-0.356415	-1.252162	1.89413
N	-0.537812	1.134905	0.716705
H	0.088909	1.315713	1.493389
H	-0.474027	1.929211	0.087972
Cl	3.231278	0.0	0.0
