16

C	-0.650052	-0.269983	-1.381444
C	0.0	0.0	0.0
Br	-0.226229	-2.076429	-2.01759
H	1.105272	0.0	0.0
N	-2.088824	-0.107934	-1.424708
H	-2.281503	0.861183	-1.189432
H	-2.504709	-0.6948	-0.709003
C	-0.066005	0.677801	-2.3357
N	0.323994	1.45591	-3.124673
N	-0.459133	-1.085661	0.94841
O	-1.58302	-0.939942	1.454732
O	0.271486	-2.047448	1.139715
N	-0.45438	1.293359	0.432689
H	-1.247056	1.205589	1.056698
H	0.31107	1.76013	0.903858
Cl	3.263517	0.0	0.0
