16

C	-0.399862	0.055573	-1.483498
C	0.0	0.0	0.0
Br	-2.39957	0.18018	-1.570433
H	1.108835	0.0	0.0
N	0.154796	1.223635	-2.110791
H	0.057364	1.975777	-1.434014
H	1.153223	1.050148	-2.227581
C	-0.045394	-1.116066	-2.28558
N	0.222198	-1.978195	-3.038281
N	-0.484637	-1.259679	0.676086
O	-1.022564	-1.1465	1.777941
O	-0.288365	-2.321175	0.093376
N	-0.407921	1.190135	0.66635
H	-1.338183	1.097409	1.053336
H	0.246272	1.387025	1.412821
Cl	3.204301	0.0	0.0
