16

C	-0.276787	0.059093	-1.52829
C	0.0	0.0	0.0
Br	-2.178806	0.550608	-1.896831
H	1.094425	0.0	0.0
N	0.569914	1.104629	-2.026638
H	1.52175	0.937897	-1.681738
H	0.574644	1.109158	-3.039692
C	-0.107285	-1.225576	-2.221423
N	0.038537	-2.193405	-2.875215
N	-0.562725	-1.268996	0.554573
O	-1.654893	-1.198623	1.116723
O	0.084883	-2.298135	0.374392
N	-0.4386	1.107844	0.769297
H	0.224934	1.861958	0.659752
H	-1.367646	1.413165	0.510815
Cl	3.254261	0.0	0.0
