11
Coordinates from ORCA-job run
  C   -0.53364191612304     -0.20477661127099      0.31859232750959
  C   0.92652296935063     -0.17607155570020     -0.19833160848760
  H   -0.52719242208071     -0.10972839928385      1.41065007803599
  H   1.45837625223594     -1.04821287175859      0.19095026790184
  H   0.93006482947814     -0.23822122202170     -1.28934959943637
  C   -1.15565786035675     -1.48732935257139     -0.03035684613883
  N   -1.61490803764339     -2.52963329157372     -0.31398666118616
  C   -1.30947555126766      0.91086954895303     -0.23524088588821
  N   -1.91135836292501      1.81247761314854     -0.68571920621017
  C   1.60363548380711      1.04411833243613      0.23294249876769
  N   2.13463461552473      2.02450780964274      0.59884963513223
