11
Coordinates from ORCA-job run
  C   -0.48368425506483     -0.24203514351809      0.36890734413018
  C   0.86467930915569     -0.16986603779405     -0.39086905512607
  H   -0.28321894039965     -0.35306029092529      1.44102497691336
  H   1.39618649098316     -1.11662527328949     -0.26289147940055
  H   0.67629626197942     -0.03065476671908     -1.45830141309781
  C   -1.24329212461375     -1.41379091212072     -0.08218644070886
  N   -1.81540502790415     -2.36816558812571     -0.45611619324359
  C   -1.26384093591168      0.98493835176398      0.17210389770037
  N   -1.86759407106994      1.97763609412579      0.00457681721939
  C   1.68560692648156      0.92606189474764      0.11714261019269
  N   2.33426636636418      1.80456167185501      0.54660893542089
