11
Coordinates from ORCA-job run
  C   -0.60729326123556      0.22713625145872      0.09299597699687
  C   0.86036472743104      0.16939090240433     -0.39958542540068
  H   -0.72247199750044      1.08012039910883      0.77188380824113
  H   0.99212476163026     -0.69350173672450     -1.05714003357795
  H   1.07609165523504      1.07087121901669     -0.97913960991788
  C   -0.96595353264406     -0.99343585668296      0.82422009348378
  N   -1.23307607138220     -1.97430702688908      1.41135537151807
  C   -1.50399109628275      0.42342096464544     -1.05204960150252
  N   -2.18791247782371      0.59553202994675     -1.99037173706239
  C   1.78271521028158      0.07907834865561      0.72925088408267
  N   2.51040208229080      0.01569450506017      1.64758027313890
