11
Coordinates from ORCA-job run
  C   -0.60607039283451     -0.27286948424478     -0.39976723015655
  C   0.92290297716943     -0.05860880463452     -0.50354936654462
  H   -0.94810119392549     -0.72654335587404     -1.33778950881213
  H   1.13248993074037      0.58247142297657     -1.36405006294731
  H   1.40534065851256     -1.02477980007447     -0.67415996275923
  C   -1.30602625872834      1.00604595030983     -0.23213150718478
  N   -1.84782973563218      2.04131950672350     -0.11992176828463
  C   -0.93688996235617     -1.19324190563194      0.69441043639927
  N   -1.18317928549584     -1.95389165744692      1.55401509158538
  C   1.46745967141251      0.55321894696410      0.70577182516403
  N   1.89990359113767      1.04587918093267      1.67917205354057
