11
Coordinates from ORCA-job run
  C   -0.57437530479812     -0.11954509470599     -0.29048910243692
  C   0.93358920825700     -0.23460679125371      0.04608970993256
  H   -0.68345409383376      0.21117435433088     -1.32993795188395
  H   1.05346526087210     -0.53674688034332      1.08936811833948
  H   1.38017026790830     -1.00914363277686     -0.58313746660001
  C   -1.23233818938715      0.86453569299230      0.57646137113437
  N   -1.73650814101476      1.66105218460462      1.27605087739595
  C   -1.21212668696343     -1.43428351279185     -0.15514667522866
  N   -1.68417674845554     -2.50419474195581     -0.05325924875161
  C   1.61297539743417      1.03742605580273     -0.18586180054659
  N   2.14277902998120      2.06433236609702     -0.39013783135460
