15

C	0.0	0.0	0.0
C	-0.490574	-0.08612	-1.436586
F	1.360914	0.0	0.0
H	-1.580333	-0.164858	-1.324025
H	-0.246589	0.91381	-1.844823
N	-0.587524	1.032521	0.751306
H	-1.622837	0.763752	0.651682
H	-0.460079	1.886695	0.21623
N	-0.290813	-1.325097	0.759514
O	0.352417	-2.300423	0.372805
O	-1.059906	-1.320947	1.707716
N	0.073083	-1.182111	-2.222147
H	1.084818	-1.138299	-2.178678
H	-0.201798	-1.049409	-3.189752
F	-2.85529	0.0	0.0
