15

C	0.0	0.0	0.0
C	-0.471733	0.013917	-1.448347
F	1.364853	0.0	0.0
H	-1.559925	-0.081205	-1.342841
H	-0.035939	-0.829355	-1.990208
N	-0.540944	0.995191	0.826443
H	-1.568901	0.761288	0.745342
H	-0.407754	1.85113	0.292825
N	-0.356705	-1.370866	0.603029
O	-0.756527	-1.439261	1.753251
O	-0.119308	-2.344362	-0.115799
N	-0.111935	1.320539	-2.019379
H	-0.829272	1.602758	-2.671889
H	0.764082	1.255287	-2.522728
F	-2.816838	0.0	0.0
