15

C	0.0	0.0	0.0
C	-0.457478	0.167391	-1.440367
F	1.401625	0.0	0.0
H	0.011031	-0.591536	-2.071452
H	-1.541827	0.024933	-1.362679
N	-0.532325	0.904827	0.92307
H	-0.398204	1.810647	0.480202
H	-1.562728	0.678863	0.817783
N	-0.332382	-1.426492	0.459366
O	-0.649348	-1.621982	1.623016
O	-0.161009	-2.3126	-0.379549
N	-0.138247	1.542141	-1.852722
H	0.695157	1.554413	-2.423955
H	-0.903481	1.908949	-2.400218
F	-2.796208	0.0	0.0
