15

C	0.0	0.0	0.0
C	-0.501819	-0.14054	-1.428843
F	1.351437	0.0	0.0
H	-0.300636	0.841117	-1.870836
H	-1.584494	-0.274884	-1.336397
N	-0.601512	1.070786	0.642163
H	-0.389011	1.019501	1.63285
H	-1.641874	0.851665	0.483618
N	-0.281958	-1.338608	0.790238
O	-0.627787	-2.353818	0.195317
O	-0.090902	-1.282529	2.00389
N	0.231476	-1.156142	-2.201073
H	0.070547	-0.96222	-3.18107
H	-0.20098	-2.050838	-2.00061
F	-2.858063	0.0	0.0
