15

C	-0.356841	0.018972	-1.470928
C	0.0	0.0	0.0
Cl	0.112335	-1.629827	-2.135548
H	1.088138	0.0	0.0
H	-0.451514	-0.840505	0.516683
N	-1.872367	0.045911	-1.723647
O	-2.565918	-0.670254	-1.011754
O	-2.269089	0.752628	-2.646841
N	0.245528	1.109407	-2.087127
H	1.224556	1.169189	-1.816772
H	0.122289	1.123011	-3.086683
N	-0.492322	1.253864	0.64013
O	-1.663138	1.252535	1.036702
O	0.282192	2.201728	0.720692
Cl	3.2957	0.0	0.0
