15

C	-0.709874	0.026957	-1.346513
C	0.0	0.0	0.0
Cl	-0.248927	1.578843	-2.10462
H	1.089446	0.0	0.0
H	-0.324451	0.874032	0.566775
N	-0.187931	-1.084179	-2.277037
O	-1.010192	-1.892984	-2.696199
O	1.005048	-1.062275	-2.520752
N	-2.130152	-0.07904	-1.310872
H	-2.495561	0.448107	-0.528417
H	-2.399713	-1.052322	-1.252031
N	-0.448606	-1.173289	0.788486
O	-0.670793	-1.005996	1.985874
O	-0.553113	-2.246485	0.192681
Cl	3.277659	0.0	0.0
