15

C	-0.673048	0.022534	-1.351398
C	0.0	0.0	0.0
Cl	-0.044123	1.511405	-2.204591
H	1.087971	0.0	0.0
H	-0.319658	0.887052	0.549202
N	-0.245825	-1.118133	-2.276645
O	-1.082113	-1.470252	-3.106608
O	0.89167	-1.533109	-2.164343
N	-2.074028	-0.024482	-1.236804
H	-2.415456	0.780212	-0.729256
H	-2.511717	-0.095226	-2.145492
N	-0.488516	-1.157284	0.795147
O	-0.758378	-0.946413	1.977023
O	-0.568584	-2.245723	0.233216
Cl	3.300477	0.0	0.0
