15

C	-0.398723	-0.202077	-1.454732
C	0.0	0.0	0.0
Cl	-2.09408	-0.772142	-1.620224
H	1.091138	0.0	0.0
H	-0.377044	-0.84145	0.576119
N	-0.360004	1.171314	-2.229954
O	0.690231	1.397357	-2.817737
O	-1.337217	1.902667	-2.173982
N	0.488392	-1.144995	-1.984244
H	0.389747	-1.247764	-2.98431
H	1.45068	-0.922095	-1.727431
N	-0.513228	1.229642	0.6352
O	-0.072278	2.302284	0.230179
O	-1.316504	1.095003	1.560668
Cl	3.266391	0.0	0.0
