15

C	-0.58933	0.361928	-1.351882
C	0.0	0.0	0.0
Cl	0.137569	1.778042	-2.082227
H	1.096866	0.0	0.0
H	-0.374845	-0.981002	0.285856
N	-0.261658	-0.879489	-2.272891
O	-0.812203	-1.914562	-1.898274
O	0.420363	-0.75259	-3.275301
N	-1.995746	0.535613	-1.266869
H	-2.399018	0.751648	-2.169596
H	-2.425451	-0.291825	-0.871976
N	-0.521706	0.939135	1.024569
O	-0.115908	2.09527	1.00967
O	-1.348403	0.486164	1.82209
Cl	3.289001	0.0	0.0
