15

C	-0.568587	0.17926	-1.396438
C	0.0	0.0	0.0
Cl	0.146641	1.514301	-2.276927
H	1.095992	0.0	0.0
H	-0.376106	-0.93766	0.404339
N	-0.192025	-1.155868	-2.151916
O	-0.697022	-2.155682	-1.642291
O	0.471435	-1.129341	-3.173742
N	-1.979824	0.328626	-1.365606
H	-2.402006	-0.443592	-0.865027
H	-2.366143	0.407784	-2.297727
N	-0.535564	1.061291	0.887733
O	-1.417809	0.722823	1.682557
O	-0.08277	2.195321	0.777347
Cl	3.292539	0.0	0.0
