13

C	0.0	0.0	0.0
C	-0.356702	0.158582	-1.49362
F	1.346753	0.0	0.0
H	-1.402917	0.441832	-1.573331
H	-0.236892	-0.83899	-1.931386
N	-0.334015	1.283015	0.768249
O	-0.510551	2.317115	0.132401
O	-0.236275	1.202629	1.988083
C	-0.793984	-1.086193	0.58801
N	-0.715839	-2.169074	1.093793
C	0.510485	1.086893	-2.212611
N	1.185496	1.80265	-2.853796
H	-2.23879	0.0	0.0
