13

C	0.0	0.0	0.0
C	-0.3298	0.007081	-1.509886
F	1.346984	0.0	0.0
H	-0.008044	0.967669	-1.915929
H	-1.409287	-0.089405	-1.620712
N	-0.363629	1.345713	0.626421
O	-0.429952	1.375072	1.851925
O	-0.384331	2.330256	-0.110477
C	-0.761735	-1.047154	0.697977
N	-0.815633	-2.105107	1.244833
C	0.381757	-1.06952	-2.191906
N	0.937283	-1.916172	-2.786652
H	-2.221162	0.0	0.0
