13

C	0.0	0.0	0.0
C	-0.22487	-0.081554	-1.533398
F	1.346853	0.0	0.0
H	0.219048	0.831376	-1.945714
H	-1.27897	-0.13823	-1.778962
N	-0.157222	1.524528	0.734068
O	-1.18111	1.827901	1.321848
O	0.858324	2.221026	0.629982
C	-0.451535	-1.099996	0.827839
N	-0.755737	-2.084624	1.402679
C	0.495133	-1.244242	-2.126683
N	0.976381	-2.197967	-2.630832
H	-1.964163	0.0	0.0
