16

C	-0.143884	-0.003151	-1.516281
C	0.0	0.0	0.0
Br	-2.058021	0.080443	-2.106084
H	1.096897	0.0	0.0
H	-0.378091	0.927536	0.437819
C	0.583056	1.227012	-2.037446
H	1.590487	1.158485	-1.607992
H	0.10141	2.145978	-1.69477
H	0.622248	1.234565	-3.128763
C	0.489758	-1.266995	-2.070401
H	-0.037254	-2.161714	-1.732315
H	1.509378	-1.267024	-1.66675
H	0.507171	-1.254477	-3.162895
C	-0.570851	-1.149423	0.668291
N	-1.029903	-2.082913	1.216533
F	2.64047	0.0	0.0
