16

C	-0.344364	0.052418	-1.493162
C	0.0	0.0	0.0
Br	0.080579	-1.717809	-2.283227
H	1.093488	0.0	0.0
H	-0.305104	0.96498	0.430218
C	-1.808508	0.319768	-1.793186
H	-1.994373	0.339188	-2.870744
H	-2.445395	-0.444341	-1.340219
H	-2.081513	1.294941	-1.372288
C	0.614642	1.057762	-2.120199
H	0.336573	2.063463	-1.77892
H	1.618608	0.830571	-1.742851
H	0.572317	1.033439	-3.211119
C	-0.651588	-1.057357	0.741558
N	-1.204231	-1.892063	1.35896
F	2.621815	0.0	0.0
