16

C	-0.350818	0.040647	-1.491763
C	0.0	0.0	0.0
Br	0.105377	-1.72692	-2.27386
H	1.093485	0.0	0.0
H	-0.30731	0.966795	0.424619
C	-1.822886	0.276447	-1.785394
H	-2.114909	1.246816	-1.365047
H	-2.017715	0.288912	-2.861646
H	-2.439179	-0.501303	-1.325933
C	0.58925	1.059384	-2.128905
H	0.543673	1.02755	-3.217798
H	0.29483	2.063559	-1.793679
H	1.596361	0.848176	-1.755235
C	-0.648376	-1.055009	0.748223
N	-1.205072	-1.891834	1.358557
F	2.617077	0.0	0.0
