16

C	-0.145666	-0.013074	-1.516655
C	0.0	0.0	0.0
Br	-2.059108	-0.099773	-2.103382
H	1.096849	0.0	0.0
H	-0.378983	-0.922432	0.4481
C	0.492949	1.242622	-2.085193
H	0.510877	1.217665	-3.178712
H	1.512446	1.24489	-1.680083
H	-0.033103	2.142088	-1.757373
C	0.579486	-1.250315	-2.02379
H	0.618319	-1.269583	-3.11561
H	1.586567	-1.178821	-1.59481
H	0.09389	-2.164482	-1.671215
C	-0.569803	1.15705	0.656057
N	-1.027739	2.09605	1.195278
F	2.642612	0.0	0.0
