15

C	0.0	0.0	0.0
C	-0.564455	0.097483	-1.403261
Br	1.967828	0.0	0.0
H	-1.645544	0.250989	-1.220577
H	-0.252371	0.918403	0.533276
H	-0.157711	0.987071	-1.897728
C	-0.532208	-1.182358	0.777571
H	-1.630147	-1.087152	0.728771
H	-0.200413	-1.151142	1.818866
H	-0.212945	-2.131226	0.340111
C	-0.364802	-1.137677	-2.27146
H	-0.953765	-1.974102	-1.890259
H	0.685602	-1.44048	-2.324083
H	-0.71083	-0.938549	-3.29003
H	-3.399833	0.0	0.0
