18

C	0.0	0.0	0.0
C	-0.215875	-0.037212	-1.567797
Br	1.967718	0.0	0.0
H	0.434563	0.750904	-1.9525
C	-0.783657	1.146183	0.491478
N	-0.804814	2.240128	0.97501
C	-0.259481	-1.263291	0.855934
H	0.074731	-1.026653	1.871349
H	0.320404	-2.105661	0.485188
H	-1.314364	-1.518343	0.866435
C	-1.574192	0.13442	-2.243004
H	-1.38175	0.180758	-3.326875
H	-2.034564	1.064215	-1.915912
H	-2.251279	-0.682647	-2.012056
N	0.355319	-1.282581	-2.187123
O	1.199268	-1.144007	-3.073676
O	-0.115424	-2.365981	-1.84019
H	-2.091456	0.0	0.0
