18

C	0.0	0.0	0.0
C	-0.215286	-0.044392	-1.566681
Br	1.967669	0.0	0.0
H	0.410676	0.764401	-1.951241
C	-0.774094	1.15195	0.486882
N	-0.796711	2.247167	0.966666
C	-0.259321	-1.258696	0.865236
H	0.318608	-2.102512	0.498031
H	-1.314903	-1.508006	0.883259
H	0.08069	-1.016447	1.877582
C	-1.576592	0.078903	-2.245381
H	-1.385652	0.112207	-3.329967
H	-2.227837	-0.75589	-1.99896
H	-2.066234	0.998005	-1.936027
N	0.393353	-1.271396	-2.188916
O	1.216716	-1.104328	-3.0899
O	-0.032456	-2.370073	-1.831872
H	-2.098964	0.0	0.0
