14

C	0.0	0.0	0.0
C	-0.321046	-0.266296	-1.478829
Cl	1.738267	0.0	0.0
H	0.028734	0.617444	-2.016033
H	0.315067	-1.097272	-1.788202
N	-0.455877	1.374207	0.464493
O	-0.582841	2.204933	-0.424761
O	-0.512974	1.593706	1.661954
N	-0.446666	-1.158692	0.879317
O	-0.521038	-0.998777	2.084719
O	-0.549874	-2.223783	0.285189
C	-1.683126	-0.574025	-1.91782
N	-2.49551	-0.928523	-2.696235
F	-2.27606	0.0	0.0
