14

C	0.0	0.0	0.0
C	-0.579022	0.007285	-1.395187
Cl	1.729697	0.0	0.0
H	-0.438248	1.008895	-1.801038
H	-1.708292	-0.124849	-1.09993
N	-0.485755	1.260619	0.743531
O	-0.388805	2.285749	0.079295
O	-0.829531	1.186711	1.905782
N	-0.41032	-1.273414	0.757451
O	-0.118312	-1.325809	1.944819
O	-0.889864	-2.174184	0.088928
C	0.008722	-0.973444	-2.276072
N	0.467657	-1.736688	-3.044335
F	-2.612586	0.0	0.0
