14

C	0.0	0.0	0.0
C	-0.30921	-0.352025	-1.464476
Cl	1.738792	0.0	0.0
H	0.152831	0.436091	-2.061729
H	0.241729	-1.270052	-1.673533
N	-0.448262	1.406077	0.361475
O	-0.451119	1.730455	1.537248
O	-0.620898	2.152767	-0.59156
N	-0.460285	-1.0871	0.953754
O	-0.551928	-0.835157	2.141568
O	-0.555959	-2.196112	0.443165
C	-1.683463	-0.531864	-1.93584
N	-2.502559	-0.751205	-2.755633
F	-2.276803	0.0	0.0
