14

C	0.0	0.0	0.0
C	-0.430478	0.018646	-1.482231
Cl	1.739538	0.0	0.0
H	-0.787059	-0.986637	-1.694101
H	0.451511	0.209446	-2.101112
N	-0.402696	1.282283	0.732339
O	-0.697639	1.270036	1.910159
O	-0.252411	2.279148	0.03399
N	-0.414429	-1.292465	0.704145
O	-0.577377	-2.270251	-0.012738
O	-0.391946	-1.304549	1.923016
C	-1.467284	0.954921	-1.904299
N	-2.136096	1.694731	-2.526721
F	-2.247581	0.0	0.0
