14

C	0.0	0.0	0.0
C	-0.303991	0.067632	-1.507154
Cl	1.746126	0.0	0.0
H	0.3021	-0.708585	-1.975618
H	0.096735	1.025313	-1.841398
N	-0.456067	1.244738	0.746113
O	-0.54173	1.200293	1.959329
O	-0.5617	2.247667	0.051382
N	-0.45554	-1.316983	0.599384
O	-0.551063	-2.22944	-0.211527
O	-0.537681	-1.421269	1.810537
C	-1.667046	-0.071337	-2.020203
N	-2.500015	-0.203447	-2.844922
F	-2.263481	0.0	0.0
