19

C	-0.450439	0.153063	-1.452951
C	0.0	0.0	0.0
F	-1.73998	0.643524	-1.515955
H	1.093234	0.0	0.0
C	0.462209	1.013813	-2.28891
H	1.48349	0.638851	-2.214603
H	0.122171	1.023337	-3.32773
H	0.43831	2.033978	-1.902243
N	-0.510371	-1.229467	-2.077833
O	-1.607141	-1.690404	-2.369615
O	0.570601	-1.780259	-2.238826
N	-0.477948	-1.263537	0.555745
H	0.27635	-1.696014	1.072863
H	-1.258069	-1.110333	1.182333
C	-0.444295	1.211644	0.815769
H	-0.126354	2.153262	0.362417
H	-1.532552	1.232744	0.926317
H	0.016855	1.148289	1.803634
Cl	3.457535	0.0	0.0
