19

C	-0.295309	-0.078794	-1.50708
C	0.0	0.0	0.0
F	0.134179	1.072531	-2.108043
H	1.096856	0.0	0.0
C	0.343045	-1.254538	-2.197895
H	0.167167	-1.188681	-3.274227
H	-0.055949	-2.194025	-1.821161
H	1.415064	-1.196443	-1.992801
N	-1.802138	-0.100475	-1.726804
O	-2.36235	0.92688	-2.092863
O	-2.375601	-1.160799	-1.461161
N	-0.403103	-1.177168	0.760602
H	0.313982	-1.886209	0.687103
H	-1.279903	-1.557518	0.428667
C	-0.569735	1.263441	0.619464
H	-0.295667	2.150769	0.048052
H	-1.662142	1.210229	0.690502
H	-0.167881	1.35187	1.629087
Cl	3.434848	0.0	0.0
