19

C	-0.384708	-0.045355	-1.47817
C	0.0	0.0	0.0
F	-0.099313	1.166677	-2.063593
H	1.101962	0.0	0.0
C	0.314748	-1.140585	-2.231627
H	1.388488	-0.961926	-2.128434
H	0.02347	-1.120249	-3.284571
H	0.061602	-2.105148	-1.797709
N	-1.899212	-0.186839	-1.603786
O	-2.569002	0.833965	-1.453074
O	-2.363751	-1.306815	-1.801007
N	-0.434809	-1.24973	0.631793
H	-1.118444	-1.059376	1.354313
H	0.366052	-1.687819	1.066623
C	-0.494243	1.24171	0.723896
H	-0.237615	2.147881	0.17576
H	-1.579813	1.221122	0.864302
H	-0.007701	1.282796	1.701332
Cl	3.431151	0.0	0.0
