19

C	-0.465343	-0.029645	-1.467705
C	0.0	0.0	0.0
F	-0.060322	-1.214547	-2.026181
H	1.095993	0.0	0.0
C	-1.952976	0.108867	-1.709896
H	-2.483897	-0.677371	-1.170602
H	-2.153146	-0.016128	-2.776807
H	-2.313246	1.082708	-1.387471
N	0.214959	1.064036	-2.28285
O	-0.169556	2.212545	-2.058834
O	1.050707	0.737347	-3.111051
N	-0.385251	-1.229862	0.690626
H	-1.357174	-1.464377	0.524803
H	0.190626	-1.988295	0.348029
C	-0.514	1.194906	0.785195
H	-1.602602	1.153665	0.910247
H	-0.057767	1.148097	1.774352
H	-0.248139	2.140942	0.316589
Cl	3.451903	0.0	0.0
