15

C	-0.469044	-0.112792	-1.436283
C	0.0	0.0	0.0
Cl	0.167632	1.226204	-2.456579
H	1.088433	0.0	0.0
H	-0.291517	-0.89644	0.551415
C	0.126492	-1.411895	-1.982047
H	1.206968	-1.367249	-1.816935
H	-0.28981	-2.267458	-1.442419
H	-0.09284	-1.514955	-3.04516
C	-1.930799	-0.122729	-1.560544
N	-3.098116	-0.249598	-1.630633
N	-0.532545	1.130061	0.756877
O	-1.099343	2.051936	0.160995
O	-0.326439	1.106884	1.973189
H	2.645131	0.0	0.0
