15

C	-0.446553	-0.100806	-1.460553
C	0.0	0.0	0.0
Cl	-0.239828	1.570152	-2.13438
H	1.088947	0.0	0.0
H	-0.368446	0.901899	0.483767
C	0.427266	-1.040905	-2.281709
H	1.468331	-0.77267	-2.08652
H	0.188857	-0.948364	-3.343262
H	0.257674	-2.062892	-1.948123
C	-1.87071	-0.42047	-1.598892
N	-3.007925	-0.692512	-1.716273
N	-0.433481	-1.127177	0.811997
O	-0.610083	-2.225327	0.26485
O	-0.505265	-0.941327	2.031451
H	2.639819	0.0	0.0
