15

C	-0.446418	-0.097779	-1.459216
C	0.0	0.0	0.0
Cl	-0.226708	1.571729	-2.133218
H	1.088953	0.0	0.0
H	-0.369205	0.899335	0.486652
C	0.420375	-1.044323	-2.281811
H	1.463311	-0.784899	-2.085525
H	0.240497	-2.066003	-1.950897
H	0.184862	-0.946398	-3.343481
C	-1.873515	-0.404452	-1.594533
N	-3.015896	-0.658727	-1.702748
N	-0.428391	-1.129334	0.81173
O	-0.486024	-0.94505	2.032301
O	-0.610828	-2.227022	0.264909
H	2.63864	0.0	0.0
