15

C	-0.452786	-0.117264	-1.44468
C	0.0	0.0	0.0
Cl	-0.034242	1.377103	-2.359488
H	1.088464	0.0	0.0
H	-0.304149	-0.89248	0.55529
C	0.348116	-1.269231	-2.053836
H	0.146065	-1.34521	-3.122954
H	0.067808	-2.206561	-1.565689
H	1.408393	-1.073688	-1.864537
C	-1.889797	-0.357813	-1.612615
N	-3.010347	-0.672648	-1.777026
N	-0.569488	1.143712	0.735403
O	-0.039725	1.411764	1.811774
O	-1.533785	1.751422	0.257012
H	2.750133	0.0	0.0
