15

C	-0.469623	-0.075462	-1.43819
C	0.0	0.0	0.0
Cl	0.175438	1.284921	-2.429367
H	1.088408	0.0	0.0
H	-0.29126	-0.90997	0.5287
C	0.117087	-1.365147	-2.015063
H	1.198288	-1.331894	-1.851636
H	-0.105307	-1.441385	-3.080433
H	-0.303272	-2.23074	-1.495189
C	-1.929725	-0.068398	-1.56618
N	-3.097325	-0.162502	-1.6717
N	-0.526384	1.111047	0.786166
O	-0.335511	1.044002	2.00415
O	-1.068916	2.063345	0.212802
H	2.641132	0.0	0.0
