15

C	-0.537651	0.016457	-1.424639
C	0.0	0.0	0.0
Cl	0.380814	-1.082461	-2.522767
H	1.088245	0.0	0.0
H	-0.303577	0.904154	0.528332
C	-2.02077	-0.330774	-1.543126
H	-2.349531	-0.224103	-2.578941
H	-2.168286	-1.358443	-1.218822
H	-2.602838	0.342574	-0.908537
C	-0.340891	1.375267	-1.945225
N	-0.298767	2.461271	-2.392644
N	-0.441814	-1.118096	0.791982
O	-0.546574	-0.936152	2.017839
O	-0.550302	-2.230563	0.247637
H	2.51769	0.0	0.0
