17
Coordinates from ORCA-job run
  C   0.71178336832071     -0.35000670976813     -0.07952288742905
  C   -0.79932934089179     -0.37070446739256      0.25499190706288
  Br  1.17070195260236     -2.02221798873451     -0.95001825211514
  H   -0.97852337630182     -1.33672908815387      0.74008250211754
  C   1.61117436181065     -0.15025072072950      1.12403636589732
  H   1.44286438430775     -0.95925180634134      1.83701100392096
  H   1.39126339395647      0.80410936601908      1.60121165239951
  H   2.65807846106331     -0.16926077901669      0.81722765945085
  N   0.92304771120066      0.80895156716230     -1.05581162652539
  O   1.08551931100945      0.58855599230533     -2.24671746636521
  O   0.83816130058300      1.91456272226045     -0.52586542750955
  C   -1.70353234499297     -0.24599849350031     -0.97573707636159
  H   -1.43328517657567     -0.98903703978417     -1.72621640237296
  H   -2.74208801269961     -0.40466904001092     -0.68167744558141
  H   -1.62465630897821      0.74995821834210     -1.41478886805709
  C   -1.13338121485025      0.66521911791163      1.23714786971858
  N   -1.41679846956405      1.46676914943110      2.04764649174977
