17
Coordinates from ORCA-job run
  C   0.66024765185019      0.07289879937920     -0.30085858666914
  C   -0.80720907257513      0.27493092844135      0.12097452756528
  Br  0.77600560344169     -0.49667248671217     -2.14283618116860
  H   -0.76215044981861      0.66544072830060      1.14371585997912
  C   1.41421945984215     -0.89743027273923      0.59181892836874
  H   2.47463260454138     -0.88799562193588      0.33337794261507
  H   1.03985623124656     -1.91028436075615      0.45017835010559
  H   1.29835590869771     -0.60179759398357      1.63635099782240
  N   1.34505316034511      1.44246858730383     -0.13891895066716
  O   1.26707407438427      1.88902196992655      1.00361846981071
  O   1.91042817535689      1.96707261926865     -1.08395487862927
  C   -1.64355389182834     -1.00653727597987      0.10945898197853
  H   -1.69258379675441     -1.43439411131461     -0.89172068325152
  H   -1.22862285465626     -1.74456748400085      0.79712604226584
  H   -2.65867947039224     -0.77436864536358      0.43613286080781
  C   -1.43320985206411      1.30949790374235     -0.70589997078665
  N   -1.95986348161685      2.13171631642339     -1.35856371014672
