17
Coordinates from ORCA-job run
  C   0.74190554491981     -0.41972632240921     -0.01738382521144
  C   -0.78568269741020     -0.60804637293391     -0.05357919247901
  Br  1.59468969611184     -2.13501201063557      0.33137561202435
  H   -0.99071437254464     -1.42042298357428     -0.75649593580517
  C   1.23606138803331      0.60408334472560      0.97587339795544
  H   2.32158059038531      0.67396518619155      0.94100893394126
  H   0.93020028469187      0.30304442869370      1.97880927045259
  H   0.82335526586210      1.58781012699753      0.74818731256054
  N   1.14896306751619     -0.03323205745978     -1.44026145269049
  O   1.87833564668597      0.94382762521835     -1.57285820150038
  O   0.69401286422563     -0.72179211091244     -2.34612480976333
  C   -1.52858254641861      0.65394834306032     -0.51400330876118
  H   -2.59644394545908      0.43679859153880     -0.57124876036557
  H   -1.39012066345342      1.47976535756260      0.18433984956486
  H   -1.19570678650028      0.95899288714397     -1.50722318496831
  C   -1.25239062412213     -1.01187386991780      1.27224608196223
  N   -1.62946271252365     -1.29313016328943      2.34833821308359
