17

C	-0.530834	0.006238	-1.426094
C	0.0	0.0	0.0
F	-1.869519	0.400731	-1.487315
H	1.089333	0.0	0.0
C	0.286775	0.917398	-2.323835
H	1.344207	0.694232	-2.164738
H	-0.01455	0.766879	-3.362181
H	0.091215	1.945602	-2.029893
C	-0.451339	-1.378032	-1.938118
N	-0.361834	-2.464736	-2.374674
N	-0.512664	-1.183694	0.756856
O	-1.703632	-1.471408	0.614339
O	0.282286	-1.785209	1.473331
N	-0.444775	1.190774	0.76194
O	-0.290572	2.283212	0.222662
O	-0.873922	1.025289	1.902476
F	2.481667	0.0	0.0
