17

C	-0.38321	0.019173	-1.46865
C	0.0	0.0	0.0
F	-1.746805	0.259513	-1.65181
H	1.089434	0.0	0.0
C	0.432047	1.084158	-2.188572
H	0.320383	0.96284	-3.267715
H	1.471493	0.961113	-1.871509
H	0.080387	2.071529	-1.892739
C	-0.069206	-1.283482	-2.087833
N	0.202514	-2.24439	-2.705183
N	-0.530598	-1.155939	0.758316
O	-1.264794	-1.964006	0.187421
O	-0.170357	-1.228852	1.929426
N	-0.526492	1.222533	0.664066
O	-1.553878	1.130708	1.335166
O	0.100009	2.261681	0.468771
F	2.48936	0.0	0.0
