17

C	-0.357273	0.026999	-1.477029
C	0.0	0.0	0.0
F	-1.709888	0.303659	-1.687786
H	1.089367	0.0	0.0
C	0.504529	1.062333	-2.186714
H	1.529519	0.918802	-1.832603
H	0.42589	0.928127	-3.26655
H	0.167195	2.061308	-1.91491
C	-0.066142	-1.290078	-2.076241
N	0.198362	-2.277025	-2.654757
N	-0.547649	-1.156445	0.743052
O	-0.143121	-1.282308	1.895829
O	-1.350129	-1.906296	0.183228
N	-0.526692	1.221061	0.66607
O	-1.526805	1.11937	1.375577
O	0.07511	2.267747	0.437991
F	2.494601	0.0	0.0
