17

C	-0.376223	-0.068297	-1.485445
C	0.0	0.0	0.0
F	-0.25737	1.251759	-1.936291
H	1.090513	0.0	0.0
C	0.638194	-0.902809	-2.245283
H	0.462455	-1.96347	-2.074841
H	0.547089	-0.678542	-3.309179
H	1.620738	-0.627661	-1.849571
C	-1.76806	-0.475377	-1.7604
N	-2.852953	-0.812241	-2.055123
N	-0.465492	-1.163417	0.771395
O	-0.624172	-2.220137	0.160179
O	-0.583364	-1.02362	1.984959
N	-0.608221	1.209497	0.611026
O	-1.839985	1.248199	0.63847
O	0.143416	2.08557	1.022778
F	2.511721	0.0	0.0
