12

C	0.0	0.0	0.0
C	-0.452321	0.238183	-1.444088
Cl	1.842085	0.0	0.0
H	-0.097901	1.220067	-1.772622
H	-0.294686	-1.00003	0.315944
H	-1.551568	0.243617	-1.414996
N	-0.493304	0.945465	0.945947
H	-0.379457	1.884241	0.577855
H	-1.498338	0.766008	1.028413
C	0.014193	-0.76549	-2.394017
N	0.385357	-1.52015	-3.213615
Br	-3.687136	0.0	0.0
