12

C	0.0	0.0	0.0
C	-0.498378	0.223142	-1.422801
Cl	1.788112	0.0	0.0
H	-1.59617	0.196722	-1.382505
H	-0.282817	-1.00607	0.325603
H	-0.178968	1.216675	-1.745629
N	-0.502044	1.067947	0.822874
H	-0.283408	0.865111	1.792602
H	-1.522666	1.028221	0.734558
C	-0.01204	-0.774965	-2.369519
N	0.402344	-1.530502	-3.164619
Br	-3.734547	0.0	0.0
