12

C	0.0	0.0	0.0
C	-0.210556	0.175156	-1.541628
Cl	1.793277	0.0	0.0
H	0.229733	1.148332	-1.787983
H	-0.335281	-0.98444	0.322088
H	0.422289	-0.565889	-2.037937
N	-0.535831	0.982898	0.869348
H	-1.54211	0.786878	0.922704
H	-0.425101	1.903777	0.458231
C	-1.488126	0.106861	-2.2595
N	-2.249703	0.064166	-3.154501
Br	-3.637206	0.0	0.0
