12

C	0.0	0.0	0.0
C	-0.497433	-0.154574	-1.431566
Cl	1.787149	0.0	0.0
H	-1.595135	-0.17354	-1.38503
H	-0.291069	-0.901054	0.551545
H	-0.147634	-1.105251	-1.842177
N	-0.488592	1.233946	0.547196
H	-1.509222	1.194946	0.465686
H	-0.267466	1.274305	1.535683
C	-0.053212	0.925854	-2.308386
N	0.286305	1.760406	-3.05985
Br	-3.724929	0.0	0.0
