12
Coordinates from ORCA-job run
  C   0.18147968979855     -0.10229263619011      0.04512345098826
  C   1.32254227336361     -0.74612437389201      0.32952717756290
  H   1.32558688410727     -1.79016109301829      0.62611682007530
  H   2.28436919158310     -0.24631622792508      0.27392971342733
  C   0.16043019103439      1.34380511060893     -0.36743255594438
  H   -0.44557413580436      1.93599751731462      0.32615227526594
  H   1.16471738145414      1.77044430929719     -0.39627627600459
  H   -0.29064839521098      1.45734758299826     -1.35872227783169
  C   -1.15892884951077     -0.78049805404417      0.11812152915894
  H   -1.06717770778130     -1.82544322231506      0.41997042226273
  H   -1.81244959544613     -0.27128928284823      0.83410474472753
  H   -1.66434692758752     -0.74546962998605     -0.85261502368825
