19

C	-0.287894	0.129457	-1.496479
C	0.0	0.0	0.0
Br	-2.106532	0.817272	-1.912824
H	1.09513	0.0	0.0
C	0.762536	1.002049	-2.16054
H	1.726203	0.693893	-1.729038
H	0.735773	0.901077	-3.247816
H	0.575429	2.045747	-1.901406
N	-0.200497	-1.275427	-2.08481
O	0.946477	-1.689278	-2.219026
O	-1.215716	-1.911253	-2.334311
N	-0.495536	-1.254317	0.540427
H	0.207892	-1.62126	1.168438
H	-1.359825	-1.121911	1.052689
C	-0.422383	1.227731	0.792824
H	-1.509581	1.279772	0.925324
H	-0.089095	2.155323	0.3212
H	0.055102	1.169732	1.775061
F	2.674822	0.0	0.0
