19

C	-0.190775	-0.085961	-1.534995
C	0.0	0.0	0.0
Br	0.268196	1.61076	-2.399729
H	1.09563	0.0	0.0
C	0.73592	-1.142871	-2.102676
H	0.424366	-2.127977	-1.762544
H	1.719739	-0.898034	-1.675782
H	0.74533	-1.1311	-3.194675
N	-1.651059	-0.36115	-1.843807
O	-1.967938	-1.552212	-1.941901
O	-2.458864	0.565507	-1.840271
N	-0.36429	-1.257529	0.658583
H	-1.160048	-1.719104	0.23338
H	0.437135	-1.876316	0.611728
C	-0.675021	1.165519	0.687361
H	-0.376881	2.124374	0.263836
H	-1.768264	1.089125	0.642973
H	-0.375608	1.137157	1.736554
F	2.67868	0.0	0.0
