19

C	-0.573091	-0.017091	-1.421119
C	0.0	0.0	0.0
Br	0.34581	-1.382158	-2.481952
H	1.09442	0.0	0.0
C	-2.059147	-0.288749	-1.509921
H	-2.230633	-1.268772	-1.067733
H	-2.399578	-0.280137	-2.546627
H	-2.614356	0.468383	-0.95449
N	-0.255687	1.325338	-2.061577
O	0.898256	1.566393	-2.384715
O	-1.192449	2.128333	-2.137447
N	-0.407366	-1.255677	0.654119
H	-0.946471	-1.057624	1.489447
H	0.457117	-1.701519	0.943222
C	-0.449901	1.224637	0.785537
H	-1.533006	1.256086	0.96842
H	0.069401	1.190702	1.746831
H	-0.153319	2.156386	0.300527
F	2.625231	0.0	0.0
