19

C	-0.290401	-0.090267	-1.499889
C	0.0	0.0	0.0
Br	-0.26506	1.67	-2.386994
H	1.100285	0.0	0.0
C	0.746111	-0.974985	-2.156996
H	1.71539	-0.630182	-1.774508
H	0.581816	-1.992689	-1.797664
H	0.680139	-0.955833	-3.244113
N	-1.702165	-0.603868	-1.763229
O	-2.601246	-0.182687	-1.037301
O	-1.869757	-1.400929	-2.68256
N	-0.397178	-1.312871	0.532656
H	-1.234308	-1.231417	1.099182
H	0.366145	-1.643492	1.111474
C	-0.540879	1.17189	0.795612
H	-0.160845	1.073988	1.817683
H	-0.178479	2.123581	0.40452
H	-1.63474	1.191071	0.821072
F	2.699608	0.0	0.0
