19

C	-0.567573	-0.026724	-1.421435
C	0.0	0.0	0.0
Br	0.259641	-1.501145	-2.418158
H	1.097191	0.0	0.0
C	-2.068293	-0.19817	-1.518493
H	-2.394293	-0.214985	-2.560015
H	-2.572621	0.621738	-1.006817
H	-2.316247	-1.138324	-1.029749
N	-0.150229	1.264045	-2.112547
O	-1.003896	2.156637	-2.13818
O	0.993085	1.378422	-2.526882
N	-0.465894	-1.238385	0.670722
H	-0.566953	-1.025741	1.657742
H	0.322269	-1.878733	0.611745
C	-0.471189	1.218403	0.779309
H	-1.54863	1.209495	0.987707
H	-0.219982	2.151168	0.273775
H	0.072887	1.219217	1.728143
F	2.635859	0.0	0.0
