19

C	-0.307219	0.01498	-1.495109
C	0.0	0.0	0.0
Br	-2.259128	0.138752	-1.894744
H	1.096737	0.0	0.0
C	0.425988	1.13115	-2.206345
H	-0.045394	2.083126	-1.963676
H	0.402253	0.994248	-3.288883
H	1.452376	1.098394	-1.824743
N	0.150888	-1.320899	-2.073558
O	-0.570996	-2.30568	-1.937461
O	1.271077	-1.337848	-2.574266
N	-0.483095	-1.158747	0.731193
H	-1.410798	-1.424809	0.426852
H	0.135442	-1.937673	0.557017
C	-0.464976	1.270389	0.693836
H	-0.08673	1.220223	1.716235
H	-1.558327	1.34732	0.730422
H	-0.05614	2.170196	0.230056
F	2.632797	0.0	0.0
