19

C	-0.244362	-0.082391	-1.520585
C	0.0	0.0	0.0
Br	0.430703	1.517221	-2.421299
H	1.095207	0.0	0.0
C	0.490952	-1.26928	-2.107804
H	0.446609	-1.268989	-3.198523
H	0.066811	-2.199181	-1.733458
H	1.520819	-1.15209	-1.748871
N	-1.739791	-0.150848	-1.771093
O	-2.396622	0.881488	-1.876128
O	-2.237816	-1.283565	-1.704191
N	-0.378319	-1.23414	0.69162
H	0.412975	-1.86345	0.651392
H	-1.187261	-1.686516	0.280932
C	-0.638341	1.192149	0.682312
H	-1.731379	1.105436	0.721637
H	-0.382307	2.134366	0.196769
H	-0.266251	1.214229	1.707901
F	2.652483	0.0	0.0
