19
Coordinates from ORCA-job run
  C   0.68765216780952     -0.14595842544423      0.39170663076505
  C   -0.61937538710298     -0.11903937809663     -0.41605438389046
  Br  0.47709845784074      0.90427496133342      2.06153185580527
  H   -0.41995081700083     -0.81072928219971     -1.25163881689477
  C   1.85791984100295      0.48265778600494     -0.35805297005733
  H   1.71617884361684      1.54744245990469     -0.54174792306515
  H   1.97753399238283     -0.03038468997086     -1.31974329353620
  H   2.77783874773524      0.35747247252376      0.21727108627902
  N   0.93863426475522     -1.51096347724845      0.81702777966467
  H   1.03145260898736     -2.09538320789019     -0.00909284368625
  H   1.80809908978421     -1.55916730650757      1.33695842075346
  C   -0.94305476412372      1.24631316854429     -1.01659238866540
  H   -1.02561180883546      2.00178020908056     -0.23120885179567
  H   -1.90335389794234      1.19871421720559     -1.53629093071098
  H   -0.19508055498227      1.57705680560767     -1.73928530566823
  C   -1.81388435773801     -0.66372156642409      0.36454836243377
  H   -1.55381877612243     -1.57828970204266      0.89625322560225
  H   -2.63878637571437     -0.87328022959202     -0.32214636789422
  H   -2.16149127435247      0.07120518521150      1.09355671456119
