19
Coordinates from ORCA-job run
  C   0.72841158396153     -0.08007731673694      0.39459992565024
  C   -0.66086796404587      0.44190247281319      0.00063346085654
  Br  0.93655996193786      0.34609802228209      2.41352913044713
  H   -0.73113724350064      1.46066775266569      0.39583937376978
  C   1.87303431030490      0.67509681744633     -0.25636019516343
  H   1.75283961908847      1.75055919836603     -0.12120263973522
  H   2.82616017667687      0.38200107289586      0.18826599905559
  H   1.89954188370131      0.44076296267900     -1.32271820920511
  N   0.85416928426500     -1.46431336149943      0.15220604609884
  H   1.78663736932245     -1.79936484711711      0.35925617973957
  H   0.18342487511737     -2.01150756060730      0.67522468627288
  C   -1.79671439814973     -0.38813513811668      0.59576610774905
  H   -2.75012639420895      0.11912520656698      0.42997943809030
  H   -1.86488337219258     -1.36527318466752      0.10830244413709
  H   -1.67699903190000     -0.53084187088456      1.67113186212081
  C   -0.80330996389270      0.49585457571733     -1.52417386409794
  H   -1.82914557721834      0.76814756864282     -1.78632035579292
  H   -0.14257461635007      1.23754338266969     -1.97601441889565
  H   -0.58502050291688     -0.48024575311547     -1.96294497109755
