19
Coordinates from ORCA-job run
  C   0.76004561424574     -0.08839005359476      0.39869593498003
  C   -0.55182948177188     -0.11221207380436     -0.41676361911258
  Br  0.48951089136313      1.00967066518737      2.02831874967492
  H   -0.30625428604191     -0.77860776938444     -1.25953895573093
  C   1.91155235439941      0.53400910160790     -0.37548649765915
  H   2.03754927477965      0.00134289675846     -1.32598973713359
  H   2.82609696940321      0.43282790830763      0.20881283402624
  H   1.74236288959079      1.58783305979009     -0.58810066181205
  N   1.20295435231290     -1.38476815172477      0.87347506200293
  H   0.47948217907809     -1.84537672107955      1.41070941954438
  H   1.43386443776701     -1.96719984663477      0.07405755383665
  C   -0.95175435635633      1.24296618658769     -0.99780189403650
  H   -1.13449277759233      1.96710549665298     -0.20072344825468
  H   -1.87399304675802      1.13890291571176     -1.57555595971918
  H   -0.19226663190582      1.64987873558365     -1.66688998314994
  C   -1.73371535447781     -0.73037439868293      0.32732883767697
  H   -2.04697169731267     -0.09481491611870      1.15780717341951
  H   -1.51123485748530     -1.72485279296187      0.71953367763655
  H   -2.58090647323784     -0.83694024220138     -0.35488848618960
