19
Coordinates from ORCA-job run
  C   0.71791622116289      0.09321308570210      0.59485505609339
  C   -0.75810333505291      0.20088574048495      0.14942001627182
  Br  1.07821428457137      1.66041168617571      1.77946132140795
  H   -1.34300800622674      0.30266542906921      1.07315329344489
  C   1.71683172549564      0.16199286892560     -0.54725967330952
  H   1.54150194400675     -0.66115337476488     -1.24823694551235
  H   1.64409604357731      1.10284674759526     -1.09040386985372
  H   2.72545709923737      0.06531884037660     -0.14459508695687
  N   1.01991168986821     -1.06483695477467      1.40052299595931
  H   1.10148388653101     -1.88660429354572      0.81334525900474
  H   0.30035189615508     -1.22321209785537      2.09677233944147
  C   -1.21775050241252     -1.07972129916306     -0.55501889464985
  H   -0.65748073748819     -1.25490995526609     -1.47768595284796
  H   -1.12309076300023     -1.96115690534532      0.08119325505674
  H   -2.27161841774024     -0.98650081324882     -0.82918369997099
  C   -1.05320736685931      1.40659711579739     -0.74056184059988
  H   -0.68129737476921      2.33467738278278     -0.30611162623859
  H   -0.60745575393660      1.28145225419246     -1.73110292022518
  H   -2.13275253311967      1.50903454286186     -0.87956302651540
