17

C	-0.526787	0.01591	-1.391637
C	0.0	0.0	0.0
F	-1.877136	0.086764	-1.491935
H	1.09226	0.0	0.0
N	0.038554	1.21472	-2.13747
O	-0.658715	2.223927	-2.157455
O	1.168048	1.074707	-2.587456
N	-0.108636	-1.181283	-2.227121
O	-0.541047	-1.176575	-3.377416
O	0.602435	-2.029653	-1.705371
C	-0.517424	-1.155812	0.704183
N	-0.957455	-2.05715	1.319175
C	-0.343642	1.295283	0.745966
H	-1.403981	1.551611	0.705496
H	0.252328	2.112276	0.334138
H	-0.037086	1.169779	1.78602
H	2.563485	0.0	0.0
