17

C	-0.404602	0.007599	-1.437937
C	0.0	0.0	0.0
F	1.4e-05	-1.100599	-2.071076
H	1.095628	0.0	0.0
N	-1.912884	0.116465	-1.644487
O	-2.38813	1.234739	-1.452632
O	-2.527806	-0.91174	-1.90195
N	0.149745	1.180077	-2.24366
O	0.869762	1.995982	-1.685481
O	-0.149642	1.150188	-3.434789
C	-0.452379	-1.254248	0.578669
N	-0.831363	-2.246565	1.084315
C	-0.4672	1.178148	0.853278
H	0.030832	1.09081	1.821544
H	-1.548831	1.186405	1.005027
H	-0.155062	2.11694	0.40224
H	2.548007	0.0	0.0
