17

C	-0.422476	-0.003242	-1.428191
C	0.0	0.0	0.0
F	0.022336	1.081286	-2.072578
H	1.095458	0.0	0.0
N	0.056117	-1.216991	-2.220918
O	0.529479	-2.158986	-1.60426
O	-0.082759	-1.116168	-3.436065
N	-1.940385	-0.029614	-1.598618
O	-2.502092	1.057705	-1.687304
O	-2.475097	-1.135474	-1.54321
C	-0.517039	-1.127186	0.746499
N	-0.915409	-1.986587	1.445069
C	-0.360046	1.319517	0.688707
H	-1.436453	1.478827	0.790287
H	0.084698	2.145393	0.132674
H	0.099151	1.304248	1.679348
H	2.537541	0.0	0.0
