17

C	-0.5113	0.063989	-1.395567
C	0.0	0.0	0.0
F	-1.848289	0.244879	-1.510406
H	1.092179	0.0	0.0
N	0.157643	1.215875	-2.128539
O	-0.423511	2.29434	-2.087144
O	1.251826	0.973565	-2.619942
N	-0.17371	-1.157451	-2.231231
O	-0.686588	-1.172384	-3.346315
O	0.57266	-1.997883	-1.747974
C	-0.514605	-1.180344	0.664167
N	-0.945327	-2.097658	1.262201
C	-0.352034	1.265335	0.79068
H	-0.027006	1.110547	1.821079
H	-1.418162	1.499962	0.77493
H	0.218601	2.107705	0.395302
H	2.555289	0.0	0.0
