17

C	-0.506109	-0.017261	-1.403051
C	0.0	0.0	0.0
F	-1.853905	-0.080221	-1.528162
H	1.092158	0.0	0.0
N	-0.052853	1.239058	-2.131824
O	1.108821	1.236924	-2.516407
O	-0.865998	2.152992	-2.207351
N	0.049461	-1.157286	-2.236985
O	0.835409	-1.930591	-1.70572
O	-0.352338	-1.179763	-3.39874
C	-0.475444	-1.194014	0.676018
N	-0.879467	-2.142147	1.243087
C	-0.433204	1.263742	0.745587
H	0.071624	2.1332	0.319612
H	-0.101158	1.172498	1.781321
H	-1.51439	1.419883	0.723472
H	2.581767	0.0	0.0
