17

C	-0.413995	0.073214	-1.46759
C	0.0	0.0	0.0
F	-1.823517	0.13788	-1.5604
H	1.090442	0.0	0.0
C	0.195593	1.205441	-2.264653
H	1.275827	1.19794	-2.08422
H	-0.020856	1.068793	-3.326607
H	-0.211501	2.154094	-1.921725
C	-0.042181	-1.219553	-2.083065
N	0.212251	-2.248431	-2.590312
N	-0.444518	-1.155542	0.698107
H	-1.301658	-1.54833	0.344036
H	0.300177	-1.83819	0.704551
N	-0.482719	1.242539	0.681175
O	0.079295	2.293616	0.359891
O	-1.379409	1.163543	1.522844
H	2.661026	0.0	0.0
