17

C	-0.485837	0.048353	-1.439294
C	0.0	0.0	0.0
F	-1.887277	0.224879	-1.459726
H	1.091274	0.0	0.0
C	0.158354	1.10327	-2.31489
H	-0.096779	0.916825	-3.359684
H	1.241148	1.051717	-2.168703
H	-0.190463	2.088011	-2.015083
C	-0.23362	-1.281104	-2.033038
N	-0.038833	-2.285865	-2.60805
N	-0.450937	-1.174977	0.671587
H	0.253924	-1.426618	1.35541
H	-1.319311	-0.997703	1.156454
N	-0.375069	1.253121	0.713592
O	-0.989129	1.161296	1.784508
O	0.036949	2.321372	0.249432
H	2.598711	0.0	0.0
