17

C	-0.47776	0.069018	-1.469549
C	0.0	0.0	0.0
F	-0.197685	-1.174202	-2.035202
H	1.090806	0.0	0.0
C	-1.973555	0.286812	-1.60542
H	-2.247383	1.282902	-1.277044
H	-2.508132	-0.444818	-1.000637
H	-2.260833	0.165117	-2.651479
C	0.240683	1.059519	-2.287072
N	0.714686	1.808255	-3.052748
N	-0.371364	-1.184218	0.683958
H	0.431586	-1.788195	0.685069
H	-1.178185	-1.653954	0.32856
N	-0.530489	1.219795	0.658854
O	-1.272458	1.133301	1.632508
O	-0.186603	2.287231	0.133974
H	2.596093	0.0	0.0
