17

C	-0.484778	-0.015667	-1.454109
C	0.0	0.0	0.0
F	-0.13067	1.177194	-2.073319
H	1.09073	0.0	0.0
C	0.173623	-1.161465	-2.197719
H	-0.064732	-1.086281	-3.260898
H	1.252088	-1.084564	-2.032102
H	-0.187727	-2.118858	-1.819754
C	-1.961793	-0.112681	-1.539928
N	-3.125926	-0.243295	-1.632344
N	-0.450934	-1.085642	0.798001
H	0.243649	-1.818735	0.813297
H	-1.3814	-1.420629	0.593315
N	-0.490904	1.291236	0.602008
O	0.254016	2.265984	0.564751
O	-1.633848	1.288381	1.070586
H	2.777638	0.0	0.0
