17

C	-0.509768	0.055754	-1.439546
C	0.0	0.0	0.0
F	-0.143903	-1.164804	-2.016649
H	1.100773	0.0	0.0
C	-2.019152	0.166326	-1.528234
H	-2.441508	-0.618988	-0.900035
H	-2.342583	1.147247	-1.18206
H	-2.337403	0.021751	-2.564434
C	0.144175	1.092743	-2.261989
N	0.611529	1.840625	-3.038015
N	-0.410438	-1.236213	0.633752
H	-0.567325	-0.998291	1.60757
H	0.414719	-1.835441	0.61698
N	-0.381641	1.143571	0.745583
O	-0.500902	2.231877	0.130237
O	-0.403934	1.05962	1.997828
H	2.396471	0.0	0.0
