17

C	-0.437111	-0.053349	-1.469333
C	0.0	0.0	0.0
F	-0.254837	1.199983	-2.046614
H	1.090606	0.0	0.0
C	0.426088	-1.056055	-2.211333
H	1.471582	-0.824737	-1.980831
H	0.228929	-0.980988	-3.282748
H	0.20648	-2.071138	-1.876709
C	-1.874581	-0.383462	-1.611379
N	-2.991631	-0.71679	-1.757584
N	-0.398083	-1.117699	0.786516
H	-1.262399	-1.562312	0.513212
H	0.37329	-1.76804	0.857726
N	-0.574192	1.257991	0.584085
O	0.137863	2.256089	0.640539
O	-1.753523	1.204087	0.944301
H	2.782526	0.0	0.0
