18
Coordinates from ORCA-job run
  C   -0.66083827937038     -0.68193386597734      0.23737334326604
  C   0.56128128828281      0.19676756785198      0.43519966494043
  F   -0.62898653102629     -1.74420696122726      1.09811808550260
  H   0.55945484006035      0.43797942873444      1.50292714707601
  N   -1.89378373505889      0.13808406182906      0.74027776395739
  O   -1.90465966993841      0.43876841245374      1.92750458039738
  O   -2.73728020901926      0.45221240505624     -0.09658499085937
  N   -0.83083189122090     -1.17059799290859     -1.06497005911352
  H   -1.66832230837892     -1.73613057358161     -1.12989714950712
  H   -0.89512849175476     -0.41737358657380     -1.73481122231847
  C   0.46230801306850      1.49644243645262     -0.36083789124344
  H   0.48081670704997      1.31135658188743     -1.43884313249872
  H   1.32234709229271      2.12896880514331     -0.13142955773029
  H   -0.43753761013382      2.06739273295690     -0.12156754871549
  C   1.82700100047904     -0.58493415241812      0.09675556203952
  H   1.86930247775005     -1.52213691776094      0.65303879360739
  H   1.86756396983181     -0.81957086124480     -0.96807707583616
  H   2.70729333708641      0.00791247932675      0.35682368703583
