18
Coordinates from ORCA-job run
  C   -0.77087688974583     -0.41876252292658      0.03208339391766
  C   0.43560613555766      0.50270419079457      0.03077306980070
  F   -0.33243433787881     -1.73937965256562      0.02563478057069
  H   0.06112842471525      1.49414607182528      0.29505675042610
  N   -1.57646535347345     -0.31249903038902      1.33442018717338
  O   -2.42910094790874     -1.18072676768551      1.48854758947851
  O   -1.35339195802634      0.62525380987621      2.09098919491280
  N   -1.71378727961985     -0.15952476682549     -0.97722835269794
  H   -1.29368330453497     -0.21798295542308     -1.89406407058211
  H   -2.48227750728836     -0.81726307556532     -0.90983427881616
  C   1.05448901402928      0.55618920850733     -1.36756022972409
  H   1.27913661354706     -0.44889827490427     -1.73497560263469
  H   1.99388147389333      1.11119895965874     -1.32974459669381
  H   0.41004620773822      1.06667100101443     -2.08646419317525
  C   1.47601877772303      0.06108108611838      1.05873592172068
  H   1.90794193469055     -0.90240726957376      0.78352280090122
  H   2.28148408100497      0.79782071489290      1.09705729900435
  H   1.05328491557701     -0.01862072682918      2.06005033641794
