18
Coordinates from ORCA-job run
  C   -0.71615377588090     -0.68302097279426     -0.05040746917098
  C   0.67918293486299     -0.10488701984562     -0.25796872231355
  F   -0.56248176743789     -2.00215895057952      0.33959785515450
  H   1.14587667181865     -0.84575687639066     -0.92202832385707
  N   -1.43887391887339     -0.02079643631234      1.13144673193276
  O   -1.99716290136606     -0.75283274834742      1.93938963688508
  O   -1.42276057783846      1.20411051237934      1.15148123942652
  N   -1.57388714467698     -0.54711554888057     -1.15609398153282
  H   -1.10879764386532     -0.82987532998301     -2.00883632301732
  H   -2.41519589509579     -1.09784936184139     -1.02838605549515
  C   1.46251326478201     -0.09767672202698      1.05404433825674
  H   2.51577982044929      0.10897920463263      0.85346461590451
  H   1.39691700203694     -1.05831670039877      1.56728256295068
  H   1.09106579260681      0.68403171748394      1.72055425305326
  C   0.72026167152101      1.25349274992315     -0.95253716422139
  H   1.75920604633997      1.50037925517871     -1.18681487032832
  H   0.31335574043204      2.03264441243143     -0.31061034613753
  H   0.15215468018508      1.25664881537134     -1.88357797748992
