18
Coordinates from ORCA-job run
  C   -0.75055798976105     -0.60737291932703     -0.07211084123452
  C   0.68024421294138     -0.11289002706082     -0.22709344201843
  F   -0.70770020965001     -1.91110926485803      0.42482485094255
  H   1.07555563050763     -0.79303484168911     -0.99596402149442
  N   -1.57932307071843      0.11969776375065      0.99001309067178
  O   -2.73051105847425     -0.28618103248702      1.11087888847109
  O   -1.06463341354302      1.02506537089632      1.63689721285754
  N   -1.50194823923002     -0.50739285679733     -1.25321268814183
  H   -2.41628716900746     -0.92555087802583     -1.13215569396226
  H   -1.01431078453884     -0.93155665468666     -2.03060814520927
  C   1.53520249649662     -0.31442521996844      1.02362766165442
  H   1.26532232571956      0.39602389987648      1.80372312854226
  H   1.43482787556627     -1.32632845351439      1.41670352381788
  H   2.58505720834058     -0.15510087868096      0.76627383984884
  C   0.77102802522352      1.31339896833757     -0.76627536924848
  H   0.44166861790140      2.03172475014029     -0.01600438308744
  H   0.16389509921233      1.44645905916489     -1.66197421520037
  H   1.81047044301379      1.53757321492940     -1.01854339720933
