18
Coordinates from ORCA-job run
  C   -0.62626561599866     -0.80795107313977     -0.12374791869959
  C   0.72869718694001     -0.12775551947720     -0.26930153031961
  F   -0.45143763240613     -2.10353257422574      0.25173833836733
  H   1.26256132679141     -0.81192629722534     -0.93960729669209
  N   -1.37215311093173     -0.15140459547291      1.07322231015229
  O   -1.92143506256008      0.91938501962094      0.81383445676485
  O   -1.33423680679766     -0.69813565564015      2.16697099800108
  N   -1.41081055636638     -0.79215028832653     -1.29724832109146
  H   -1.72295374238165      0.14691747610065     -1.50408808875543
  H   -2.21797568261728     -1.39422404140535     -1.18066349436153
  C   1.46803405159349     -0.06583291827182      1.06563547324166
  H   1.03239004060100      0.68842537587621      1.72621205325196
  H   1.44791344776435     -1.02571609403201      1.58306983573742
  H   2.51069246664752      0.20838002139721      0.89166525148946
  C   0.65281718452853      1.24202612510746     -0.93737193498148
  H   1.66095826839335      1.65158027014708     -1.03164312092343
  H   0.05904331057036      1.94229791335914     -0.34701825965450
  H   0.23216092622956      1.17861685560813     -1.94265875152692
