18
Coordinates from ORCA-job run
  C   -0.71021406944551     -0.80061632212974     -0.01964420375635
  C   0.66595668971995     -0.16657561810958     -0.24639355745386
  F   -0.50800527432014     -2.06745129440545      0.44015111112784
  H   1.14399091126607     -0.86641380049519     -0.94646774007501
  N   -1.42242244605468     -0.04225370737224      1.10020780760179
  O   -1.32327287123231     -0.48245085888469      2.23591470576882
  O   -1.99997029036016      0.99102665675383      0.76592989525640
  N   -1.62551571320339     -0.85815251856871     -1.10327585207576
  H   -2.04256658625032      0.04778140685376     -1.26630898906750
  H   -1.16145044663198     -1.18648346441086     -1.94035628630492
  C   1.49626947324135     -0.12773474635134      1.03534564678353
  H   1.49936795281608     -1.09283154010268      1.54178517026698
  H   2.52785307989813      0.14116174549740      0.79711198296482
  H   1.11063550709692      0.62169601358641      1.73131804666591
  C   0.59158270969126      1.20722087861381     -0.90560411340182
  H   1.60234911044216      1.56198320157797     -1.11918311928299
  H   0.11022496729914      1.93673890324248     -0.25185145943173
  H   0.04418729602745      1.18135506470484     -1.84967904558614
