18
Coordinates from ORCA-job run
  C   -0.72030800390919     -0.61743658711670     -0.06915884148572
  C   0.33637385895534      0.48522100901085     -0.01367123309616
  F   -0.10549972426873     -1.82191800675253     -0.19256727116647
  H   -0.21787740197138      1.42494143146954      0.08775190289152
  N   -1.44973122335742     -0.61160713690203      1.27226970342955
  O   -1.26408588557903     -1.53768466214089      2.04592322789461
  O   -2.15381082409030      0.37748443329883      1.45938340941849
  N   -1.74858091587109     -0.55356895697002     -1.05492249574348
  H   -2.22634938644511      0.33681757001146     -1.01470000814562
  H   -1.35601350415786     -0.70024281349028     -1.97513156929442
  C   1.13447675049191      0.50662382625410     -1.31544501690506
  H   1.66810907723000     -0.43544827618492     -1.45790350444349
  H   1.87219838693568      1.31100078677208     -1.28436654966392
  H   0.49877251085053      0.68288422815662     -2.18600383532740
  C   1.25359763909200      0.31583142829880      1.19641375298267
  H   1.73947160722227     -0.66185873058655      1.18047913193582
  H   2.02950042925002      1.08434318311458      1.18388476275898
  H   0.71075660962236      0.41261727375706      2.13876443396011
