18
Coordinates from ORCA-job run
  C   -0.63665017576840     -0.79708048268809     -0.14027909602171
  C   0.72987165899483     -0.13558142035850     -0.26201163994860
  F   -0.48582383181178     -2.09916444336487      0.22271361189877
  H   1.26056999060570     -0.81980432471355     -0.93480098604000
  N   -1.38746354015439     -0.14333700332031      1.05525987436243
  O   -1.91959085322440      0.93741758639280      0.80162773000783
  O   -1.36939885828052     -0.70234598315732      2.14343862460554
  N   -1.40643399961568     -0.75653999248604     -1.32271582571868
  H   -2.22790316207714     -1.34158512965946     -1.22065498742943
  H   -1.69512828401633      0.19021812271429     -1.52806756618013
  C   1.45444532033672     -0.10131499479167      1.08193400857101
  H   2.50304055415952      0.15910070296832      0.92315286027860
  H   1.41369039385310     -1.06705916216609      1.58703834785945
  H   1.02255557794792      0.65130776668369      1.74681368329794
  C   0.68227605081069      1.24320094531024     -0.91402015336594
  H   0.27862363164821      1.19752941676735     -1.92726012533772
  H   1.69667619297369      1.64167851076124     -0.98574377053623
  H   0.08664333361825      1.94335988510793     -0.32542459030314
