18
Coordinates from ORCA-job run
  C   -0.75591350806946     -0.53960184134911      0.15657950246510
  C   0.55150719200448      0.16281341692195      0.46626580372943
  F   -0.83790784987328     -1.69020781087844      0.95213610655719
  H   0.58051911078967      0.25761531471104      1.55452237752768
  N   -1.94986923527487      0.27496128749245      0.67175423202625
  O   -1.79308273660899      0.84918126929397      1.74273738408389
  O   -2.98949246372499      0.23370992860242      0.02142957034990
  N   -0.96538815604107     -0.79196823042234     -1.20211850567696
  H   -1.89957227291529     -1.13797095072774     -1.37680152080570
  H   -0.27068304541359     -1.43255546233069     -1.55950497040549
  C   0.60556051181073      1.54931779725025     -0.16770683834761
  H   1.56965671619536      2.01534954695915      0.04939364488958
  H   -0.17264619069476      2.20537344906731      0.22565278412242
  H   0.48905753493152      1.48197268696493     -1.25071364935173
  C   1.72709405971937     -0.70314352897716      0.01271155412289
  H   1.63917994141619     -1.72678730862940      0.38133580906982
  H   2.65895081406818     -0.28605468216842      0.40005209182655
  H   1.81202957768082     -0.72000488178014     -1.07772537618328
