18
Coordinates from ORCA-job run
  C   -0.80641819259104     -0.34766335833394     -0.00166582579901
  C   0.47876403936293      0.45692844029566      0.07196194232754
  F   -0.48955635590923     -1.69783584838382     -0.11367353846528
  H   0.19470036624481      1.45431860111095      0.41466185199178
  N   -1.60959264276081     -0.27286202806945      1.30462988817385
  O   -1.30887859217488      0.57828325716142      2.13324185753372
  O   -2.53768890979181     -1.07025353299700      1.38896114038500
  N   -1.71369139342583      0.07648054416176     -0.98736617730030
  H   -1.29253421998571      0.05777875679791     -1.90532516435251
  H   -2.53822533885881     -0.51315190649580     -0.97582938545920
  C   1.11136356478059      0.56485553796630     -1.31723742898597
  H   1.24349125520293     -0.42392823708186     -1.76498296768372
  H   2.09838901789795      1.02391989559324     -1.23371066622148
  H   0.52415230748159      1.19022698386667     -1.99316887030877
  C   1.46689093796344     -0.15908903796912      1.06111495755902
  H   1.81691836647520     -1.12942121712893      0.70529669768719
  H   1.02952278736669     -0.28679591152877      2.05107988756752
  H   2.33239300272197      0.49920906103480      1.16401180135063
