18
Coordinates from ORCA-job run
  C   -0.63180343035747     -0.80010036478082     -0.14057909202533
  C   0.73170744824093     -0.13184513911276     -0.25976049860449
  F   -0.47528341954276     -2.10119653002779      0.22354854633771
  H   1.26795132233432     -0.81477539204873     -0.92946078250075
  N   -1.38855101859346     -0.14886036932697      1.05259863750838
  O   -1.36797358037470     -0.70579915777333      2.14158079779348
  O   -1.92652094502757      0.92826778392375      0.79619062250010
  N   -1.39905459154166     -0.76423616125843     -1.32513072067400
  H   -1.70260218472959      0.17921147855324     -1.52456643008893
  H   -2.21108500985182     -1.36317608465659     -1.22797596385647
  C   1.45284578840456     -0.09038102676571      1.08575968321654
  H   1.41698223059379     -1.05540175565215      1.59269229910412
  H   2.50021797366122      0.17629883801509      0.92922197541504
  H   1.01476163629764      0.66085912908485      1.74817017244369
  C   0.67750650510746      1.24495853415400     -0.91537633536071
  H   0.27319612363190      1.19403002877087     -1.92803443476196
  H   0.07884833212699      1.94380921500446     -0.32821311257759
  H   1.68985681962026      1.64833697389702     -0.98866536386881
