13

C	-0.588434	-0.01206	-1.397548
C	0.0	0.0	0.0
F	-0.43518	1.165095	-2.109094
H	1.08975	0.0	0.0
H	-1.661991	-0.231659	-1.344843
H	-0.076521	-0.812281	-1.93619
N	-0.407828	-1.223585	0.636157
H	-1.222202	-1.052521	1.21304
H	0.355381	-1.514214	1.23869
N	-0.451697	1.214911	0.748435
O	-1.180399	1.070507	1.74224
O	-0.050242	2.303513	0.343526
H	2.724258	0.0	0.0
