13

C	-0.525035	-0.073121	-1.412763
C	0.0	0.0	0.0
F	-0.339963	1.127622	-2.087308
H	1.089408	0.0	0.0
H	0.030247	-0.854547	-1.941394
H	-1.600434	-0.283404	-1.4217
N	-0.392403	-1.139306	0.781295
H	0.404905	-1.758712	0.863184
H	-1.204736	-1.621817	0.421774
N	-0.603288	1.225461	0.629678
O	-1.837736	1.243234	0.696321
O	0.129428	2.120121	1.033851
H	2.814464	0.0	0.0
