13

C	-0.524717	-0.075695	-1.413188
C	0.0	0.0	0.0
F	-0.365073	1.130912	-2.08336
H	1.089413	0.0	0.0
H	-1.594685	-0.312231	-1.417786
H	0.048023	-0.842313	-1.942201
N	-0.387257	-1.139031	0.785695
H	-1.186954	-1.637553	0.419375
H	0.418038	-1.746594	0.876151
N	-0.601306	1.225083	0.631911
O	-1.834662	1.242074	0.701877
O	0.131517	2.118392	1.038845
H	2.834972	0.0	0.0
