13

C	-0.408657	-0.034511	-1.441919
C	0.0	0.0	0.0
F	-1.764805	-0.394694	-1.586817
H	1.091632	0.0	0.0
H	-0.267271	0.926457	-1.928031
H	0.183913	-0.806586	-1.937544
N	-0.42497	-1.128587	0.760716
H	0.376824	-1.712682	0.958314
H	-1.155934	-1.647775	0.297954
N	-0.426731	1.287394	0.643504
O	-0.3728	2.305046	-0.058173
O	-0.699812	1.29871	1.84117
H	2.679096	0.0	0.0
