15

C	0.0	0.0	0.0
C	-0.628672	-0.029255	-1.370456
Br	2.013285	0.0	0.0
H	-1.745063	-0.120745	-0.995295
H	-0.275473	-0.91205	0.530406
N	-0.439449	1.14927	0.718267
H	-0.715804	0.935063	1.662411
H	0.217867	1.911744	0.684669
C	-0.236976	-1.191815	-2.139627
N	0.054749	-2.134882	-2.781853
C	-0.488805	1.265366	-2.155151
H	-0.993624	2.05576	-1.596713
H	-0.97532	1.169301	-3.12856
H	0.560189	1.537137	-2.317926
H	-3.018205	0.0	0.0
