15

C	0.0	0.0	0.0
C	-0.443536	0.158526	-1.467783
Br	1.955985	0.0	0.0
H	0.27955	0.829868	-1.944297
H	-0.277048	-0.990095	0.371929
N	-0.45592	1.10844	0.794435
H	-0.208654	0.924463	1.762194
H	-1.486731	0.974073	0.713881
C	-1.76296	0.802137	-1.693584
N	-2.442676	1.4397	-2.432121
C	-0.429297	-1.19413	-2.182916
H	-1.233812	-1.813772	-1.778739
H	-0.596409	-1.056817	-3.25086
H	0.529472	-1.699046	-2.038862
H	-2.656778	0.0	0.0
