15

C	0.0	0.0	0.0
C	-0.295339	0.055894	-1.55204
Br	1.966579	0.0	0.0
H	0.545613	-0.405668	-2.075458
H	-0.27087	-1.000347	0.341616
N	-0.639773	0.945394	0.831506
H	-0.558111	1.876509	0.435792
H	-1.649088	0.688731	0.816513
C	-0.300132	1.456396	-1.976132
N	-0.297037	2.577303	-2.328513
C	-1.570712	-0.678211	-1.967996
H	-2.428843	-0.365793	-1.346551
H	-1.768998	-0.509221	-3.032
H	-1.41885	-1.751626	-1.810568
H	-3.451103	0.0	0.0
