15

C	0.0	0.0	0.0
C	-0.557538	-0.063199	-1.419525
Br	1.950848	0.0	0.0
H	-1.659026	-0.136083	-1.194891
H	-0.239521	-0.952207	0.489857
N	-0.559777	1.148065	0.64468
H	-0.355638	1.093546	1.63782
H	-1.589107	0.967804	0.542921
C	-0.139666	-1.275305	-2.112421
N	0.180391	-2.23821	-2.706171
C	-0.275806	1.184276	-2.254903
H	0.788671	1.266635	-2.494082
H	-0.580755	2.061168	-1.682423
H	-0.847535	1.145519	-3.18751
H	-3.004114	0.0	0.0
