15

C	0.0	0.0	0.0
C	-0.544482	-0.061193	-1.436787
Br	1.956351	0.0	0.0
H	-1.642265	-0.169252	-1.206279
H	-0.265947	-0.944474	0.477976
N	-0.541178	1.052119	0.804098
H	-0.381091	1.941434	0.343866
H	-1.565852	0.846307	0.764443
C	-0.083821	-1.241892	-2.150788
N	0.259031	-2.197133	-2.743877
C	-0.326584	1.196804	-2.266891
H	-0.769679	1.073904	-3.257561
H	-0.823942	2.042696	-1.792548
H	0.734919	1.42335	-2.384148
H	-3.001919	0.0	0.0
