15

C	-0.419516	-0.001646	-1.45721
C	0.0	0.0	0.0
Cl	-2.193665	0.213638	-1.621363
H	1.091065	0.0	0.0
H	-0.301387	0.972432	0.403346
C	0.321302	1.072202	-2.22204
H	1.39521	0.89491	-2.104424
H	0.079564	2.047036	-1.795077
H	0.037116	1.052581	-3.272573
N	-0.104378	-1.342574	-2.12426
O	0.308837	-2.2517	-1.415449
O	-0.284477	-1.398341	-3.336823
C	-0.596963	-1.030897	0.834854
N	-1.115822	-1.799681	1.553696
Cl	3.309288	0.0	0.0
