15

C	-0.602731	0.064822	-1.401482
C	0.0	0.0	0.0
Cl	0.113438	-1.191107	-2.432239
H	1.090064	0.0	0.0
H	-0.319324	0.886935	0.556322
C	-2.112799	-0.042543	-1.436755
H	-2.417019	-0.995878	-1.005246
H	-2.469245	0.025143	-2.462488
H	-2.550042	0.770227	-0.848458
N	-0.228202	1.406755	-2.042356
O	0.578071	2.120684	-1.45284
O	-0.784612	1.670291	-3.106621
C	-0.49725	-1.186231	0.690079
N	-0.932725	-2.129943	1.23668
Cl	3.384045	0.0	0.0
