15

C	-0.454863	0.077088	-1.446352
C	0.0	0.0	0.0
Cl	-2.19681	0.489364	-1.539677
H	1.09171	0.0	0.0
H	-0.293605	0.948376	0.461958
C	0.375614	1.079016	-2.218876
H	1.426387	0.780965	-2.144971
H	0.047962	1.117578	-3.257441
H	0.268206	2.06452	-1.763204
N	-0.289125	-1.26713	-2.157354
O	0.315561	-2.149316	-1.559492
O	-0.725104	-1.337333	-3.301955
C	-0.596976	-1.077623	0.774166
N	-1.116571	-1.901297	1.429351
Cl	3.32004	0.0	0.0
