15

C	-0.41371	0.010986	-1.463757
C	0.0	0.0	0.0
Cl	0.018638	1.592188	-2.163313
H	1.093115	0.0	0.0
H	-0.36899	0.886792	0.514798
C	0.236408	-1.099493	-2.249331
H	-0.107445	-2.065468	-1.872195
H	1.314496	-1.017062	-2.093038
H	-0.00509	-1.022698	-3.307509
N	-1.939084	-0.060299	-1.577973
O	-2.410194	-0.649163	-2.547321
O	-2.589099	0.509025	-0.706796
C	-0.502201	-1.199843	0.659965
N	-0.904567	-2.176555	1.172277
Cl	3.307054	0.0	0.0
