15

C	-0.579391	-0.015459	-1.407084
C	0.0	0.0	0.0
Cl	0.086012	-1.420745	-2.267306
H	1.090091	0.0	0.0
H	-0.311329	-0.933698	0.479831
C	-2.092421	-0.05831	-1.452462
H	-2.439018	-0.932244	-0.897963
H	-2.500522	0.842599	-0.988701
H	-2.435569	-0.122053	-2.482851
N	-0.123809	1.22475	-2.180279
O	-0.650819	1.403122	-3.275707
O	0.71458	1.944761	-1.655532
C	-0.53965	1.113827	0.77206
N	-1.045809	1.980804	1.380608
Cl	3.349726	0.0	0.0
