15

C	-0.424094	0.024168	-1.457507
C	0.0	0.0	0.0
Cl	-2.211055	-0.007079	-1.622833
H	1.093954	0.0	0.0
H	-0.352723	-0.906847	0.490548
C	0.1577	1.194978	-2.205991
H	1.244732	1.155951	-2.101675
H	-0.126327	1.162397	-3.255338
H	-0.210788	2.117417	-1.755331
N	0.037796	-1.282541	-2.112841
O	0.1785	-1.265383	-3.331198
O	0.176925	-2.261246	-1.388457
C	-0.500259	1.17388	0.700277
N	-0.92394	2.114172	1.26122
Cl	3.289833	0.0	0.0
