15

C	0.0	0.0	0.0
C	-0.539281	-0.067286	-1.429204
Cl	1.758977	0.0	0.0
H	-1.644703	-0.011787	-1.247847
H	-0.229671	-0.965095	-1.950496
N	-0.524741	0.996074	0.844393
H	-1.556332	0.816736	0.74157
H	-0.307002	1.886969	0.414032
N	-0.384433	-1.37505	0.631833
O	-0.636334	-1.398823	1.822612
O	-0.329914	-2.353861	-0.107209
N	-0.092134	1.068814	-2.261328
O	0.162257	0.825564	-3.443257
O	-0.035068	2.197726	-1.770266
F	-2.761053	0.0	0.0
