16

C	0.0	0.0	0.0
C	-0.263546	0.052989	-1.562524
Cl	1.787538	0.0	0.0
H	0.51087	-0.59213	-1.988169
N	-0.650862	1.058796	0.665763
H	-0.503198	0.961177	1.668425
H	-1.694128	0.80863	0.479049
C	-0.348862	-1.364746	0.474855
N	-0.517157	-2.446779	0.905161
C	0.044754	1.410326	-2.026612
N	0.260822	2.471291	-2.482175
C	-1.581651	-0.426692	-2.177936
H	-2.41918	0.203619	-1.900129
H	-1.820488	-1.425557	-1.812665
H	-1.429066	-0.4582	-3.264706
H	-2.968877	0.0	0.0
