16

C	0.0	0.0	0.0
C	-0.25781	0.002312	-1.563655
Cl	1.787372	0.0	0.0
H	0.502988	-0.673805	-1.966833
N	-0.64409	1.095286	0.617938
H	-0.490563	1.044865	1.623918
H	-1.686556	0.844713	0.450942
C	-0.367995	-1.331595	0.537298
N	-0.566544	-2.377665	1.036058
C	0.085153	1.339042	-2.066838
N	0.339972	2.371709	-2.56474
C	-1.590799	-0.45553	-2.162023
H	-1.853197	-1.439931	-1.77633
H	-1.450037	-0.509406	-3.25014
H	-2.41005	0.199972	-1.885712
H	-2.988745	0.0	0.0
