16

C	0.0	0.0	0.0
C	-0.501109	-0.027025	-1.465327
Cl	1.792134	0.0	0.0
H	-1.604889	-0.129984	-1.28348
N	-0.535521	1.067758	0.783769
H	-0.312178	1.947884	0.330036
H	-1.572139	0.89884	0.698597
C	-0.374288	-1.277242	0.646005
N	-0.549927	-2.310859	1.176317
C	0.00638	-1.178156	-2.198546
N	0.418927	-2.078797	-2.832647
C	-0.212996	1.262735	-2.228938
H	-0.561029	1.164597	-3.259424
H	0.856437	1.489615	-2.246503
H	-0.755151	2.095041	-1.776736
H	-2.89685	0.0	0.0
