16

C	0.0	0.0	0.0
C	-0.539661	-0.068745	-1.430571
Cl	1.835544	0.0	0.0
H	-1.640957	-0.191907	-1.21363
N	-0.565751	1.141582	0.628962
H	-1.607145	0.943311	0.518162
H	-0.359668	1.10855	1.623651
C	-0.301027	-1.276247	0.699447
N	-0.473748	-2.2653	1.31214
C	-0.039325	-1.229979	-2.150712
N	0.338487	-2.143746	-2.787259
C	-0.31767	1.219707	-2.217156
H	0.746501	1.45125	-2.306555
H	-0.817814	2.039839	-1.704739
H	-0.741387	1.111585	-3.218791
H	-2.906241	0.0	0.0
