16

C	0.0	0.0	0.0
C	-0.230777	-0.005652	-1.587195
Cl	1.799152	0.0	0.0
H	0.556786	-0.649767	-1.988609
N	-0.612461	1.004861	0.76857
H	-1.656613	0.771452	0.643717
H	-0.43942	1.899316	0.320236
C	-0.391098	-1.324551	0.516986
N	-0.58162	-2.402344	0.94569
C	0.067813	1.347954	-2.062391
N	0.279848	2.434597	-2.456696
C	-1.542258	-0.495376	-2.206691
H	-1.813425	-1.466533	-1.796994
H	-1.357741	-0.589167	-3.284284
H	-2.37323	0.168887	-1.995482
H	-2.941628	0.0	0.0
