16

C	0.0	0.0	0.0
C	-0.633494	-0.044615	-1.390986
Cl	1.776697	0.0	0.0
H	-1.750961	-0.104599	-1.115307
N	-0.505351	1.209198	0.595539
H	-0.190902	1.244064	1.559617
H	-1.535545	1.044418	0.571592
C	-0.383235	-1.21208	0.76257
N	-0.605507	-2.100542	1.499404
N	-0.214898	-1.171845	-2.252805
O	-0.471017	-1.062053	-3.450249
O	0.280198	-2.160676	-1.718276
N	-0.352091	1.214105	-2.13582
O	-1.276555	2.011426	-2.254663
O	0.785895	1.361135	-2.57982
F	-2.772927	0.0	0.0
