16

C	0.0	0.0	0.0
C	-0.63656	-0.257335	-1.365826
Cl	1.776772	0.0	0.0
H	-1.754214	-0.27275	-1.07964
N	-0.506642	1.283753	0.407236
H	-0.194332	1.462837	1.355693
H	-1.5371	1.117155	0.406872
C	-0.379156	-1.084499	0.938018
N	-0.606787	-1.859554	1.791746
N	-0.223105	-1.50366	-2.045984
O	-0.493789	-1.58124	-3.242904
O	0.283206	-2.396309	-1.371174
N	-0.356333	0.871309	-2.296024
O	0.777558	0.940334	-2.769572
O	-1.277444	1.650011	-2.523078
F	-2.774987	0.0	0.0
