16

C	0.0	0.0	0.0
C	-0.2491	0.05132	-1.525311
Cl	1.834161	0.0	0.0
H	0.234402	0.959749	-1.873372
N	-0.479652	1.213469	0.570728
H	-1.526377	1.001632	0.498217
H	-0.207795	1.220094	1.549597
C	-0.406622	-1.233181	0.691131
N	-0.580574	-2.163647	1.38862
N	-1.649416	0.109607	-2.107015
O	-2.153301	-0.943135	-2.463827
O	-2.057204	1.238785	-2.334186
N	0.403715	-1.07409	-2.272628
O	0.408255	-2.19167	-1.774055
O	0.85473	-0.772951	-3.377863
F	-2.546807	0.0	0.0
