16

C	0.0	0.0	0.0
C	-0.209746	0.024168	-1.556487
Cl	1.850486	0.0	0.0
H	0.30872	-0.823754	-1.996862
N	-0.524579	0.992868	0.830633
H	-0.313512	1.897298	0.428549
H	-1.577707	0.76235	0.706594
C	-0.401038	-1.337762	0.460985
N	-0.570902	-2.433095	0.848856
N	0.405772	1.229858	-2.199323
O	0.318362	2.315318	-1.638339
O	0.93555	1.03215	-3.291804
N	-1.611052	-0.05159	-2.123138
O	-2.145328	0.99602	-2.451635
O	-1.999268	-1.186803	-2.348357
F	-2.603303	0.0	0.0
