16

C	0.0	0.0	0.0
C	-0.594299	0.062805	-1.422229
Cl	1.786507	0.0	0.0
H	-1.696798	-0.087052	-1.193408
N	-0.519816	1.015964	0.866943
H	-1.54961	0.857537	0.775474
H	-0.262033	1.918205	0.486089
C	-0.383431	-1.307469	0.574127
N	-0.567622	-2.342462	1.097272
N	-0.026293	-0.958028	-2.341239
O	0.815723	-0.600842	-3.164524
O	-0.427393	-2.108017	-2.176699
N	-0.439149	1.376446	-2.10366
O	-1.111915	1.505548	-3.123356
O	0.309765	2.232989	-1.63602
F	-2.749342	0.0	0.0
