16

C	0.0	0.0	0.0
C	-0.250697	0.138412	-1.533151
Cl	1.795642	0.0	0.0
H	0.342226	0.9877	-1.863803
N	-0.493345	1.093558	0.763165
H	-1.53804	0.897435	0.666899
H	-0.257049	1.958477	0.285963
C	-0.454817	-1.258538	0.60333
N	-0.633924	-2.252082	1.20452
N	-1.635917	0.454581	-2.05557
O	-1.915215	1.645968	-2.014323
O	-2.250675	-0.427831	-2.630647
N	0.244522	-1.012109	-2.3533
O	0.779624	-0.705374	-3.419933
O	0.06425	-2.150769	-1.940383
F	-2.570017	0.0	0.0
