13

C	0.0	0.0	0.0
C	-0.537831	0.385882	-1.373017
Cl	1.789462	0.0	0.0
H	-0.236845	-0.363675	-2.11173
H	-0.302991	0.757593	0.72377
H	-1.636185	0.378098	-1.289634
C	-0.512873	-1.361235	0.419203
H	-1.605676	-1.326345	0.42692
H	-0.16922	-2.129103	-0.280014
H	-0.149236	-1.614367	1.417611
C	-0.087252	1.698478	-1.825806
N	0.27954	2.749514	-2.198254
Br	-3.900845	0.0	0.0
