13

C	0.0	0.0	0.0
C	-0.533008	0.423622	-1.36505
Cl	1.789435	0.0	0.0
H	-1.631354	0.392155	-1.297752
H	-0.305346	0.735977	0.744995
H	-0.204033	-0.293203	-2.124426
C	-0.51436	-1.374081	0.374956
H	-0.141134	-1.668766	1.357808
H	-0.183758	-2.114783	-0.358847
H	-1.60674	-1.332015	0.393965
C	-0.103731	1.76166	-1.761482
N	0.244528	2.83662	-2.078692
Br	-3.890791	0.0	0.0
