13

C	0.0	0.0	0.0
C	-0.249583	0.148861	-1.521436
Cl	1.791762	0.0	0.0
H	0.354284	0.995208	-1.862597
H	-0.329602	0.886595	0.538813
H	0.196113	-0.736621	-1.988701
C	-0.565922	-1.258721	0.60259
H	-0.273669	-1.351211	1.651392
H	-0.210871	-2.139345	0.059915
H	-1.657892	-1.191701	0.538184
C	-1.554253	0.329894	-2.165894
N	-2.367301	0.477237	-3.001571
Br	-3.989908	0.0	0.0
