15

C	-0.397549	-0.003644	-1.467228
C	0.0	0.0	0.0
Br	-2.340254	-0.24919	-1.717842
H	1.095895	0.0	0.0
H	0.065377	-0.855735	-1.9638
C	-0.023365	1.236712	-2.129831
N	0.247314	2.234789	-2.687544
N	-0.378567	-1.32874	0.578783
O	-0.195853	-2.318928	-0.126996
O	-0.805273	-1.358506	1.731653
C	-0.529042	1.148056	0.823044
H	-0.195282	2.084134	0.370723
H	-0.114218	1.092548	1.827987
H	-1.618762	1.138869	0.886555
Br	3.368581	0.0	0.0
