18

C	-0.438372	0.071073	-1.468949
C	0.0	0.0	0.0
Cl	0.135088	-1.474597	-2.312464
H	1.094981	0.0	0.0
N	-1.854074	0.220672	-1.584222
H	-2.063839	0.417713	-2.555756
H	-2.324542	-0.632347	-1.310599
N	0.185077	1.160124	-2.181802
H	1.185549	0.971218	-2.192223
H	0.059762	1.954887	-1.556532
C	-0.536422	-1.190529	0.782705
H	-1.631198	-1.1546	0.857657
H	-0.13186	-1.157411	1.797577
H	-0.241235	-2.14023	0.335258
N	-0.376905	1.295928	0.582447
H	-1.334956	1.270713	0.911506
H	0.2408	1.486242	1.362189
Cl	3.490271	0.0	0.0
