18

C	-0.57948	-0.005447	-1.419636
C	0.0	0.0	0.0
Cl	0.109343	-1.461328	-2.341289
H	1.093346	0.0	0.0
N	-2.02097	-0.140367	-1.350314
H	-2.261218	-1.074333	-1.037928
H	-2.402774	-0.038743	-2.284796
N	-0.163127	1.162472	-2.109968
H	-0.203999	1.924197	-1.440327
H	-0.739226	1.347346	-2.920097
C	-0.452462	-1.197017	0.833129
H	-0.219911	-2.143449	0.341323
H	-1.525798	-1.15431	1.052207
H	0.087536	-1.178288	1.781906
N	-0.389421	1.287216	0.598228
H	-1.31182	1.215208	1.011652
H	0.283931	1.518805	1.318372
Cl	3.539542	0.0	0.0
