19

C	-0.522196	0.033964	-1.426232
C	0.0	0.0	0.0
Br	0.383475	1.475078	-2.459624
H	1.094327	0.0	0.0
N	-0.169759	-1.182901	-2.14336
H	-0.68659	-1.952622	-1.730747
H	-0.445518	-1.093112	-3.115589
N	-1.937556	0.403617	-1.467483
H	-2.437049	-0.263703	-0.885107
H	-2.27696	0.308586	-2.420004
C	-0.369031	-1.315063	0.691224
H	0.165132	-2.148233	0.22927
H	-0.016552	-1.258954	1.724565
H	-1.448769	-1.538586	0.725606
C	-0.471214	1.194009	0.818315
H	0.100098	1.211456	1.751717
H	-1.542531	1.17012	1.05638
H	-0.265931	2.127973	0.29072
F	2.667271	0.0	0.0
