19

C	-0.145734	-0.084424	-1.536548
C	0.0	0.0	0.0
Br	-0.082069	1.786921	-2.318216
H	1.096912	0.0	0.0
N	1.00481	-0.7436	-2.11886
H	1.830903	-0.478824	-1.539373
H	0.867962	-1.741875	-1.988424
N	-1.405533	-0.617572	-1.995796
H	-1.317395	-0.807427	-2.989567
H	-1.573164	-1.494675	-1.513261
C	-0.428577	-1.328221	0.626196
H	0.013035	-2.18272	0.102453
H	-1.519787	-1.454067	0.668558
H	-0.049011	-1.365343	1.652631
C	-0.663011	1.160943	0.712858
H	-0.578561	1.021416	1.798761
H	-0.176956	2.104396	0.458678
H	-1.728498	1.23909	0.456014
F	2.752039	0.0	0.0
