15

C	-0.625378	-0.038708	-1.384485
C	0.0	0.0	0.0
Cl	0.069326	-1.289256	-2.424155
H	1.092645	0.0	0.0
H	-1.702247	-0.205797	-1.34425
N	-0.482908	1.296377	-2.064979
O	-1.530229	1.926044	-2.230353
O	0.636227	1.670053	-2.381306
N	-0.396162	-1.221778	0.686561
H	-1.218307	-1.065402	1.259164
H	0.374537	-1.495244	1.286989
N	-0.366099	1.269794	0.61345
H	-1.202641	1.193115	1.17868
H	0.410836	1.556133	1.198813
H	2.809784	0.0	0.0
