15

C	-0.405935	-0.013524	-1.476339
C	0.0	0.0	0.0
Cl	0.212056	1.387525	-2.355733
H	1.100502	0.0	0.0
H	-0.023362	-0.913239	-1.954593
N	-1.901997	-0.073853	-1.607753
O	-2.381	-1.204984	-1.451297
O	-2.555021	0.947538	-1.769946
N	-0.376145	-1.202301	0.710728
H	0.382157	-1.86849	0.619366
H	-1.23753	-1.608165	0.368286
N	-0.615741	1.153273	0.654139
H	-0.470322	0.987657	1.643111
H	-0.068499	1.974842	0.413761
H	2.841836	0.0	0.0
