15

C	-0.588871	-0.019929	-1.412035
C	0.0	0.0	0.0
Cl	0.091119	-1.305715	-2.406536
H	1.093086	0.0	0.0
H	-1.667743	-0.166233	-1.365288
N	-0.417404	1.307115	-2.10882
O	-1.345222	2.103837	-1.922523
O	0.593917	1.542639	-2.750126
N	-0.478354	-1.235037	0.632637
H	-0.955526	-0.941492	1.476763
H	0.351175	-1.7476	0.919325
N	-0.415758	1.179126	0.750069
H	-1.103506	1.740023	0.264925
H	0.414108	1.745421	0.895754
H	2.839424	0.0	0.0
