15

C	-0.437088	0.019391	-1.44795
C	0.0	0.0	0.0
Cl	-2.203316	-0.199611	-1.67941
H	1.102429	0.0	0.0
H	-0.175083	0.965013	-1.913129
N	0.242724	-1.030877	-2.281601
O	0.154951	-2.200481	-1.915452
O	0.835766	-0.637524	-3.284315
N	-0.442158	-1.133001	0.781256
H	-1.266873	-1.560832	0.376459
H	0.304755	-1.818574	0.77239
N	-0.472543	1.268742	0.579688
H	-0.754811	1.033447	1.523139
H	0.358897	1.854087	0.667091
H	2.805633	0.0	0.0
