15

C	-0.594092	0.033871	-1.40918
C	0.0	0.0	0.0
Cl	-0.013452	-1.28922	-2.423334
H	1.09901	0.0	0.0
H	-1.679448	-0.040334	-1.350476
N	-0.332324	1.352955	-2.087978
O	-1.199201	2.210023	-1.884526
O	0.690548	1.520253	-2.733525
N	-0.535714	-1.230473	0.608624
H	0.187559	-1.939322	0.50524
H	-0.580991	-1.013365	1.598263
N	-0.404511	1.14925	0.785637
H	-1.227544	1.613299	0.423813
H	0.368668	1.804957	0.796687
H	2.874537	0.0	0.0
