15

C	-0.564216	0.033942	-1.400028
C	0.0	0.0	0.0
Cl	-2.340721	0.273317	-1.414522
H	1.093163	0.0	0.0
H	-0.119538	0.846465	-1.967737
N	-0.232937	-1.227826	-2.148339
O	-1.008225	-2.175012	-2.121405
O	0.857255	-1.199584	-2.716504
N	-0.38734	-1.216882	0.681066
H	-1.2871	-1.13313	1.140263
H	0.329174	-1.429424	1.365761
N	-0.321628	1.286344	0.614286
H	0.441272	1.504949	1.249406
H	-1.188385	1.228915	1.139918
H	2.780384	0.0	0.0
