15

C	-0.488117	-0.072489	-1.430859
C	0.0	0.0	0.0
Cl	0.123732	1.246391	-2.44109
H	1.099207	0.0	0.0
H	-0.183333	-1.018894	-1.866596
N	-1.995643	-0.064028	-1.481007
O	-2.54065	-1.164085	-1.570541
O	-2.581853	1.008187	-1.354171
N	-0.401903	-1.229099	0.663729
H	0.36928	-1.510714	1.259906
H	-1.211429	-1.036977	1.241698
N	-0.497193	1.191698	0.699927
H	0.271313	1.491414	1.294862
H	-0.637975	1.948503	0.040071
H	2.811507	0.0	0.0
