15

C	-0.497832	0.048111	-1.429418
C	0.0	0.0	0.0
Cl	-2.270748	0.135618	-1.578527
H	1.097585	0.0	0.0
H	-0.076613	0.901861	-1.958335
N	0.006657	-1.155355	-2.184839
O	-0.641271	-2.193403	-2.163605
O	1.085694	-0.98399	-2.749982
N	-0.447769	-1.1834	0.674318
H	-1.327874	-1.017853	1.145305
H	0.262651	-1.469526	1.334717
N	-0.455945	1.234349	0.677962
H	0.019941	1.207091	1.578338
H	-0.011557	2.015179	0.194706
H	2.820079	0.0	0.0
