16

C	0.0	0.0	0.0
C	-0.591953	0.201273	-1.397252
Cl	1.855226	0.0	0.0
H	-1.657261	-0.008234	-1.220234
N	-0.516416	0.964733	0.853744
H	-0.219971	0.907965	1.813316
H	-0.488572	1.883464	0.436693
C	-0.30388	-1.354229	0.488134
N	-0.511969	-2.441428	0.878668
N	-0.048717	-0.779918	-2.306068
H	-0.609264	-0.815965	-3.147367
H	0.910444	-0.557383	-2.546852
N	-0.469441	1.615195	-1.751902
H	0.287154	1.749717	-2.410466
H	-1.337424	1.932694	-2.164475
Cl	-3.892826	0.0	0.0
