16

C	0.0	0.0	0.0
C	-0.440222	-0.039616	-1.572739
Cl	1.792445	0.0	0.0
H	0.508566	-0.203493	-2.094036
N	-0.530808	1.145278	0.673823
H	-0.29754	1.099651	1.660766
H	-1.551742	1.062445	0.585118
C	-0.332262	-1.288319	0.638712
N	-0.541866	-2.32708	1.148909
N	-1.017804	1.210183	-2.005448
H	-2.018498	1.145895	-1.849335
H	-0.677435	1.96157	-1.418034
N	-1.318392	-1.116552	-1.942184
H	-2.189402	-1.031294	-1.416811
H	-0.901916	-2.010215	-1.709066
Cl	-3.637301	0.0	0.0
