16

C	0.0	0.0	0.0
C	-0.436593	0.106254	-1.54226
Cl	1.789619	0.0	0.0
H	0.489165	0.067618	-2.120624
N	-0.493779	1.004713	0.89623
H	-1.492475	0.816101	1.021375
H	-0.424962	1.885415	0.393119
C	-0.363729	-1.329603	0.515184
N	-0.564075	-2.420303	0.90103
N	-1.018099	1.423732	-1.716528
H	-1.952873	1.385649	-1.306524
H	-1.153703	1.547913	-2.713715
N	-1.297847	-0.941144	-2.048651
H	-0.887396	-1.857717	-1.909554
H	-2.183281	-0.911459	-1.542327
Cl	-3.646501	0.0	0.0
