16

C	0.0	0.0	0.0
C	-0.445342	-0.388328	-1.480989
Cl	1.822796	0.0	0.0
H	0.48968	-0.468814	-2.0395
N	-0.474141	1.308534	0.353276
H	-0.228874	1.500498	1.318796
H	-1.49531	1.250246	0.299221
C	-0.335845	-1.029772	0.999296
N	-0.547913	-1.773846	1.884391
N	-1.257089	0.596371	-2.164769
H	-2.181444	0.599758	-1.736075
H	-0.849572	1.517599	-2.040636
N	-1.047399	-1.703851	-1.45074
H	-1.251752	-1.952753	-2.412835
H	-1.945253	-1.62029	-0.97422
Cl	-3.598359	0.0	0.0
