16

C	0.0	0.0	0.0
C	-0.527829	-0.165753	-1.43634
Cl	1.804996	0.0	0.0
H	-1.602868	-0.306042	-1.274049
N	-0.48185	1.177237	0.658349
H	-0.422353	1.915253	-0.04086
H	-1.479653	1.009738	0.823288
C	-0.347116	-1.190625	0.795513
N	-0.552332	-2.147162	1.443998
N	0.0135	-1.358121	-2.046984
H	0.988292	-1.226785	-2.290882
H	-0.511675	-1.582138	-2.882839
N	-0.342415	1.106379	-2.141872
H	0.403582	1.030323	-2.816976
H	-1.200266	1.353003	-2.618421
Cl	-3.634477	0.0	0.0
