17

C	-0.498846	0.032791	-1.439471
C	0.0	0.0	0.0
F	-0.228667	-1.240396	-1.987008
H	1.093729	0.0	0.0
H	-0.346275	-0.937379	0.456361
C	-2.001218	0.21848	-1.522785
H	-2.507392	-0.577979	-0.968356
H	-2.329128	0.170698	-2.564843
H	-2.28255	1.183314	-1.099403
C	0.269231	1.050334	-2.253931
H	1.334902	0.816805	-2.204813
H	-0.063381	1.040548	-3.296586
H	0.11338	2.045138	-1.832242
N	-0.449815	1.201142	0.722394
H	-1.227923	0.976185	1.329541
H	0.312153	1.521946	1.307467
Br	3.748158	0.0	0.0
