16

C	0.0	0.0	0.0
C	-0.473456	0.074367	-1.431893
Cl	1.840717	0.0	0.0
H	-1.541988	0.325332	-1.339181
H	0.053746	0.878524	-1.944192
N	-0.229203	1.420165	0.670292
O	-0.352641	1.423583	1.890592
O	-0.228366	2.415979	-0.042894
N	-0.627244	-0.997718	0.709036
H	-1.677722	-0.780237	0.523158
H	-0.44651	-0.883596	1.7016
C	-0.321525	-1.25697	-2.152907
H	0.714358	-1.609618	-2.140012
H	-0.94918	-2.012575	-1.679038
H	-0.635483	-1.150925	-3.196516
H	-2.974733	0.0	0.0
