16

C	0.0	0.0	0.0
C	-0.490054	0.159746	-1.420976
Cl	1.808952	0.0	0.0
H	-1.558835	0.397342	-1.303521
H	0.028491	0.997563	-1.887143
N	-0.246391	1.373045	0.759284
O	-0.361185	1.298621	1.978187
O	-0.255469	2.411397	0.109941
N	-0.617964	-1.049752	0.650897
H	-1.662119	-0.836165	0.492574
H	-0.424008	-1.003225	1.646216
C	-0.335851	-1.122194	-2.22562
H	0.700761	-1.47068	-2.24261
H	-0.657928	-0.952707	-3.257875
H	-0.955799	-1.90962	-1.796484
H	-3.00144	0.0	0.0
