14

C	-0.320067	-0.089542	-1.528225
C	0.0	0.0	0.0
Br	0.128714	1.649519	-2.322983
H	1.107761	0.0	0.0
N	0.460121	-1.100914	-2.184568
H	0.160611	-2.017799	-1.864882
H	1.43954	-0.967632	-1.921276
C	-1.750638	-0.314487	-1.751006
N	-2.900089	-0.526623	-1.877627
C	-0.437166	-1.245131	0.629029
N	-0.782591	-2.270008	1.09085
C	-0.557331	1.152827	0.690108
N	-1.006478	2.069352	1.273685
Br	3.302519	0.0	0.0
