14

C	-0.397333	-0.020811	-1.491286
C	0.0	0.0	0.0
Br	0.154679	1.761646	-2.288331
H	1.097772	0.0	0.0
N	0.23021	-1.13363	-2.082143
H	0.03197	-1.208852	-3.072444
H	1.236379	-1.104291	-1.909454
C	-1.851249	-0.051961	-1.67327
N	-3.019554	-0.08106	-1.804212
C	-0.472701	-1.224685	0.649651
N	-0.848369	-2.19752	1.190786
C	-0.501598	1.168225	0.718629
N	-0.90455	2.090651	1.324425
Br	3.321755	0.0	0.0
