14

C	-0.539211	-0.083367	-1.46326
C	0.0	0.0	0.0
Br	0.200531	-1.70752	-2.264177
H	1.10405	0.0	0.0
N	-1.97568	-0.136394	-1.600196
H	-2.378151	0.719115	-1.228239
H	-2.334082	-0.929383	-1.078005
C	-0.045814	1.069712	-2.22136
N	0.266304	2.024498	-2.83159
C	-0.501419	-1.136809	0.767381
N	-0.95102	-2.043622	1.364627
C	-0.495628	1.242741	0.591137
N	-0.940476	2.244558	1.016115
Br	3.29436	0.0	0.0
