14

C	-0.261388	0.253236	-1.501012
C	0.0	0.0	0.0
Br	-2.182616	0.578683	-1.852753
H	1.107783	0.0	0.0
N	0.48659	1.42064	-1.854773
H	0.458856	1.572377	-2.85624
H	1.457586	1.285249	-1.554935
C	0.072562	-0.951311	-2.279402
N	0.396837	-1.848522	-2.969286
C	-0.525337	-1.273593	0.469052
N	-0.95179	-2.298022	0.854564
C	-0.486727	1.109845	0.811686
N	-0.907443	1.980148	1.478217
Br	3.297467	0.0	0.0
