16

C	0.0	0.0	0.0
C	-0.49124	-0.269897	-1.422298
Br	1.96848	0.0	0.0
H	-1.578483	-0.410927	-1.360928
H	-0.232455	0.574082	-2.056541
N	-0.474208	1.332765	0.298503
H	-0.247932	1.54205	1.266331
H	-1.498332	1.277877	0.241926
C	-0.42814	-1.051584	1.015707
H	-0.017785	-2.034668	0.792357
H	-0.087278	-0.740871	2.007426
H	-1.52063	-1.08978	1.000826
N	0.092575	-1.472766	-2.06371
O	0.750363	-1.301445	-3.091879
O	-0.129446	-2.569337	-1.551446
Cl	-3.651791	0.0	0.0
