16

C	0.0	0.0	0.0
C	-0.472088	-0.084409	-1.457828
Br	1.968801	0.0	0.0
H	-1.559526	-0.225306	-1.417403
H	-0.210618	0.828255	-1.991577
N	-0.487833	1.209836	0.605109
H	-0.320745	2.001614	-0.007942
H	-1.502761	1.09184	0.692667
C	-0.441438	-1.178716	0.850186
H	-1.532575	-1.22769	0.814704
H	-0.115341	-0.998496	1.875803
H	-0.021341	-2.113569	0.486561
N	0.11226	-1.191613	-2.258814
O	-0.141301	-2.346505	-1.918449
O	0.811654	-0.884337	-3.227176
Cl	-3.656859	0.0	0.0
