18

C	0.0	0.0	0.0
C	-0.491594	0.064001	-1.463353
Br	1.998672	0.0	0.0
H	-1.582591	0.122628	-1.31817
N	-0.436859	1.198336	0.666052
H	-0.175117	1.128899	1.644791
H	-1.466273	1.097223	0.593754
N	-0.477799	-1.260636	0.519199
H	-0.218588	-1.303636	1.500931
H	-1.506545	-1.089073	0.46809
C	-0.079921	-1.104281	-2.330103
H	-0.439332	-2.01967	-1.86417
H	1.002251	-1.156402	-2.441216
H	-0.528458	-1.003898	-3.322299
N	-0.091982	1.348018	-2.116581
O	0.965959	1.376097	-2.753792
O	-0.860038	2.303733	-2.015275
F	-2.81959	0.0	0.0
