18

C	0.0	0.0	0.0
C	-0.47723	0.088779	-1.482928
Br	1.963209	0.0	0.0
H	-1.555534	0.272253	-1.337778
N	-0.448254	1.076827	0.842047
H	-1.475261	0.963199	0.765968
H	-0.204156	1.966172	0.42022
N	-0.499008	-1.257345	0.488961
H	-1.525971	-1.094787	0.394141
H	-0.298675	-1.252827	1.485925
C	-0.220763	-1.14759	-2.31358
H	-0.732857	-1.983706	-1.842332
H	0.844859	-1.371786	-2.376244
H	-0.607119	-1.006892	-3.32595
N	0.09486	1.292347	-2.156084
O	-0.236571	2.40197	-1.72906
O	0.86601	1.136075	-3.104572
F	-2.818419	0.0	0.0
