18

C	0.0	0.0	0.0
C	-0.168871	0.119752	-1.569474
Br	2.054371	0.0	0.0
H	0.192896	1.115551	-1.834074
N	-0.691208	1.000271	0.698388
H	-1.726491	0.699368	0.545587
H	-0.52443	1.906037	0.275074
N	-0.43278	-1.241911	0.467884
H	0.085555	-2.028875	0.116278
H	-0.592096	-1.238908	1.463859
C	-1.553583	-0.131932	-2.1434
H	-2.326826	0.327162	-1.514188
H	-1.552298	0.200614	-3.188739
H	-1.770986	-1.198041	-2.085201
N	0.726257	-0.797174	-2.366779
O	1.348377	-0.302937	-3.307482
O	0.716093	-1.998597	-2.099733
F	-3.058986	0.0	0.0
