18

C	0.0	0.0	0.0
C	-0.163115	0.132688	-1.571431
Br	2.054029	0.0	0.0
H	0.210692	1.126949	-1.826592
N	-0.694573	0.992069	0.704052
H	-0.534245	1.901595	0.287201
H	-1.729336	0.682226	0.542489
N	-0.430533	-1.246535	0.456685
H	-0.595125	-1.252033	1.449547
H	0.093296	-2.028622	0.103415
C	-1.546506	-0.098529	-2.152356
H	-1.787637	-1.159437	-2.10693
H	-1.545577	0.244474	-3.191038
H	-2.311235	0.371306	-1.527537
N	0.729656	-0.784626	-2.369061
O	0.710632	-1.987303	-2.108513
O	1.358604	-0.29043	-3.304366
F	-3.043176	0.0	0.0
