15

C	-0.389335	-0.006925	-1.474654
C	0.0	0.0	0.0
Br	-2.335669	-0.282673	-1.745377
H	1.098072	0.0	0.0
H	0.084253	-0.84487	-1.991184
C	-0.048073	1.237402	-2.151148
N	0.221035	2.224788	-2.727789
C	-0.426173	-1.276705	0.712441
H	0.062574	-1.306738	1.688707
H	-1.510668	-1.317266	0.854062
H	-0.115363	-2.166374	0.157245
N	-0.470428	1.222054	0.636349
H	-1.242333	1.034046	1.261835
H	0.288494	1.631981	1.164043
Cl	3.377426	0.0	0.0
