15

C	-0.31753	-0.050631	-1.504009
C	0.0	0.0	0.0
Br	-2.242169	-0.363563	-1.879701
H	1.094727	0.0	0.0
H	0.202724	-0.888469	-1.971907
C	0.032176	1.192173	-2.179257
N	0.281356	2.214765	-2.701569
C	-0.467824	-1.254663	0.717343
H	-0.157351	-2.157116	0.183128
H	-1.555288	-1.269761	0.833806
H	-0.00911	-1.263138	1.706616
N	-0.473562	1.188459	0.68142
H	0.10775	1.979706	0.433596
H	-1.434362	1.394396	0.427839
Cl	3.385364	0.0	0.0
