15

C	-0.564329	0.072291	-1.41556
C	0.0	0.0	0.0
Br	0.086227	1.64312	-2.397038
H	1.101188	0.0	0.0
H	-1.64509	0.222305	-1.343985
C	-0.29689	-1.111317	-2.223178
N	-0.145237	-2.084021	-2.865158
C	-0.492856	-1.276576	0.667133
H	-0.120971	-2.162067	0.149482
H	-1.586838	-1.30169	0.707872
H	-0.105553	-1.313352	1.688462
N	-0.542222	1.157963	0.734702
H	-0.044485	1.980079	0.40485
H	-0.246264	1.045534	1.699521
Cl	3.462234	0.0	0.0
