15

C	-0.364981	0.096427	-1.477098
C	0.0	0.0	0.0
Br	-2.315291	-0.087233	-1.787721
H	1.094347	0.0	0.0
H	0.082314	-0.728029	-2.037857
C	0.034976	1.373222	-2.066856
N	0.313742	2.393082	-2.578688
C	-0.447697	-1.311009	0.634603
H	-0.02635	-1.366732	1.641223
H	-0.081902	-2.17624	0.074123
H	-1.538726	-1.372175	0.705657
N	-0.464742	1.195518	0.687119
H	-1.390314	1.051076	1.074616
H	0.176325	1.416389	1.438727
Cl	3.399707	0.0	0.0
