15

C	-0.516212	-0.072481	-1.450586
C	0.0	0.0	0.0
Br	0.15268	1.403542	-2.553187
H	1.093101	0.0	0.0
H	-1.604034	0.063594	-1.447221
C	-0.234545	-1.328816	-2.135658
N	-0.092561	-2.36325	-2.67563
C	-0.515071	-1.21033	0.768745
H	-0.160566	-1.125057	1.796376
H	-0.143337	-2.146562	0.347946
H	-1.612955	-1.237806	0.783651
N	-0.420559	1.223421	0.670309
H	-1.372546	1.473345	0.417943
H	0.191273	1.981055	0.389887
Cl	3.455885	0.0	0.0
