15

C	0.0	0.0	0.0
C	-0.557339	-0.376494	-1.359149
Br	1.962702	0.0	0.0
H	-0.317074	0.388967	-2.094749
H	-1.651558	-0.469526	-1.233956
C	-0.484577	1.405291	0.349
H	-0.110573	1.696762	1.331065
H	-0.122106	2.116416	-0.397352
H	-1.578582	1.377714	0.355246
C	-0.373975	-0.929394	1.06943
N	-0.593071	-1.607475	2.003881
N	-0.034099	-1.653154	-1.907002
O	0.099375	-2.600414	-1.137821
O	0.197898	-1.680275	-3.115808
Cl	-3.636075	0.0	0.0
