15

C	0.0	0.0	0.0
C	-0.187536	-0.143979	-1.53573
Br	1.967973	0.0	0.0
H	0.226283	-1.099692	-1.85231
H	0.360409	0.675777	-1.997934
C	-0.580309	1.267645	0.581834
H	-1.673199	1.179569	0.49906
H	-0.224247	2.132521	0.018296
H	-0.296733	1.368637	1.631326
C	-0.401687	-1.206131	0.719109
N	-0.667251	-2.198945	1.289274
N	-1.54568	-0.065508	-2.159434
O	-1.959593	1.062979	-2.405341
O	-2.061822	-1.127385	-2.489493
Cl	-3.772917	0.0	0.0
