15

C	0.0	0.0	0.0
C	-0.554947	-0.160979	-1.414869
Br	1.963734	0.0	0.0
H	-0.303839	-1.136051	-1.825956
H	-1.646934	-0.026238	-1.337798
C	-0.49173	1.232167	0.750743
H	-1.585265	1.19049	0.758352
H	-0.1538	2.135802	0.247664
H	-0.107492	1.211774	1.77165
C	-0.361927	-1.218061	0.733465
N	-0.56767	-2.207566	1.333583
N	-0.005885	0.835497	-2.36949
O	-0.176012	2.027863	-2.121713
O	0.574696	0.398023	-3.365604
Cl	-3.646995	0.0	0.0
