15

C	0.0	0.0	0.0
C	-0.549082	-0.13443	-1.421122
Br	1.963907	0.0	0.0
H	-0.299948	-1.102743	-1.84969
H	-1.639449	0.009729	-1.348899
C	-0.479577	1.236984	0.751959
H	-0.127738	1.192183	1.784143
H	-0.095254	2.136303	0.274763
H	-1.573153	1.233172	0.728254
C	-0.374633	-1.218634	0.721238
N	-0.599331	-2.210218	1.311033
N	0.018637	0.879578	-2.347452
O	0.672801	0.465448	-3.306153
O	-0.205014	2.06529	-2.109386
Cl	-3.62424	0.0	0.0
