15

C	0.0	0.0	0.0
C	-0.208776	-0.216323	-1.524356
Br	1.967884	0.0	0.0
H	0.093491	-1.227945	-1.789154
H	0.421024	0.509412	-2.036404
C	-0.569415	1.293589	0.537578
H	-0.225151	2.133773	-0.067473
H	-1.663122	1.206923	0.476884
H	-0.266058	1.434493	1.57667
C	-0.40392	-1.168347	0.7771
N	-0.675282	-2.136146	1.386175
N	-1.551114	0.002866	-2.150566
O	-2.121221	-0.985118	-2.597488
O	-1.887652	1.173493	-2.292986
Cl	-3.776625	0.0	0.0
