15

C	0.0	0.0	0.0
C	-0.569783	-0.390081	-1.360045
Br	1.967767	0.0	0.0
H	-0.329856	-1.420779	-1.612701
H	-1.665115	-0.260458	-1.283171
C	-0.491998	1.330731	0.561178
H	-1.58545	1.291247	0.567781
H	-0.145055	2.150081	-0.062854
H	-0.118408	1.454603	1.579167
C	-0.349652	-1.088624	0.919952
N	-0.538977	-1.96541	1.679726
N	-0.079594	0.423937	-2.503705
O	0.061562	-0.172679	-3.570884
O	0.110427	1.626836	-2.342868
Cl	-3.650786	0.0	0.0
