16

C	0.0	0.0	0.0
C	-0.269593	-0.157379	-1.536862
F	1.371	0.0	0.0
H	0.403899	0.618876	-1.918561
N	-0.62304	1.115345	0.535383
H	-0.420288	1.159345	1.528436
H	-1.656031	0.881753	0.399396
N	-0.336057	-1.280492	0.804178
O	0.046568	-1.260413	1.975726
O	-0.961926	-2.186429	0.269556
N	-1.571896	0.038032	-2.117998
H	-1.695168	1.038802	-2.215851
H	-2.277198	-0.21927	-1.391452
C	0.331471	-1.423524	-2.011426
N	0.837068	-2.384327	-2.458781
F	-2.933009	0.0	0.0
