16

C	0.0	0.0	0.0
C	-0.470342	0.104249	-1.496549
F	1.367406	0.0	0.0
H	0.476677	0.193891	-2.043717
N	-0.538251	0.998319	0.788273
H	-0.261736	0.841383	1.750719
H	-1.576379	0.794223	0.679538
N	-0.23435	-1.432206	0.603325
O	0.14737	-2.38243	-0.074021
O	-0.658793	-1.502747	1.751244
N	-1.311159	1.246665	-1.813985
H	-2.164736	1.039105	-1.272883
H	-0.877175	2.057317	-1.384884
C	-1.137011	-1.08915	-2.036743
N	-1.634935	-1.983798	-2.61031
F	-2.742576	0.0	0.0
