18

C	-0.552822	0.007122	-1.428765
C	0.0	0.0	0.0
Br	0.30612	-1.400721	-2.471851
H	1.09282	0.0	0.0
C	-2.056115	-0.140095	-1.525112
H	-2.358633	-1.099013	-1.106248
H	-2.535314	0.667481	-0.963599
H	-2.371944	-0.089494	-2.564624
N	-0.162269	1.313883	-2.134004
O	-0.746132	1.561304	-3.187236
O	0.700682	2.005625	-1.609046
C	-0.402655	-1.255147	0.789241
H	-0.08526	-2.149492	0.252637
H	0.13212	-1.233563	1.739831
H	-1.474892	-1.303826	0.990779
C	-0.512915	1.175543	0.702871
N	-1.011655	2.076814	1.26834
Br	3.459993	0.0	0.0
