18

C	-0.40113	-0.002264	-1.472506
C	0.0	0.0	0.0
Br	-2.34431	0.035396	-1.710413
H	1.096333	0.0	0.0
C	0.20951	1.13985	-2.271361
H	-0.044645	1.051037	-3.330522
H	-0.174807	2.089954	-1.897842
H	1.294314	1.11793	-2.151815
N	0.139506	-1.313064	-2.074343
O	-0.620344	-2.155068	-2.534873
O	1.358658	-1.415709	-2.011087
C	-0.492446	-1.212256	0.783466
H	-0.097294	-2.134135	0.347939
H	-0.126872	-1.150095	1.81142
H	-1.583435	-1.268251	0.80377
C	-0.440066	1.236911	0.613445
N	-0.779213	2.240289	1.13456
Br	2.749126	0.0	0.0
