16

C	-0.394142	-0.018758	-1.478078
C	0.0	0.0	0.0
Br	0.012664	1.721101	-2.270555
H	1.093705	0.0	0.0
H	-0.368429	0.913333	0.466038
C	0.296884	-1.108357	-2.26022
H	1.37088	-0.999868	-2.093105
H	-0.028853	-2.081205	-1.884423
H	0.064672	-1.054427	-3.321914
N	-1.909879	-0.148649	-1.609413
O	-2.597311	0.397497	-0.749826
O	-2.356686	-0.785129	-2.561113
N	-0.458629	-1.153513	0.752482
H	0.074007	-1.979392	0.519689
H	-1.449509	-1.322714	0.642545
Cl	3.478578	0.0	0.0
