16

C	-0.42744	0.042515	-1.466121
C	0.0	0.0	0.0
Br	0.091565	1.711249	-2.28506
H	1.091907	0.0	0.0
H	-0.327139	-0.98239	0.370163
C	0.179524	-1.103844	-2.250522
H	-0.116407	-2.053001	-1.800852
H	1.264618	-1.001197	-2.19242
H	-0.13859	-1.080861	-3.294481
N	-1.951121	-0.073069	-1.470327
O	-2.653945	0.915335	-1.630647
O	-2.381575	-1.204233	-1.223623
N	-0.520678	1.113394	0.773696
H	-1.330927	0.845179	1.316399
H	0.201075	1.44192	1.402083
Cl	3.50214	0.0	0.0
