16

C	-0.598384	-0.000939	-1.39768
C	0.0	0.0	0.0
Br	0.251419	-1.400211	-2.456603
H	1.090927	0.0	0.0
H	-0.320785	-0.942664	0.455556
C	-2.099417	-0.189132	-1.414215
H	-2.483975	-0.174141	-2.431752
H	-2.33773	-1.148215	-0.950662
H	-2.547527	0.615902	-0.829246
N	-0.275491	1.310873	-2.106995
O	-0.933882	1.579262	-3.11076
O	0.615981	2.007872	-1.637276
N	-0.572339	1.129138	0.749943
H	-0.685266	0.852162	1.716869
H	0.117337	1.871383	0.73606
Cl	3.543993	0.0	0.0
