16

C	-0.397919	-0.149001	-1.471998
C	0.0	0.0	0.0
Br	0.049245	1.83087	-2.336842
H	1.09329	0.0	0.0
N	0.410597	-1.084719	-2.094511
H	1.380073	-0.980184	-1.798788
H	0.344324	-1.052705	-3.102933
N	-1.777343	-0.347891	-1.663828
H	-2.287366	0.493014	-1.420589
H	-1.984579	-0.591935	-2.624327
N	-0.382079	-1.218392	0.708541
H	0.24518	-1.337169	1.493814
H	-1.337872	-1.169738	1.03659
C	-0.576168	1.199058	0.616796
N	-1.135371	2.052978	1.200719
Cl	3.294685	0.0	0.0
