16

C	-0.352259	-0.099373	-1.487558
C	0.0	0.0	0.0
Br	0.042661	1.854545	-2.303358
H	1.099399	0.0	0.0
N	0.525737	-1.014287	-2.078048
H	1.491246	-0.794305	-1.835258
H	0.414695	-1.079792	-3.079468
N	-1.712176	-0.389359	-1.726374
H	-2.295268	0.243632	-1.191646
H	-1.941362	-0.28994	-2.707753
N	-0.509411	-1.209908	0.685902
H	-0.460898	-1.96445	0.0079
H	0.177446	-1.429485	1.402531
C	-0.576393	1.173035	0.654229
N	-1.088943	2.053905	1.237899
Cl	3.318191	0.0	0.0
