16

C	-0.445572	0.09122	-1.466875
C	0.0	0.0	0.0
Br	-0.139263	-1.705971	-2.334988
H	1.092662	0.0	0.0
N	-1.880389	0.294058	-1.55589
H	-2.049323	1.284065	-1.400042
H	-2.212072	0.047732	-2.47992
N	0.323341	1.111861	-2.075759
H	1.318189	0.976821	-1.893323
H	0.152939	1.163838	-3.073044
N	-0.498131	-1.173217	0.682014
H	0.054594	-1.324736	1.515741
H	-1.471615	-1.052547	0.930757
C	-0.44442	1.256883	0.640028
N	-0.86339	2.220718	1.166437
Cl	3.329569	0.0	0.0
