16

C	-0.476816	-0.029369	-1.463969
C	0.0	0.0	0.0
Br	0.203239	1.662941	-2.331624
H	1.092786	0.0	0.0
N	0.093406	-1.121414	-2.204466
H	1.102806	-0.984486	-2.226266
H	-0.073429	-1.936854	-1.616823
N	-1.892895	-0.121322	-1.521435
H	-2.326324	0.717893	-1.1551
H	-2.170641	-0.254966	-2.486268
N	-0.400809	-1.26853	0.607931
H	-1.367337	-1.238628	0.90559
H	0.199217	-1.450492	1.402804
C	-0.535478	1.164388	0.717591
N	-1.042852	2.030186	1.331133
Cl	3.320517	0.0	0.0
