17

C	0.0	0.0	0.0
C	-0.554965	-0.041337	-1.434373
Cl	1.757316	0.0	0.0
H	-1.636375	-0.191366	-1.316122
C	-0.467287	1.194236	0.692433
N	-0.642877	2.227207	1.228694
N	-0.425981	-1.236596	0.799005
O	-0.5213	-2.271913	0.157637
O	-0.532968	-1.094494	2.00682
N	-0.062365	-1.197638	-2.269798
O	1.138355	-1.250394	-2.545307
O	-0.922781	-1.952226	-2.71257
C	-0.23395	1.229348	-2.201885
H	0.843766	1.398418	-2.258706
H	-0.722475	2.079799	-1.72553
H	-0.627953	1.138093	-3.216374
Br	-3.519461	0.0	0.0
