17

C	0.0	0.0	0.0
C	-0.65792	0.318339	-1.346209
Cl	1.756432	0.0	0.0
H	-1.712006	0.026547	-1.213133
C	-0.445677	0.942235	1.024354
N	-0.622624	1.742217	1.867743
N	-0.392184	-1.43121	0.453356
O	-0.207458	-2.296029	-0.392633
O	-0.763108	-1.58264	1.605723
N	-0.11005	-0.487568	-2.482379
O	-0.867871	-1.294073	-3.012852
O	1.033382	-0.236236	-2.865973
C	-0.552788	1.787069	-1.706857
H	-0.980412	1.930364	-2.703255
H	0.482928	2.131865	-1.714163
H	-1.146329	2.37025	-0.99987
Br	-3.683755	0.0	0.0
