14
Coordinates from ORCA-job run
  C   -0.43255505835560      0.14332928627016      0.60204794208557
  C   0.69665839476108      0.94036268930446     -0.06065388169728
  Cl  -1.32231125303728      1.33909282728078      1.60869496625812
  H   1.37166873811578      1.35003537696858      0.68881279358519
  H   0.27013731525520      1.72299309783928     -0.68622275067510
  C   -1.39656931758237     -0.47578234191499     -0.40154164760704
  H   -0.88777852358589     -1.23298138854255     -0.99995073955489
  H   -2.22698144128980     -0.94257442421842      0.12872188964467
  H   -1.78484107595798      0.29823380382147     -1.06524525346066
  C   0.10865974157189     -0.88198664510515      1.49491948995122
  N   0.52173175473390     -1.73068960346691      2.19465276208028
  N   1.50069612197581      0.05144994370702     -0.94898523833338
  O   1.13594638554775     -0.04010134724230     -2.12029692830598
  O   2.44553821784752     -0.54138127470142     -0.43295340397073
