14
Coordinates from ORCA-job run
  C   -0.51330485193137      0.23176936191359      0.50329466416190
  C   0.52856381288752      0.99374878449243     -0.32348778014292
  Cl  -1.69692421874029      1.47928208724239      1.03067742618235
  H   1.03938575036326      1.73559694931215      0.28795192682022
  H   0.04463187462833      1.44986524138855     -1.18577453701285
  C   -1.24407444318863     -0.83927951813667     -0.29578185185672
  H   -2.03634896281275     -1.27420006839568      0.31394245500743
  H   -1.68309683061787     -0.39576466676326     -1.19064997436270
  H   -0.55291246068564     -1.62882409358234     -0.59446765678204
  C   0.09571163517653     -0.34552929207492      1.70207199028960
  N   0.57345729033635     -0.84010434480955      2.65475061269550
  N   1.56294219319644      0.05203270957561     -0.84190192187521
  O   2.53513416149248     -0.15733920602287     -0.11970126991898
  O   1.34683504989564     -0.46125394413944     -1.93892408320560
