14
Coordinates from ORCA-job run
  C   -0.26615158648085     -0.10515667752444      0.61402310986543
  C   1.09687741420823     -0.01993272059658     -0.08570704605024
  Cl  -0.50146073238123      1.36773448170570      1.61066907543825
  H   1.88951806296053      0.13626499656565      0.64350539422617
  H   1.26450434122706     -0.92784429267533     -0.66725814529427
  C   -1.45453230252088     -0.26774764578324     -0.32706205930043
  H   -1.56165602259941      0.61167828066973     -0.95913841843171
  H   -2.36313771258881     -0.39889912488259      0.26091012693325
  H   -1.30785665909577     -1.14315506128178     -0.96344259150168
  C   -0.18388485169882     -1.25594987946142      1.51741656527313
  N   -0.10875676737016     -2.20520724275398      2.20586580658901
  N   1.15348611403345      1.12136062390952     -1.04292484814507
  O   1.77854738144877      2.11863430636724     -0.69382607541916
  O   0.56550332085791      0.97021995574150     -2.11303089418267
