14
Coordinates from ORCA-job run
  C   -0.31358486618927     -0.09244770406312      0.59263621468297
  C   1.09840255414974      0.06716697818800      0.01340330086447
  Cl  -0.75651035658289      1.41048184629611      1.46680608383364
  H   1.39064811937211     -0.85460373472808     -0.49199708753603
  H   1.80402520094954      0.32991322696220      0.79905220698883
  C   -1.39189692104155     -0.40772836960178     -0.43810242868412
  H   -1.50699162734325      0.42166961380688     -1.13333035577971
  H   -2.33874074091194     -0.57986592578840      0.07422073925666
  H   -1.11848754925559     -1.30334574667367     -1.00024092248176
  C   -0.22709584819254     -1.17859801794280      1.57239247257277
  N   -0.14294268747356     -2.07725461650701      2.32477621606478
  N   1.15531047292130      1.15394873430805     -1.00524310534594
  O   0.68317948173381      0.89501234870644     -2.11146121110149
  O   1.66568476786407      2.21765136703719     -0.66591212333507
