14
Coordinates from ORCA-job run
  C   -0.34974664440503     -0.05350940843709      0.41091776813765
  C   0.56964887212962      0.35129484888512     -0.73666203890156
  Cl  -0.54779461468828      1.35748261853037      1.50107020444451
  H   0.78947566832214     -0.51660700898994     -1.36303726769710
  H   0.10620539852059      1.14601315699335     -1.31840517409126
  C   -1.71786693012779     -0.43336285765115     -0.15320948921924
  H   -2.39314076651546     -0.69833211505550      0.66032181432513
  H   -1.61892767394138     -1.29176499609914     -0.82232437611121
  H   -2.13974381857079      0.41063264592688     -0.70150387907314
  C   0.17707982997940     -1.17597251960628      1.18856359186596
  N   0.49908324546883     -2.13113628803947      1.79202987818132
  N   1.88205899546966      0.88378300462346     -0.26485636828830
  O   2.20572655669978      1.99670338407466     -0.66913036286255
  O   2.53794188165870      0.15577553484473      0.47322569928980
