14
Coordinates from ORCA-job run
  C   -0.37639163902101      0.18691024021133      0.62803942243565
  C   0.71730027266488      0.91308787324195     -0.16329971234921
  Cl  -1.14770134114646      1.45930822350773      1.63868550260245
  H   1.46624652433764      1.33133299855940      0.50702888592602
  H   0.26428442696942      1.68180420558679     -0.78746642099537
  C   -1.43524813759996     -0.45006786178862     -0.26267076171766
  H   -2.23646378821062     -0.85602270893718      0.35526704868516
  H   -1.84826607215334      0.29971695378476     -0.93907766266861
  H   -0.99955905164967     -1.25779319119880     -0.85292189564214
  C   0.20630078570240     -0.80952703341575      1.52730197224192
  N   0.65321572672342     -1.63375232058651      2.23536783240469
  N   1.41280560862120     -0.04363004290687     -1.07244314763977
  O   2.37257436943110     -0.65427645677750     -0.60689480580168
  O   0.95090231533099     -0.16809087928073     -2.20591625748146
