14
Coordinates from ORCA-job run
  C   -0.24186116015685     -0.08653178436865      0.62637777554676
  C   1.08955617867577      0.10606999272148     -0.11196748714317
  Cl  -0.64217808186165      1.42436369649050      1.50731029637772
  H   1.35847186777910     -0.81875184075254     -0.62473692271333
  H   1.86808315644805      0.41612676782756      0.58233268199061
  C   -1.41512122504098     -0.46980390307919     -0.26842620487042
  H   -1.17218400956432     -1.37285576996780     -0.83253040696012
  H   -2.29288894566985     -0.65791228707336      0.35021450250490
  H   -1.63687198174573      0.33314446815354     -0.96871562933235
  C   -0.00494297256086     -1.13951381167159      1.61735839069428
  N   0.19579369862030     -2.01243553031623      2.37796812115778
  N   0.99071006563889      1.16497749883351     -1.15659015439785
  O   1.49226658400012      2.25613840691606     -0.90142050472516
  O   0.41016682543803      0.85798409628672     -2.19717445812964
