15

C	0.0	0.0	0.0
C	-0.556551	0.253804	-1.395483
Br	1.94527	0.0	0.0
H	-0.21582	-0.519201	-2.085723
H	-1.657024	0.188653	-1.298861
C	-0.509483	0.980061	1.026978
H	-0.131906	0.729115	2.015909
H	-0.179273	1.984222	0.754395
H	-1.604055	0.929952	1.018262
N	-0.373387	-1.432922	0.400606
O	-0.478324	-2.255693	-0.50179
O	-0.474257	-1.664594	1.597606
C	-0.171587	1.568294	-1.890308
N	0.132434	2.626088	-2.300187
Br	-3.824427	0.0	0.0
