15

C	0.0	0.0	0.0
C	-0.562497	0.271851	-1.388291
Br	1.945227	0.0	0.0
H	-1.661521	0.204004	-1.283679
H	-0.224611	-0.488836	-2.092427
C	-0.50979	0.95984	1.045184
H	-1.602188	0.884274	1.058779
H	-0.10257	0.714286	2.023534
H	-0.212658	1.97339	0.769788
N	-0.369642	-1.439094	0.380564
O	-0.471506	-1.687187	1.574288
O	-0.471474	-2.249792	-0.532969
C	-0.184792	1.594477	-1.866687
N	0.122586	2.653868	-2.26899
Br	-3.835286	0.0	0.0
