16

C	0.0	0.0	0.0
C	-0.46114	-0.097595	-1.455938
Br	1.948506	0.0	0.0
H	-1.514697	-0.379241	-1.347322
H	0.104511	-0.869472	-1.978714
N	-0.567827	1.007913	0.793566
H	-1.611372	0.777351	0.640681
H	-0.351019	1.90207	0.368628
N	-0.339454	-1.353042	0.681649
O	-0.297682	-2.350287	-0.032637
O	-0.561801	-1.353831	1.881289
C	-0.375692	1.244496	-2.169547
H	-1.127196	1.924779	-1.760617
H	0.615529	1.705808	-2.086885
H	-0.596321	1.11441	-3.233517
F	-2.780755	0.0	0.0
