16

C	0.0	0.0	0.0
C	-0.459253	-0.034671	-1.44816
Br	1.999746	0.0	0.0
H	0.114387	-0.784405	-1.994143
H	-1.507791	-0.337641	-1.369049
N	-0.615452	0.977616	0.739018
H	-0.421773	0.831176	1.724104
H	-1.678768	0.731758	0.52113
N	-0.235123	-1.43767	0.622037
O	-0.35619	-1.484148	1.841281
O	-0.25603	-2.40879	-0.125817
C	-0.372099	1.33721	-2.10036
H	-1.071017	2.014919	-1.611533
H	0.633827	1.762222	-2.030953
H	-0.643052	1.264604	-3.158744
F	-2.815928	0.0	0.0
