16

C	0.0	0.0	0.0
C	-0.458244	-0.074171	-1.459627
Br	1.948833	0.0	0.0
H	-1.505553	-0.377226	-1.364973
H	0.124039	-0.821299	-1.996883
N	-0.574247	0.98625	0.81249
H	-0.367122	1.892203	0.40691
H	-1.618364	0.751329	0.653251
N	-0.342415	-1.370725	0.649666
O	-0.232591	-2.357925	-0.071997
O	-0.661114	-1.391464	1.827294
C	-0.399396	1.286994	-2.136413
H	-1.173264	1.927889	-1.716307
H	0.574701	1.771092	-2.028344
H	-0.604087	1.184487	-3.205809
F	-2.788827	0.0	0.0
