17

C	0.0	0.0	0.0
C	-0.372421	-0.315648	-1.447222
Cl	1.867576	0.0	0.0
H	0.022123	-1.310154	-1.678382
H	0.17473	0.383311	-2.090992
N	-0.482651	1.27647	0.368965
H	-0.149581	2.005034	-0.247709
H	-0.275921	1.508132	1.330456
C	-0.465387	-1.039746	0.995594
H	-0.118404	-2.032631	0.707118
H	-0.075325	-0.815538	1.991689
H	-1.556654	-1.020055	1.029406
C	-1.865962	-0.231958	-1.736745
H	-2.053673	-0.535459	-2.770893
H	-2.252257	0.776772	-1.596892
H	-2.477472	-0.856892	-1.088402
Br	-5.161361	0.0	0.0
