17

C	0.0	0.0	0.0
C	-0.44159	-0.189793	-1.458416
Cl	1.810099	0.0	0.0
H	0.064797	-1.074171	-1.858169
H	-1.516258	-0.395041	-1.416938
N	-0.4739	1.205056	0.635672
H	-1.492887	1.108905	0.665973
H	-0.259671	2.003416	0.048569
C	-0.438589	-1.188996	0.838121
H	-1.531298	-1.221057	0.840356
H	-0.047154	-2.117793	0.416777
H	-0.070753	-1.069819	1.85847
C	-0.194844	1.009859	-2.365254
H	-0.421821	0.749371	-3.402064
H	-0.849022	1.840989	-2.095852
H	0.844513	1.345393	-2.321501
Br	-3.905613	0.0	0.0
