17

C	0.0	0.0	0.0
C	-0.478132	0.005364	-1.444077
Cl	1.866419	0.0	0.0
H	-0.063742	0.89521	-1.934168
H	-1.565704	0.130835	-1.368537
N	-0.458216	1.175263	0.638686
H	-0.151804	1.237121	1.599704
H	-0.201465	2.012127	0.133371
C	-0.459972	-1.212589	0.778237
H	-1.553757	-1.228513	0.719692
H	-0.035163	-2.132071	0.375419
H	-0.155596	-1.126574	1.825029
C	-0.142785	-1.239133	-2.253171
H	-0.462341	-1.102856	-3.289548
H	0.929924	-1.448635	-2.250516
H	-0.673202	-2.111262	-1.865806
Br	-4.160205	0.0	0.0
