17

C	0.0	0.0	0.0
C	-0.44937	0.087368	-1.461816
Cl	1.811698	0.0	0.0
H	-0.007821	0.997939	-1.886364
H	-1.534672	0.227544	-1.417294
N	-0.458298	1.118308	0.791527
H	-0.304439	1.973756	0.265103
H	-1.472024	1.00083	0.868718
C	-0.45248	-1.280401	0.6766
H	-0.008748	-2.156652	0.203236
H	-0.148871	-1.251242	1.724645
H	-1.543235	-1.333077	0.61298
C	-0.127132	-1.11362	-2.342597
H	0.936177	-1.364056	-2.316286
H	-0.701324	-1.988195	-2.029443
H	-0.401013	-0.901716	-3.38014
Br	-3.923429	0.0	0.0
