17

C	0.0	0.0	0.0
C	-0.311953	0.276868	-1.482328
Cl	1.807413	0.0	0.0
H	0.111894	1.262826	-1.698688
H	0.268056	-0.447953	-2.063331
N	-0.479359	1.087355	0.817099
H	-1.470053	1.201613	0.610159
H	-0.418331	0.821845	1.794394
C	-0.472437	-1.371687	0.454266
H	-0.103335	-1.582505	1.461823
H	-1.566838	-1.376597	0.473677
H	-0.116674	-2.158931	-0.214646
C	-1.766843	0.215904	-1.917911
H	-1.822074	0.439427	-2.988612
H	-2.215705	-0.763342	-1.755129
H	-2.415396	0.919105	-1.399312
Br	-4.652393	0.0	0.0
