14
Coordinates from ORCA-job run
  C   0.68418031575670      0.05914026232817     -0.04810832934135
  C   -0.65085465374986      0.31947620843126      0.07986862328117
  C   1.51331279735130      1.20151522032616      0.14147982897215
  N   2.18775489823889      2.15191972668774      0.32237521617340
  C   1.36164063509696     -1.23189689460540     -0.43004246115858
  H   0.96533610199694     -2.07242952172619      0.14094056044609
  H   1.21892302976522     -1.44913168027423     -1.48824923373777
  H   2.43246049632578     -1.15794358752091     -0.22993712497922
  N   -1.23472971209700      1.53991632422434      0.27460886460817
  H   -2.13988277404341      1.49121118920968      0.71221528369472
  H   -0.62056623874222      2.24479878847330      0.65513070740920
  N   -1.65063324505548     -0.75883617160013     -0.02896854912637
  O   -2.74086804825540     -0.54744573872325      0.50403592425932
  O   -1.32707360258840     -1.79029412523055     -0.60434931050094
