14
Coordinates from ORCA-job run
  C   0.69032036001178      0.02712336505049     -0.07722184409937
  C   -0.62177357142085      0.36080224218576      0.10167702178165
  C   1.59115498010401      1.11433045388568      0.11405830828794
  N   2.30292969926571      2.03825273984931      0.28933892643411
  C   1.26764673151271     -1.31364149378755     -0.45701393500272
  H   1.12327889627045     -1.51803145789128     -1.51954097390897
  H   2.33714558815351     -1.31252378360154     -0.24398880076815
  H   0.80192438419389     -2.12787912948650      0.09817262009153
  N   -1.14130951918496      1.59636308694817      0.35669463470689
  H   -2.01940099604649      1.58681572839538      0.85348144906869
  H   -0.48054045698411      2.29811187577587      0.65653254710724
  N   -1.67681562377690     -0.66040805331643     -0.02767919739651
  O   -2.72306131443682     -0.44490009455896      0.58647570594235
  O   -1.45149915766195     -1.64241547944841     -0.72998646224469
