14
Coordinates from ORCA-job run
  C   0.68345980780768      0.02063769383751      0.01547621177143
  C   -0.64142125611093      0.34424463475258     -0.00937963958418
  C   1.53688880279884      1.11831085021704      0.33280938577713
  N   2.20637431348485      2.05104686528902      0.60257919202455
  C   1.35967288034890     -1.30555360460136     -0.21727461935640
  H   2.06512750473352     -1.51816718243423      0.58645776751240
  H   0.64417624977567     -2.11728808157247     -0.29186397076989
  H   1.92402993817917     -1.27543330728819     -1.15403979472157
  N   -1.19236142017536      1.58475043353156      0.15700257175467
  H   -0.59216918586142      2.27316281629625      0.58754906635970
  H   -2.13579537691715      1.56672418773680      0.51273735877800
  N   -1.68027526595722     -0.66373127177099     -0.30290697360588
  O   -1.39870472937155     -1.59797145050369     -1.04729192850323
  O   -2.77800226273499     -0.47973258348984      0.22614537256328
