14
Coordinates from ORCA-job run
  C   0.69455581437857      0.04065676561569     -0.00873014890168
  C   -0.63198933303085      0.32519671069030      0.14784788916555
  C   1.54786655844485      1.16882290180623      0.16143107505998
  N   2.21498654659697      2.13108514761145      0.30290971513389
  C   1.33197027469175     -1.29174159439936     -0.31426748073664
  H   1.37482168436106     -1.92077610938666      0.57686117662458
  H   0.77771661887726     -1.84102179397475     -1.07472991367583
  H   2.34705496507763     -1.12489948485180     -0.67666239848130
  N   -1.19466613419754      1.51642669853778      0.50473404797047
  H   -0.59266582525189      2.32296376227467      0.42908062740288
  H   -2.13680809574840      1.64775718238959      0.16821415726877
  N   -1.64683049489805     -0.72882169374724     -0.02780685821151
  O   -1.31525333908276     -1.89308549503576      0.17966597616197
  O   -2.76975924021859     -0.35456299753014     -0.36954786478114
