14
Coordinates from ORCA-job run
  C   0.63642002284529     -0.00437792004738     -0.32495507585464
  C   -0.67403506722412      0.15330542350537      0.00601836747725
  C   1.14161716210987      0.06261049892519     -1.65163751719765
  N   1.69709561662699      0.05661991882660     -2.69116595589763
  C   1.60973548390942     -0.35533925773041      0.77288853851789
  H   1.43253768604165      0.27717147441944      1.64819555812721
  H   1.50638085148931     -1.40220995728493      1.08161909794463
  H   2.63497153558297     -0.20855696781827      0.43511200279364
  N   -1.17870805558343      0.02720386673843      1.27173171577062
  H   -2.18888460702683      0.02610235965532      1.29438490279946
  H   -0.75587132012251     -0.69015237376692      1.84188083449205
  N   -1.69156387923846      0.57289974455488     -0.98726596918783
  O   -2.86657552091706      0.50320008325047     -0.62213996793317
  O   -1.30411990849310      0.98052310677220     -2.07466653185181
