14
Coordinates from ORCA-job run
  C   0.68619197554482      0.04433657633305     -0.04566227254174
  C   -0.64696719673089      0.33245045124976     -0.00136732549444
  C   1.52174049052771      1.15567127084514      0.27151218528984
  N   2.18124662679794      2.09564846360538      0.54043893979977
  C   1.36864356319708     -1.27891368557427     -0.29085738556524
  H   1.52399955532537     -1.81012228065267      0.65299103536132
  H   0.79564000411358     -1.91266806743168     -0.95990215450434
  H   2.34975870723799     -1.09816191221651     -0.73302980399699
  N   -1.22465211229371      1.56030915980558      0.16584403512596
  H   -2.12518137778239      1.53777564580503      0.62038358344286
  H   -0.60670961331715      2.29323464380555      0.48237854650211
  N   -1.67260136575099     -0.71401134979602     -0.19159852303548
  O   -2.71683157821658     -0.56004595328415      0.44301493449245
  O   -1.43527767865279     -1.64550296249417     -0.95314579487609
