14
Coordinates from ORCA-job run
  C   0.62435741263533     -0.08910656094275     -0.33319101256226
  C   -0.69129510017364      0.04804972050529     -0.01445322940659
  C   1.14645901972547      0.05750659896033     -1.64581745638728
  N   1.71737075574578      0.17023858045193     -2.67113601735462
  C   1.60611237972144     -0.34444489195700      0.78397045476059
  H   2.57418838773857     -0.64049998268290      0.38207240327171
  H   1.24228192605875     -1.14479430879980      1.43553459971818
  H   1.75997875215351      0.55302361320601      1.39471617325537
  N   -1.21045480844411     -0.05214865643534      1.24525819832043
  H   -0.60424931071586      0.23403618408782      1.99742634755618
  H   -2.16082012276163      0.27999904111008      1.32116771591578
  N   -1.73194337298433      0.25601912048886     -1.04492134127553
  O   -2.82973648066142      0.64307412165098     -0.63821418465024
  O   -1.44224943803786      0.02904742035650     -2.21341265116171
