14
Coordinates from ORCA-job run
  C   0.60300387980325     -0.10719007349299     -0.36638112039799
  C   -0.67806027413478      0.14043106157046      0.02088264611146
  C   1.09521401062850      0.08691267081649     -1.68429629181645
  N   1.64212704570959      0.20703558759539     -2.72188126028921
  C   1.57533849033785     -0.60350155195488      0.67506563642250
  H   1.14345628421343     -1.44575722929084      1.22467207203067
  H   1.83185175706111      0.18034733084605      1.39676380445104
  H   2.50001263831799     -0.93351540666123      0.20459233270246
  N   -1.16136762125764     -0.04108399729261      1.28594386160694
  H   -0.50138156659859      0.10006406825018      2.03399924689215
  H   -2.06876628856489      0.37490953387586      1.43736216726089
  N   -1.72313000664308      0.57172942928563     -0.93418758091665
  O   -1.46487788241000      0.53240836195018     -2.13106342273691
  O   -2.79242046646274      0.93721021450232     -0.44147209132092
