14
Coordinates from ORCA-job run
  C   0.63865113826003      0.05966109481821     -0.31178546878647
  C   -0.67655090996117      0.14820830605202      0.02545980096965
  C   1.15640201399786      0.38361833353344     -1.59402501109454
  N   1.71764281682401      0.58937550050080     -2.61018207687918
  C   1.60360449291353     -0.48001798559790      0.71510758551147
  H   1.44202416790836      0.00640632610231      1.68190821035230
  H   1.48299988067598     -1.56143566582227      0.84942088386030
  H   2.63206348342102     -0.29827910304486      0.40584373402449
  N   -1.20257450162580     -0.19253401872245      1.23964656593317
  H   -2.21004458981962     -0.25887496534929      1.24114438586119
  H   -0.73263687109276     -0.93657032843402      1.73037148203241
  N   -1.68813863394549      0.70775525137022     -0.89731981123792
  O   -1.29667610269572      1.34782403241918     -1.86575378072922
  O   -2.86676638486022      0.48586322217461     -0.61083649981766
