14
Coordinates from ORCA-job run
  C   0.62317974316578     -0.04798916008947     -0.34286898766460
  C   -0.68851244906630      0.08192037937866     -0.00559130737433
  C   1.16754192524967      0.34533332029144     -1.59436602287532
  N   1.75670465413503      0.64576341978778     -2.57036579085776
  C   1.57883781103415     -0.57757211993729      0.69787939423672
  H   1.77303737224990      0.16657176214757      1.47931461775924
  H   2.53449410979880     -0.83549586526212      0.24332315050838
  H   1.16776790739086     -1.47417959862010      1.17167964259895
  N   -1.22737743798811     -0.25389771646013      1.20434061342558
  H   -2.16213346877327      0.10102791299342      1.34475939997700
  H   -0.61789909967196     -0.15674631162758      2.00075174621466
  N   -1.70534454650631      0.55019325914667     -0.97256010276777
  O   -2.78846011276059      0.89730938720923     -0.49643303387440
  O   -1.41183640825766      0.55876133104192     -2.16186331930634
