14
Coordinates from ORCA-job run
  C   0.61406516069929     -0.21547645850165     -0.18813747624997
  C   -0.73505044840085     -0.07267035529635     -0.02012805737723
  C   0.98730007530433     -1.16532614833415     -1.18529351297898
  N   1.32132279990989     -1.96293151008722     -1.98933382496778
  C   1.75524984382291      0.50996863282466      0.48296964091578
  H   1.91668723295936      1.48556168658453      0.02189184795004
  H   2.66205974404683     -0.08474454806050      0.36830427020436
  H   1.57346913646291      0.67893572211261      1.54049876640416
  N   -1.70652457173945     -0.84755761110177     -0.58368426709640
  H   -2.63837512495413     -0.46561929150448     -0.55314010842903
  H   -1.45407730845863     -1.33553454778350     -1.42889663876424
  N   -1.28408461675682      0.90729245838023      0.93899014356886
  O   -2.49707782193000      0.85018442326588      1.14553489308775
  O   -0.51596410096564      1.71691754750171      1.45042432373267
