14
Coordinates from ORCA-job run
  C   0.69859117906418      0.01164014260206      0.01936055096351
  C   -0.62815336315343      0.32317464694451      0.15035486891915
  C   1.56984422569209      1.06254762735577      0.42439395696115
  N   2.21345980489131      1.98195543678080      0.78777326300608
  C   1.30817319068462     -1.27161781612379     -0.48966838771461
  H   0.86794080657119     -2.15028834400993     -0.01676024738536
  H   2.37784976129506     -1.25631392557494     -0.27026942626822
  H   1.17760273820404     -1.37771678702304     -1.56729419846014
  N   -1.14661833372806      1.44003017989001      0.72999892749157
  H   -0.53048788855068      2.23297685587263      0.81616967749762
  H   -2.11828690838376      1.63256072234329      0.55327751550318
  N   -1.66331651241572     -0.63585618594612     -0.26826018360102
  O   -1.33278227585275     -1.52042472266606     -1.05732104730775
  O   -2.79581642431808     -0.47266783044520      0.18924473039483
