14
Coordinates from ORCA-job run
  C   0.64243783582792      0.02945468697023     -0.30952797637811
  C   -0.68100368064455      0.12804510558231     -0.00758501028517
  C   1.18142892536454      0.19391070659562     -1.61341187924735
  N   1.76800706671230      0.28501750409843     -2.63200217930762
  C   1.60041253410672     -0.32979213966754      0.79926717672251
  H   1.49549277294377     -1.38094871693619      1.09297335802371
  H   1.41359605647555      0.29231371445236      1.68003332383622
  H   2.63121099623320     -0.17613069725656      0.48231332841185
  N   -1.21939441797478     -0.05474704821762      1.23395398854073
  H   -2.22588901114439     -0.12809286763391      1.23595634519027
  H   -0.74709434706128     -0.71390565191569      1.83119646779131
  N   -1.69094476307307      0.52159247828553     -1.01537432606492
  O   -2.86993286780518      0.34079253566805     -0.70253505866224
  O   -1.29732709996075      0.99349038997498     -2.07525755857118
