14
Coordinates from ORCA-job run
  C   0.63208063005446     -0.01992672711512     -0.32960066268217
  C   -0.69029775096732      0.06031641937033     -0.01917776979482
  C   1.19029440686694      0.41895606535656     -1.55957449359951
  N   1.79024834792056      0.75982576395430     -2.51550876489574
  C   1.58133541224029     -0.54103297219939      0.72112308474396
  H   1.19015482452673     -1.46143699079839      1.16522879829313
  H   1.73244801869852      0.19101722863864      1.52318627434170
  H   2.55516649862980     -0.75708785910382      0.28358026492022
  N   -1.24374579188282     -0.31813817852548      1.17106015248507
  H   -0.65518070694846     -0.22054085506280      1.98284528263544
  H   -2.19328696273364      0.00051175295850      1.29785723179088
  N   -1.70100189814080      0.51472874460891     -0.99904022104805
  O   -2.80611006913568      0.81358124679595     -0.54087937880931
  O   -1.38210495912861      0.55822636112179     -2.18109979838080
