14
Coordinates from ORCA-job run
  C   0.63565923340804     -0.00193018611476     -0.32307296420169
  C   -0.67302990634194      0.16566653973550      0.00953274523829
  C   1.14338401569305      0.11164445817041     -1.64463321446206
  N   1.69581873222067      0.15156299812510     -2.68533879145417
  C   1.60262909838540     -0.40259670686197      0.76384656375408
  H   1.46272750146236     -1.44926429790821      1.05883744536221
  H   2.63055528328512     -0.29062898512142      0.42136240801465
  H   1.46266296518121      0.22560220762781      1.64885789284577
  N   -1.19021402592802      0.02420007161610      1.26623799881659
  H   -2.19875653050178     -0.01721384244344      1.28793680288258
  H   -0.72945000987689     -0.64655100224432      1.86029257541221
  N   -1.68493281316408      0.60103719966789     -0.97768298597379
  O   -1.29300042627995      1.07770324054334     -2.03599181204924
  O   -2.86405311754319      0.45176830520797     -0.64918466418543
