14
Coordinates from ORCA-job run
  C   0.63867719085082     -0.26954759345476     -0.08509271268966
  C   -0.71253883233592     -0.11453728996970      0.04928820519042
  C   1.02047224254420     -1.57596829566564     -0.50585200969954
  N   1.27343595976623     -2.66928190597383     -0.86804067175904
  C   1.72572210511137      0.74688795117493      0.15839883265183
  H   2.64895357794018      0.40163672081335     -0.30999755666122
  H   1.90375252225747      0.88649847684507      1.22586693368284
  H   1.46758977524093      1.72075310096260     -0.25840100933850
  N   -1.67851102170140     -1.06469553424315     -0.10016914683789
  H   -2.58888868191912     -0.70687477667688     -0.34417621986309
  H   -1.39976147658229     -1.91299611041849     -0.57058953019001
  N   -1.28150677945666      1.19020226150563      0.43774046346449
  O   -0.56558107437431      1.97517609076819      1.05387752106636
  O   -2.45281550734151      1.39274690433267      0.11614690098301
