13

C	-0.445603	0.00162	-1.438163
C	0.0	0.0	0.0
Cl	-2.238915	-0.014464	-1.574878
H	1.093874	0.0	0.0
H	-0.091342	0.920102	-1.899835
H	-0.068103	-0.872119	-1.960939
N	-0.399233	-1.348977	0.610565
O	-0.966864	-1.340759	1.703422
O	-0.110585	-2.359499	-0.026105
N	-0.475197	1.112453	0.739486
H	-1.452973	1.003892	0.976187
H	0.059489	1.203889	1.5929
Br	3.467903	0.0	0.0
