13

C	-0.549177	-0.031367	-1.41183
C	0.0	0.0	0.0
Cl	-0.213581	1.511174	-2.251149
H	1.09868	0.0	0.0
H	-1.630121	-0.165987	-1.396139
H	-0.0682	-0.81867	-1.983343
N	-0.380172	-1.292175	0.67102
O	-0.340959	-1.309994	1.897214
O	-0.658974	-2.260664	-0.03706
N	-0.586868	1.066929	0.791145
H	-0.3023	1.93671	0.353914
H	-0.130575	1.042238	1.696618
Br	3.482241	0.0	0.0
