13

C	-0.396743	-0.005497	-1.459629
C	0.0	0.0	0.0
Cl	-2.180921	0.103799	-1.674004
H	1.092961	0.0	0.0
H	-0.063651	-0.917563	-1.947303
H	0.040914	0.868067	-1.941134
N	-0.456949	-1.327164	0.593743
O	-0.112005	-2.334541	-0.025774
O	-1.12813	-1.330906	1.619934
N	-0.446448	1.088704	0.788441
H	-1.301089	1.513784	0.459491
H	0.294197	1.762774	0.91383
Br	3.447184	0.0	0.0
