17

C	-0.480463	0.051863	-1.45279
C	0.0	0.0	0.0
F	-1.910887	-0.048796	-1.400653
H	1.094183	0.0	0.0
N	-0.182454	1.314707	-2.06263
H	-1.0204	1.863302	-2.184018
H	0.305656	1.173506	-2.935017
N	0.062765	-1.009147	-2.218864
H	-0.547668	-1.220971	-2.997655
H	0.218301	-1.84014	-1.664583
C	-0.470319	-1.239999	0.620872
N	-0.867756	-2.231187	1.110884
C	-0.472444	1.21092	0.801938
H	-0.081203	1.151169	1.818093
H	-1.563074	1.264561	0.839722
H	-0.071012	2.10891	0.332474
Br	3.585295	0.0	0.0
