17

C	-0.347233	0.179864	-1.48092
C	0.0	0.0	0.0
F	-0.010569	-1.060549	-2.114575
H	1.09723	0.0	0.0
N	-1.739924	0.42519	-1.696619
H	-1.897809	0.624893	-2.67831
H	-2.246206	-0.423559	-1.468389
N	0.453237	1.223532	-2.013399
H	1.422623	1.057708	-1.742043
H	0.403254	1.205145	-3.025858
C	-0.535956	-1.258895	0.500974
N	-1.000814	-2.239483	0.950291
C	-0.474585	1.177029	0.852484
H	-0.090385	1.069483	1.868762
H	-0.078463	2.097724	0.424738
H	-1.563551	1.238076	0.874941
Br	3.514588	0.0	0.0
