17

C	-0.351405	-0.053334	-1.491966
C	0.0	0.0	0.0
F	-0.016032	1.24463	-2.00366
H	1.096994	0.0	0.0
N	0.436634	-1.047691	-2.117536
H	0.438979	-0.895999	-3.11989
H	1.396081	-0.978435	-1.78149
N	-1.747134	-0.2678	-1.740856
H	-2.225495	0.623668	-1.725504
H	-1.874473	-0.694149	-2.649664
C	-0.46654	-1.221998	0.649803
N	-0.826879	-2.182874	1.220632
C	-0.536911	1.234658	0.715863
H	-0.136165	2.130267	0.243428
H	-0.215234	1.220082	1.758551
H	-1.63058	1.263041	0.693118
Br	3.525569	0.0	0.0
