17

C	-0.318223	0.023077	-1.502138
C	0.0	0.0	0.0
F	-1.70498	0.110459	-1.669994
H	1.09827	0.0	0.0
N	0.281156	1.191794	-2.06687
H	0.289127	1.071988	-3.075199
H	1.245597	1.257052	-1.743875
N	0.074014	-1.172524	-2.214459
H	-0.393173	-1.977679	-1.809837
H	1.075599	-1.293257	-2.080183
C	-0.489087	-1.241065	0.589064
N	-0.91323	-2.230174	1.060664
C	-0.524591	1.214945	0.762397
H	-1.616268	1.240289	0.746776
H	-0.145151	2.122854	0.295333
H	-0.178681	1.181091	1.797911
Br	3.46938	0.0	0.0
