16

C	0.0	0.0	0.0
C	-0.434344	-0.004007	-1.460518
F	1.41543	0.0	0.0
H	-1.528522	-0.030294	-1.356125
H	-0.320412	0.937482	0.460338
N	-0.531641	-1.075388	0.764722
H	-0.453344	-1.897156	0.167369
H	-1.548387	-0.814568	0.722796
N	0.035052	-1.252461	-2.080413
H	1.035302	-1.179451	-2.242959
H	-0.41661	-1.363123	-2.98051
C	0.025845	1.248253	-2.201014
H	1.120294	1.308089	-2.220389
H	-0.359224	2.150555	-1.713577
H	-0.337528	1.24557	-3.235135
F	-2.841498	0.0	0.0
