16

C	0.0	0.0	0.0
C	-0.238994	0.059592	-1.549145
F	1.387622	0.0	0.0
H	0.293201	0.979781	-1.839758
H	-0.296807	0.950248	0.467162
N	-0.601104	-1.145683	0.595795
H	-0.458385	-1.091887	1.601357
H	-1.617672	-0.940556	0.438892
N	-1.593095	0.125342	-2.074558
H	-1.869843	-0.827224	-2.288529
H	-2.247234	0.349999	-1.296282
C	0.479579	-1.118041	-2.212188
H	0.307556	-1.061679	-3.290884
H	0.058352	-2.051855	-1.833124
H	1.552154	-1.121705	-2.022265
F	-3.050544	0.0	0.0
