16

C	0.0	0.0	0.0
C	-0.43037	-0.068173	-1.460105
F	1.414902	0.0	0.0
H	-1.523538	-0.11018	-1.36271
H	-0.316047	0.957711	0.420293
N	-0.527218	-1.040275	0.818567
H	-1.544287	-0.792127	0.755642
H	-0.436971	-1.889112	0.263672
N	0.070499	-1.326324	-2.031667
H	-0.371248	-1.480085	-2.929617
H	1.068206	-1.235727	-2.189995
C	0.006984	1.16783	-2.239948
H	-0.341548	1.118791	-3.278241
H	1.099469	1.257088	-2.246718
H	-0.409687	2.075533	-1.790007
F	-2.8407	0.0	0.0
