16

C	0.0	0.0	0.0
C	-0.281484	-0.024298	-1.545739
F	1.408397	0.0	0.0
H	0.585457	0.493221	-1.975678
H	-0.316998	0.971547	0.391493
N	-0.576504	-0.998848	0.828865
H	-0.44106	-1.903961	0.389442
H	-1.591205	-0.76453	0.726785
N	-1.47788	0.64923	-2.03456
H	-1.341246	1.644875	-1.890332
H	-2.237683	0.386475	-1.37016
C	-0.276006	-1.454002	-2.065721
H	0.591692	-2.014419	-1.704801
H	-1.190042	-1.957933	-1.747831
H	-0.261486	-1.441673	-3.157942
F	-2.951763	0.0	0.0
