13
Coordinates from ORCA-job run
  C   0.71251589704699      0.30456942100840      0.39061717570350
  C   -0.41020488857253     -0.30621807726487     -0.41156474691130
  F   0.55698326649547      1.64921042050281      0.50445283674190
  H   -0.20030921999398     -1.37189192926526     -0.52834339640116
  H   0.82618124822746     -0.12854365035456      1.38606611262838
  H   -0.38969475809704      0.15273808774878     -1.40522955790629
  N   2.02139001659868      0.03396529503056     -0.31552813790140
  O   2.53984282979867      0.94337280402851     -0.94706211393298
  O   2.42476114862702     -1.12060586682252     -0.21220241370688
  C   -1.76093357430592     -0.08030912577514      0.25872857524743
  H   -1.79050178724891     -0.53745617681109      1.25086820197186
  H   -2.55988247524484     -0.52425643184402     -0.33734556214230
  H   -1.97014770333107      0.98442522981840      0.36554302660924
