13
Coordinates from ORCA-job run
  C   0.89707995424546     -0.39093784672794     -0.48578702967966
  C   -0.49748805089151     -0.76391182138475     -0.05322386538491
  F   1.71910458510490     -1.47628642946844     -0.44658187009949
  H   -0.86470175341407     -1.49886796005280     -0.77519210678773
  H   0.95475162173466      0.06987425708471     -1.47216766622640
  H   -0.40879201663469     -1.26708286674720      0.91334549231707
  N   1.44480111284562      0.63506464961975      0.47312776113007
  O   1.44924558028018      1.79911133654547      0.07861089998104
  O   1.78313939494937      0.23355601630948      1.57988169909097
  C   -1.43511116731351      0.43641943225665      0.02968525081630
  H   -1.45392148788127      0.99596148653976     -0.90827150858859
  H   -2.45163723245876      0.10338044716160      0.24346705511839
  H   -1.13747054056638      1.12371929886371      0.82310588831295
