13
Coordinates from ORCA-job run
  C   0.73677767212896     -0.38139705292251      0.25561214550587
  C   -0.43583806465629      0.39567247469686     -0.29077786670909
  F   0.72035670737690     -0.40203717332666      1.61364037755107
  H   -0.33705911287455      0.43396912739887     -1.37806077477046
  H   0.79617061286981     -1.40532595601188     -0.11769147574682
  H   -0.35819375268443      1.41857813995006      0.09126591319947
  N   2.01641919645606      0.28526140517660     -0.19569024540667
  O   2.29964119685816      0.09476709578757     -1.37468488765176
  O   2.62821705491759      0.97294094148450      0.60890487383810
  C   -1.76215407143697     -0.23418865528619      0.12037896432065
  H   -1.86110135653505     -0.26178446029710      1.20585876118970
  H   -1.84812651649012     -1.25562081005620     -0.25842190659905
  H   -2.59710956593007      0.34216492340607     -0.28133387872103
