13
Coordinates from ORCA-job run
  C   0.88656385515280     -0.60293710353466      0.25871058030796
  C   -0.48593889578962     -0.70143343710935     -0.36418758992188
  F   0.82243797683266     -0.70648427779873      1.61145714713264
  H   -0.36403952611807     -0.69567400245695     -1.44954716212720
  H   1.59576099898937     -1.33855112776200     -0.12385648021094
  H   -0.88725306276479     -1.67894824520890     -0.08104091089483
  N   1.47867847461062      0.74511017662337     -0.08633933176324
  O   1.77966344121371      0.87549166351264     -1.26908625713370
  O   1.57050862425062      1.58760112567021      0.79467714585653
  C   -1.41761361503350      0.41663679491113      0.09242079434448
  H   -1.08851920187175      1.38806685159774     -0.28157026084491
  H   -1.46346232787807      0.46844261116917      1.18086096173623
  H   -2.42678674159397      0.24167897038633     -0.28349863648115
