13
Coordinates from ORCA-job run
  C   -0.38336997281245     -0.84752254656521      0.25727650172877
  C   0.66891685540054      0.24403822073963      0.14951341787896
  F   -0.05453915939075     -1.65440617804769      1.29947604450156
  H   0.67156703749537      0.84117920756469      1.06329548126205
  H   -0.51323024877248     -1.43219069190305     -0.65043629040066
  N   -1.72368872128106     -0.23586605845134      0.58268937079320
  O   -1.71769314005887      0.82110210510425      1.20774571528659
  O   -2.70071686856964     -0.88818453292208      0.23686917560192
  N   0.32360031542049      1.20137502192680     -0.97234695714483
  O   0.98705528164079      2.22505856392372     -1.01883114415849
  O   -0.57642117266340      0.85830627940757     -1.73195685457295
  C   1.98455932551535     -0.32564067713014     -0.10631445379237
  N   3.03596046807611     -0.80424871364715     -0.31698000698375
