13
Coordinates from ORCA-job run
  C   -0.21633857433705     -0.33010876253045      0.99927430551818
  C   0.82277341841863      0.15357350859374     -0.00994380223996
  F   -0.30426620413012      0.51151704682282      2.04500338096918
  H   1.63281510983383      0.62064905834134      0.56152083558311
  H   0.03606491937211     -1.33197094082568      1.35670526318511
  N   -1.57421735321408     -0.46462537995387      0.33923267402724
  O   -1.53989435486740     -0.92470951322804     -0.79620031795936
  O   -2.55111081058202     -0.16400421228006      1.00124431069345
  N   0.28117447906043      1.27588996240086     -0.88575307629202
  O   0.83332898661656      1.44099236110929     -1.96181678371319
  O   -0.61113064665952      1.94971004624732     -0.38975852970588
  C   1.35993920954390     -0.92135853205266     -0.83039223476134
  N   1.82986182094475     -1.81455464264461     -1.43011602530453
