13
Coordinates from ORCA-job run
  C   -0.38718573203865     -0.80731636383156      0.36358032168817
  C   0.65633776750337      0.27661809170255      0.14668011592571
  F   -0.10747792378564     -1.43781208112604      1.53397751396090
  H   0.60047314053304      1.00509534793369      0.95778371450225
  H   -0.45784106481312     -1.52669859776646     -0.44891860938072
  N   -1.75024116038007     -0.18020547501387      0.51767737266697
  O   -1.79144246537836      0.94764570153565      1.00182902176506
  O   -2.69849837177127     -0.88376264025160      0.19314646509737
  N   0.36226219336253      1.04645751313422     -1.12459960980196
  O   1.02027711589152      2.06069881148588     -1.29401170236647
  O   -0.49614851728657      0.57883161437709     -1.86576056597904
  C   1.99084434277140     -0.29819239169632      0.05024100735414
  N   3.05764067539182     -0.78235953048324     -0.03062504543238
