13
Coordinates from ORCA-job run
  C   -0.82870551558817      0.15421388937101      0.36080071099027
  C   0.63721069724145      0.10304507860533     -0.04488363565520
  F   -1.59442035422890      0.50937533393012     -0.68516824351372
  H   1.23336310465272     -0.20779481380114      0.81681633894514
  H   -0.98351184591248      0.83048657753680      1.20103316915513
  N   -1.21408782228201     -1.23174375936173      0.83287939202074
  O   -0.60750800725435     -1.59743834764707      1.83434286671444
  O   -2.05794990937871     -1.84177963509355      0.19803379069289
  N   1.07766523774741      1.52644732468882     -0.36172841445405
  O   1.62251675157429      1.73533717095452     -1.43431500673522
  O   0.85294728976264      2.33408051518991      0.53109568505345
  C   0.85320848369486     -0.77906878059791     -1.18160777441337
  N   1.00827188997127     -1.53416055377510     -2.06729887880049
