12
Coordinates from ORCA-job run
  C   -0.90236709338715     -0.78898695807194      0.53094467079370
  C   0.27043643133979      0.11451613757686      0.17900388339617
  Cl  -0.38703445514008     -2.19064719403376      1.49603641691559
  H   0.86263458344882      0.28293595542706      1.08926792603794
  H   -1.36560907416686     -1.15538748493615     -0.38529379235027
  H   -1.64564848678123     -0.24740045663480      1.11733070637929
  N   -0.30724451618534      1.34119234838555     -0.38199806505464
  H   -0.83734641701583      1.84567371208013      0.32086900287605
  H   0.44264195126403      1.94973205726115     -0.68955072642391
  N   1.13297379271315     -0.54739887851020     -0.76936579146827
  H   0.70172806188095     -0.51263203114695     -1.68648609242180
  H   2.03483522202975     -0.09259720739695     -0.82175813867985
