12
Coordinates from ORCA-job run
  C   -0.83786617932337     -0.82686889690447      0.56670754883021
  C   0.18955764566977      0.22781077722170      0.19538240950323
  Cl  -0.06535936327381     -2.30774503663465      1.20963997167287
  H   0.77200999575095      0.46127472304560      1.09887048964932
  H   -1.49656771750508     -0.43482289257490      1.33755612424796
  H   -1.40873932782603     -1.11304700609257     -0.31734905646327
  N   -0.54624167505567      1.42634087696839     -0.16369775326180
  H   -0.84471366433638      1.33178949527710     -1.12863285046990
  H   0.05243964777871      2.24027412394680     -0.10471354274884
  N   1.00267677958606     -0.25645908227662     -0.91561674075210
  H   1.75374312459216      0.39980460249584     -1.09544902034108
  H   1.42706073394268     -1.14735168447222     -0.68269757986660
