12
Coordinates from ORCA-job run
  C   -0.90815235131277     -0.70690352356088      0.42242528069465
  C   0.36318120417066      0.11900573014286      0.26056283536679
  Cl  -0.61850870912836     -2.29347344064194      1.17797639437297
  H   0.85018334926367      0.19325993982438      1.23812235873518
  H   -1.61756585532648     -0.17244665227956      1.05437353590622
  H   -1.36738517598595     -0.88092476878264     -0.55509787691656
  N   0.06682763560562      1.48862329104683     -0.16795338953638
  H   -0.49138005698318      1.47708611477117     -1.01559260988851
  H   -0.45532827171262      1.98885981679061      0.54341652880648
  N   1.27307731757232     -0.55228377889340     -0.63582141064606
  H   0.82916342644753     -0.70699247437152     -1.53467709053335
  H   2.07488748738956      0.04718974595410     -0.78873455636142
