12
Coordinates from ORCA-job run
  C   -0.83575911828744     -0.70403259667988      0.53274339364450
  C   0.31509401777264      0.21581352428045      0.14648864016256
  Cl  -0.24972381455529     -2.24499236474649      1.23422916684789
  H   0.93072023439286      0.38286728335215      1.04435846375140
  H   -1.41833246169220     -0.94634423636405     -0.35690377770243
  H   -1.46527665720945     -0.23218477434986      1.28750279029336
  N   -0.14184029161024      1.51612668319318     -0.30779215701250
  H   -0.65109747629703      2.00309293703163      0.41906702942070
  H   -0.74252771494619      1.39578993268642     -1.11552465603974
  N   1.03661359630861     -0.37004937231964     -0.96618862807935
  H   1.79675505864441      0.25071407702145     -1.21578334843128
  H   1.42637462747931     -1.26680109310536     -0.70419691685512
