12
Coordinates from ORCA-job run
  C   -0.69790216494200     -0.86567297386266      0.72407521776122
  C   0.22954363656321      0.22719292096829      0.21996870798906
  Cl  -1.81490634523884     -1.45031309609382     -0.53726038488107
  H   0.81159627692954      0.53418794777896      1.10533168667784
  H   -0.12929690152835     -1.72765102027631      1.07774428081008
  H   -1.30317274669507     -0.46279815132332      1.53393889155229
  N   -0.54369216847833      1.38241056863598     -0.17831092142675
  H   -0.99458332397823      1.17510777656971     -1.06268377380797
  H   0.06571132051046      2.17838105390825     -0.32077666987284
  N   1.06315007222931     -0.28332464726013     -0.86429977246728
  H   1.55961380296529     -1.12126685463963     -0.58165987958431
  H   1.75393854166301      0.41274647559468     -1.11806738275027
