12
Coordinates from ORCA-job run
  C   -0.71947059387482     -0.85828394417542      0.50549890372081
  C   0.31903369219823      0.20120502299318      0.14323776919239
  Cl  -1.80349199699478     -0.27496876661984      1.79893094002078
  H   0.84340934236461      0.49083868707676      1.06646664550900
  H   -0.24641694551333     -1.77072369288438      0.87299516641760
  H   -1.32553452289166     -1.08735415081040     -0.37099263842450
  N   -0.21129307630499      1.41769137623008     -0.43330157865977
  H   -0.80468389473060      1.89748832775528      0.23123596990388
  H   -0.76493913280805      1.18158228098631     -1.24988910852215
  N   1.17610371118225     -0.39104271964439     -0.87273088045236
  H   1.80124863910747      0.33174180072832     -1.20920802486352
  H   1.73603477826568     -1.13917422163550     -0.48224316384217
