12
Coordinates from ORCA-job run
  C   -0.84368690168157     -0.78638107676910      0.46457352390550
  C   0.25116325617973      0.26119789735190      0.28093345899617
  Cl  -0.16656121463928     -2.35554509501191      0.97968431936789
  H   0.75756422872322      0.38377796006138      1.24338634823465
  H   -1.37204603096637     -0.95581319286313     -0.47722350281746
  H   -1.54835883372104     -0.46098648072810      1.22758997859007
  N   -0.42573761010817      1.50853665131461     -0.02318168848750
  H   0.27875927856365      2.23015116482031     -0.12541149138888
  H   -0.89545993491589      1.43066569448485     -0.91973232354475
  N   1.28350490336778     -0.06853126290930     -0.69301474971184
  H   0.85551696245563     -0.32233987002096     -1.57796026570776
  H   1.82534189674231     -0.86573238973056     -0.37964360743611
