12
Coordinates from ORCA-job run
  C   -0.77220602567787     -0.86745541813784      0.68638391757182
  C   0.27847290991240      0.16810863274909      0.33207437718384
  Cl  -1.71822921863047     -1.35967262490006     -0.75748011699904
  H   0.79317628158245      0.39724626475172      1.27270763614662
  H   -1.47955272814802     -0.45153978048610      1.40047337367586
  H   -0.29508727376004     -1.76557726754718      1.07237189638281
  N   -0.38036164575459      1.39790568136938     -0.08881345184205
  H   0.30948269998979      2.12137216299364     -0.25083990120348
  H   -0.87741217281334      1.24374205871198     -0.95860449860277
  N   1.27219365163843     -0.43538715812096     -0.54652175481668
  H   2.02069021723946      0.22294148892324     -0.72512129420009
  H   0.84883330442181     -0.67168404030691     -1.43663018329684
