12
Coordinates from ORCA-job run
  C   -0.68504381404063     -0.84713888909790      0.64672961696929
  C   0.28319698870283      0.28115664699710      0.30197110333952
  Cl  -1.60755005851210     -1.38862388189567     -0.79126479935726
  H   0.81151744211040      0.50186497557342      1.23828700639254
  H   -0.14435939990147     -1.71762105063802      1.01781373883647
  H   -1.40982639874278     -0.50605413516867      1.38477147762061
  N   -0.47447991717186      1.46025071635942     -0.05797618823650
  H   0.18068381335330      2.17888760844293     -0.34177106365243
  H   -1.06300215646149      1.25649447715493     -0.85792424996958
  N   1.30883784617707     -0.04875987784905     -0.68160904573289
  H   0.87227897875086     -0.39864850510744     -1.52745340986590
  H   1.92574667573587     -0.77280808477106     -0.32957418634387
