12
Coordinates from ORCA-job run
  C   -0.75058411187267     -0.77418467787814      0.66489925129925
  C   0.38067659698959      0.17319157060746      0.27487567537249
  Cl  -1.73991160211207     -1.24162796957449     -0.75452974010641
  H   0.88839560371007      0.41681031266977      1.21689199372883
  H   -1.42616799556044     -0.29501000709889      1.37324914147270
  H   -0.34206002614965     -1.69060939359283      1.08872854799747
  N   -0.03592986336150      1.44360352078434     -0.30883152461730
  H   -0.63378348792600      1.27273468895950     -1.10997663925039
  H   -0.56523935585158      1.99129246602130      0.36096020028960
  N   1.32669642681005     -0.53822239640858     -0.55748579412048
  H   2.03692248114174      0.11928364831564     -0.85661621445852
  H   0.85998533418246     -0.87726176280508     -1.39116489760723
