17
Coordinates from ORCA-job run
  C   0.67065861185136     -0.52677808568431      0.08996288282963
  C   -0.53328393568154      0.39987344429616      0.07618156653324
  Cl  0.29557633801419     -2.20695790078311      0.09597426035028
  H   -0.15601966919436      1.42308421348338      0.10500271692684
  N   1.49820014228994     -0.16073095317902     -1.17725506765394
  O   1.85685679686251      1.01030370143061     -1.20481580943048
  O   1.69874668182170     -1.02282838882489     -2.01276003802794
  N   1.64965183070004     -0.17230455865852      1.23076110599222
  O   1.53073999172296      0.94607398833800      1.70803944356386
  O   2.49276165246171     -1.01328068441640      1.49592340181685
  N   -1.33165230540411      0.25782457363557      1.35177049800650
  O   -0.89284032282308     -0.45953771013936      2.24406125176242
  O   -2.36474998190700      0.91496205530348      1.39397671042501
  C   -1.43488818913520      0.18484722446209     -1.12558583818857
  H   -2.24755055617303      0.90815593868605     -1.09113916291651
  H   -1.85402066877480     -0.82150100712548     -1.12981914206411
  H   -0.87818641663130      0.33979414917574     -2.05127877992530
