17
Coordinates from ORCA-job run
  C   0.92065145479585      0.16887994582322      0.04701806396167
  C   -0.57190759050934      0.49617366709723      0.15657897915357
  Cl  1.79520004309277      1.59210917635234     -0.45226073440698
  H   -0.61786864472462      1.28666187340392      0.91036535998160
  N   1.39390911696918     -0.29489626601375      1.44050818047064
  O   1.97631799993490      0.50934991778544      2.14627054865496
  O   1.06618763188824     -1.44189108605825      1.71118116554844
  N   1.32565155922356     -0.95015603549873     -0.91389185226941
  O   2.38896296607836     -1.49610861760595     -0.66258279304204
  O   0.60562687422394     -1.12797046563359     -1.88405269255566
  N   -1.32034590167649     -0.65426985876082      0.78542122287445
  O   -1.69667553005503     -0.48456657066152      1.94234154920554
  O   -1.51357714577023     -1.64453821536037      0.09035465707456
  C   -1.29736828667784      0.92416184735021     -1.10665534144582
  H   -1.40707631909439      0.09093494679662     -1.79318628061088
  H   -0.76185639375991      1.73483987488810     -1.59966396031473
  H   -2.28483183393894      1.29128586609588     -0.81874607227990
