17
Coordinates from ORCA-job run
  C   0.63075400709068     -0.55197419152731      0.05421655457470
  C   -0.52648837787884      0.43338101297979      0.08095410033781
  Cl  0.14205259052777     -2.20041980173524     -0.02716972060392
  H   -0.10226970728719      1.43217410984341      0.19216311455937
  N   1.53753799861321     -0.19840573045504     -1.15706433654430
  O   2.10093568132360     -1.11670956360274     -1.72821913638281
  O   1.64006699720228      1.00037477483924     -1.38798035621462
  N   1.60851022968202     -0.30878375710653      1.23832724557329
  O   1.76573103838304      0.86969407679961      1.52232962069904
  O   2.16115319143492     -1.27909689015765      1.71995498667319
  N   -1.33937740800460      0.22014154767117      1.34045941507691
  O   -2.46247636924958      0.70835367384629      1.34657480385067
  O   -0.80474155519941     -0.37003938232808      2.27429370584211
  C   -1.42074932610805      0.34830473003685     -1.14070444856770
  H   -1.90853669839367     -0.62429676642264     -1.20473339676987
  H   -2.18681242599966      1.11833106381740     -1.07698022676342
  H   -0.83728986613651      0.51997109350147     -2.04542192534046
