17
Coordinates from ORCA-job run
  C   0.71580914530656     -0.44368020436219      0.13851180845098
  C   -0.57835882693295      0.34751900300208      0.04764609203329
  Cl  0.50720389434223     -2.14768343985976      0.26126871977344
  H   -0.31220405913115      1.40567631612893      0.04140925008632
  N   1.52738754792246     -0.08590640354090     -1.14107601061066
  O   1.71331081623730      1.11657857960964     -1.28318674749941
  O   1.88843547813324     -0.98845733433220     -1.87402722607757
  N   1.63536541134890      0.08846132276648      1.26316980637902
  O   1.43828469162465      1.24471916714440      1.60458339151235
  O   2.51153517845390     -0.66694985897224      1.64900274120870
  N   -1.38972591050838      0.16946858856537      1.31202101220156
  O   -0.84600452847452     -0.34488777070681      2.28367923877360
  O   -2.53396671511378      0.60497830989516      1.27145713767207
  C   -1.41182571823046     -0.01540904266955     -1.16682551278216
  H   -0.84735505774407      0.16871599768775     -2.08228135958008
  H   -2.30322566945803      0.60846184515374     -1.18531987249800
  H   -1.71366567777591     -1.06260507550990     -1.14003246904347
