17
Coordinates from ORCA-job run
  C   0.90388001794115      0.18100039909327      0.23852198037576
  C   -0.54098384089139      0.60114351391941     -0.02952652447869
  Cl  1.67744641188414      1.28299378443040      1.34132394816281
  H   -0.49162714101033      1.61510256925552     -0.42510044510399
  N   1.02770430613609     -1.27037427831635      0.72168847388568
  O   1.43798759736818     -1.48598992895945      1.84540985768219
  O   0.68495051495640     -2.08225601827963     -0.12838705595794
  N   1.71559747830362      0.20875865780573     -1.06500802553049
  O   1.26314488658784      0.88428281020087     -1.97934903213797
  O   2.77053461150850     -0.40440230811378     -1.04113275525841
  N   -1.23089349393051      0.72418446276210      1.29897364306959
  O   -1.74124525601570      1.80744665678081      1.56424065606118
  O   -1.25604143167357     -0.28857886725074      1.99382615903277
  C   -1.38999843879400     -0.29120982091972     -0.91794595545536
  H   -1.55251314154288     -1.26534151101522     -0.46288539682513
  H   -0.92246586465396     -0.42126783964844     -1.89194570480109
  H   -2.35347721617357      0.20350771825522     -1.06070382272091
