17
Coordinates from ORCA-job run
  C   0.93602067473597      0.08224006015395      0.02716006799548
  C   -0.50329137355066      0.56930603219462      0.19918044058060
  Cl  1.90449789129624      1.36035672200557     -0.66444734848509
  H   -0.46772302853747      1.38084995379807      0.92842138164580
  N   1.56220189690337     -0.31011972579814      1.37360943992485
  O   2.77100172582777     -0.46337693496756      1.38593806439455
  O   0.77947519406141     -0.45196000169725      2.30540798753072
  N   1.05680856756808     -1.16956070654490     -0.86113953237038
  O   0.79619139590735     -0.98857936705953     -2.03901656913517
  O   1.38175965482188     -2.20860037727321     -0.31177731483393
  N   -1.38097565576773     -0.47900782774254      0.82517404968801
  O   -2.15977757303559     -0.09118169133677      1.68475105194694
  O   -1.29970421862020     -1.61241230930422      0.36186537458394
  C   -1.20631680990906      1.01033121336269     -1.07740343276176
  H   -0.65050369493591      1.80034219199177     -1.57835785258288
  H   -1.32878989479742      0.17248999672393     -1.76128395511799
  H   -2.18887475196803      1.39688277149354     -0.80008185300366
