17
Coordinates from ORCA-job run
  C   0.91233103887257      0.23583517010212      0.13718692317804
  C   -0.56710375648634      0.57582824642852     -0.04033268528426
  Cl  1.72851408812106      1.47004717175928      1.05310869738531
  H   -0.59652385937900      1.54399657583030     -0.53913973210223
  N   1.14079656696993     -1.15424826396148      0.74647878099545
  O   1.65555312226990     -1.24109307656934      1.84426827725248
  O   0.76230059629928     -2.05929035063052      0.01360395242288
  N   1.60709486145006      0.15924595552725     -1.23047483336599
  O   2.68836550946824     -0.40668034926068     -1.24008846657812
  O   1.04604096754202      0.71722571236949     -2.16375339729840
  N   -1.14523163320753      0.81295715500573      1.32552236935610
  O   -1.68104510592940      1.89843947729671      1.52305377903559
  O   -1.06363336462575     -0.12062236781156      2.11979489053304
  C   -1.45008588053172     -0.43314007392330     -0.75378309311485
  H   -2.44217585109203      0.01170505532292     -0.86002576183825
  H   -1.06230364963853     -0.65069758757821     -1.74695564756469
  H   -1.53189365010274     -1.35850844990722     -0.18846405301210
