17
Coordinates from ORCA-job run
  C   0.91189501263165      0.21163759944554      0.08433112057908
  C   -0.58884287469582      0.49161177132063      0.16980209330924
  Cl  1.73197543982715      1.62128759414945     -0.54053643366552
  H   -0.71046521807801      1.29376249221616      0.90012185533178
  N   1.50500270790795     -0.10594721623964      1.46523388493374
  O   0.69559896278060     -0.35850476918987      2.34963953512092
  O   2.72077708163462     -0.09657240559573      1.54804363294586
  N   1.25949219145134     -0.99905047828873     -0.80119488137800
  O   1.04409703679997     -0.83977920676111     -1.99147145621697
  O   1.69564230047146     -1.98976562543232     -0.23993104201094
  N   -1.34702480664959     -0.67428348900474      0.74119736382858
  O   -1.07553073532814     -1.78210062440050      0.28837666275506
  O   -2.22657324818739     -0.40620158786737      1.54765820163908
  C   -1.27035527618416      0.84191186133764     -1.14616372597792
  H   -2.30931451760280      1.09433906531233     -0.92583796757816
  H   -1.24240319427931     -0.00214539970381     -1.83285730044991
  H   -0.79597086249952      1.69980041870207     -1.61841154316592
