17
Coordinates from ORCA-job run
  C   0.71587764300035     -0.43526674562611      0.02120176887187
  C   -0.58010347804670      0.36856690522775     -0.00839911262777
  Cl  0.49511700253979     -2.13700836279630     -0.17213288737501
  H   -0.30300696699815      1.41793942579510      0.09484079562537
  N   1.69918728192650      0.08189069750178     -1.04627753551189
  O   2.73598141393547     -0.55374372759191     -1.14859243400524
  O   1.38277105899601      1.09551165255060     -1.65383045668263
  N   1.46700061677617     -0.11495034353702      1.34072623898774
  O   1.93534017896651      1.01383593904368      1.36696448339581
  O   1.48772161442607     -0.96547359122015      2.20962696854747
  N   -1.33072766895861      0.03957146371369      1.26442975499960
  O   -2.17314236754071     -0.85018939395564      1.21786187678456
  O   -1.02494239206102      0.70291690250524      2.25350665024624
  C   -1.45852309829295      0.11979507571589     -1.21475601897531
  H   -0.92803431466944      0.39799863315432     -2.12378659316584
  H   -1.76905917134655     -0.92091504202043     -1.26653082330017
  H   -2.35245735265273      0.74052051153950     -1.13385267581478
