17
Coordinates from ORCA-job run
  C   0.88286584107706      0.28374262086102      0.21532779324968
  C   -0.59617071813790      0.54281481730871     -0.06916075780268
  Cl  1.54941185142028      1.53325145292020      1.22664216647860
  H   -0.64527340296555      1.52246546133661     -0.54337424489514
  N   1.14765621308338     -1.10970760403943      0.80196411979953
  O   1.57971708486871     -1.20168399779807      1.93437783011659
  O   0.88326749531080     -2.01101132612022      0.01640014857692
  N   1.68491758457719      0.29134471495365     -1.09453547359168
  O   2.79735660413277     -0.20672720520848     -1.03281782941354
  O   1.16373454748052      0.84127221290797     -2.05532226966593
  N   -1.29160651457465      0.70392317989408      1.25212464642915
  O   -1.90864495159410      1.74831451320814      1.43336427609841
  O   -1.21266408920875     -0.24594874822365      2.02704953740000
  C   -1.35931024513960     -0.49303304562499     -0.87638728155470
  H   -2.36525560141316     -0.10347341539418     -1.04868615783183
  H   -1.42846855972562     -1.43864240541796     -0.34376257636410
  H   -0.88353313919138     -0.65690122556338     -1.84120392702927
