17
Coordinates from ORCA-job run
  C   0.88578310002238      0.22072766458017      0.10987279709196
  C   -0.62007684481304      0.47755913754922      0.11217108065252
  Cl  1.73957452648404      1.64485656142028     -0.43103488967565
  H   -0.76789163751395      1.29719138993822      0.82235994541012
  N   1.41743766764094     -0.09460355055106      1.52617254657839
  O   1.18261706473900      0.76775760943431      2.35253221546614
  O   2.02922964552692     -1.13893752880061      1.66819959261314
  N   1.26476045683991     -0.97892701788820     -0.75855261584431
  O   0.39818116526217     -1.84260885399046     -0.83845433538111
  O   2.38049353887173     -0.99763645728014     -1.24847106994021
  N   -1.37850085559607     -0.68626292243166      0.73308880743157
  O   -2.42973794279845     -1.01901668715200      0.20549422691391
  O   -0.90121518467575     -1.16301877704300      1.75588508195581
  C   -1.18582978346424      0.81437615566878     -1.25320008416449
  H   -0.67343531734925      1.67771236582964     -1.67438160003799
  H   -2.24247337759104      1.05471924540290     -1.15388700371292
  H   -1.09591622158528     -0.03388833468639     -1.93079469535689
