17
Coordinates from ORCA-job run
  C   0.67962502039312     -0.51692240859109      0.08609449836340
  C   -0.54098037509560      0.38771281253094      0.08089600317705
  Cl  0.33705396034525     -2.20385455636224      0.05242944964825
  H   -0.18281147023148      1.41663785683161      0.13842641521365
  N   1.50978499902592     -0.10759054444368     -1.16562193120129
  O   1.86103375546346      1.06601745502224     -1.15580088161479
  O   1.71625661608444     -0.94153288453588     -2.02784115507411
  N   1.64233023482321     -0.16967413480315      1.24273624025673
  O   2.50715417838285     -0.99511022612059      1.48644187138823
  O   1.49061135391472      0.92965434483448      1.75369244599286
  N   -1.35067770914334      0.20141106178549      1.34410165516548
  O   -2.39426228570091      0.84148586970686      1.39082038756600
  O   -0.91040688895079     -0.53109303052919      2.22317119696481
  C   -1.42538749879232      0.18535672610050     -1.13574723761410
  H   -0.86378771536412      0.37934180263178     -2.05103062102966
  H   -1.82034900198702     -0.83008731800196     -1.17244479297537
  H   -2.25518717316739      0.88824717394388     -1.08932354422713
