17
Coordinates from ORCA-job run
  C   0.89631609995056      0.20174510180668      0.02648257831071
  C   -0.59776506896005      0.49427416202598      0.14941923690038
  Cl  1.72977049808802      1.58908160664452     -0.63021884109749
  H   -0.66652610023048      1.33774111063400      0.84360110987530
  N   1.54070501428629     -0.08307065002319      1.40231655052761
  O   2.14053492055607     -1.13646519465329      1.52568903908252
  O   1.39424822805505      0.80902312570222      2.21757093326434
  N   1.17553707755795     -1.03061162520075     -0.83342587103699
  O   2.25146499333869     -1.09507731612341     -1.40235712119712
  O   0.28165726083638     -1.86998006730291     -0.82698979754560
  N   -1.32446287965476     -0.63197143832877      0.86936365421463
  O   -2.43348137164991     -0.93902023162407      0.45682443271836
  O   -0.76275813920143     -1.10418978830450      1.85051299827371
  C   -1.27310467289335      0.80517226446776     -1.17181259644457
  H   -0.77903813845879      1.64150823359172     -1.66351896714339
  H   -1.26342131558029     -0.06510668889025     -1.82692271897617
  H   -2.31067640603997      1.07694739557827     -0.98853461972622
