17
Coordinates from ORCA-job run
  C   0.92053870649589      0.16135854159214      0.09893470851578
  C   -0.56512079370552      0.51278761537605      0.18804306118810
  Cl  1.81431917938969      1.55541067786649     -0.45671758450209
  H   -0.65102453560260      1.28903749131799      0.95061059176751
  N   1.48619734594849     -0.24583883299270      1.46761760188377
  O   0.65886926705950     -0.48956954785281      2.33772820059422
  O   2.70011347910290     -0.30529639556935      1.55602668211710
  N   1.21501758390135     -1.02437899227270     -0.83703483483742
  O   1.59325593946515     -2.06055061125329     -0.31730569483989
  O   1.02091979205611     -0.80178626140708     -2.02083929130957
  N   -1.38502519028163     -0.63619412710025      0.70535860594988
  O   -2.25673570528112     -0.35728542749584      1.51673586536361
  O   -1.16663611264801     -1.73641264048367      0.20779292562250
  C   -1.21740386587578      0.95151904062118     -1.11613631634823
  H   -1.22533836160962      0.13679747185790     -1.83793405368916
  H   -2.24462446165344      1.24552072108882     -0.89233138605713
  H   -0.69732226676135      1.80388127670712     -1.54854908141897
