17
Coordinates from ORCA-job run
  C   0.85544979762641     -0.14616299729643     -0.36053666817736
  C   -0.52962995381560      0.49876819221852     -0.29627361819131
  Cl  1.25421682204842     -0.50288455052213     -2.02303589909385
  H   -0.44976738677545      1.45012100910110     -0.82552523624512
  N   1.93868398509756      0.79154072967907      0.19392068776582
  O   1.53543875040848      1.75374892078351      0.83623666670437
  O   3.09417558552590      0.48284090191761     -0.03970141448641
  N   0.96845896527492     -1.43956035132052      0.46670198845609
  O   0.32021124819418     -2.37953092772575      0.03699647808104
  O   1.67061679519360     -1.40068864466017      1.46284753576927
  N   -0.91432291904518      0.86606970585158      1.11015570629027
  O   -1.46025569381729      1.95068169619594      1.25666122587023
  O   -0.72412121692553      0.01453092630464      1.97304863501918
  C   -1.67394647502429     -0.34071213650697     -0.84824636422596
  H   -2.58096361826749      0.26540077527629     -0.80746289207434
  H   -1.81523964649973     -1.24141461952497     -0.25379047231693
  H   -1.49000503919891     -0.62274862977133     -1.88299635914499
