17
Coordinates from ORCA-job run
  C   0.87626643343306      0.29855923301195      0.22237977239311
  C   -0.60444020310631      0.53354167397528     -0.07441648750669
  Cl  1.51544305329348      1.55930840392204      1.23723540404715
  H   -0.66561856128492      1.51294371207023     -0.54782876500682
  N   1.15778700492324     -1.09014774015730      0.81370995495090
  O   1.58088475507695     -1.17349591706214      1.95013000072885
  O   0.91369112208421     -1.99657058938074      0.02756249651487
  N   1.68790104293837      0.31731300797689     -1.08141578937701
  O   1.16870109157485      0.86584119785339     -2.04405380819251
  O   2.80466189706365     -0.17025498117103     -1.01304325392932
  N   -1.31282535876617      0.68164770613120      1.24166028301386
  O   -1.94245093845854      1.71850263579660      1.42261130021802
  O   -1.22892555873789     -0.27033962561899      2.01359372269155
  C   -1.34256688466110     -0.51391195482416     -0.88956486280827
  H   -2.35338248517704     -0.14135203970207     -1.07078861715404
  H   -1.40093681315476     -1.46115462752324     -0.35863171634680
  H   -0.85518959704108     -0.66843009529792     -1.85013963423685
