17
Coordinates from ORCA-job run
  C   0.72624413672921     -0.40377592260987      0.11480889992239
  C   -0.60769551344329      0.31795840905517      0.01168954945656
  Cl  0.59762738873917     -2.12078475638278      0.08368413954728
  H   -0.40614104076957      1.38836688511933      0.06585294635361
  N   1.64306808719011      0.08291222834396     -1.04012193254663
  O   1.44649515606414      1.23184963681756     -1.41685448257453
  O   2.51106489786479     -0.68544319729446     -1.42015897150046
  N   1.53509742307260      0.08271688362930      1.34989387282856
  O   2.20048481980288     -0.73596294523039      1.95282052387159
  O   1.45487107328130      1.28733352220645      1.54600193763263
  N   -1.44008715365647      0.02284738912437      1.24159351484670
  O   -2.62555204435890      0.32114957743575      1.16892481544689
  O   -0.87199169623531     -0.43957837987585      2.22635322288855
  C   -1.39217526715798     -0.02990569840017     -1.23906523281608
  H   -0.79691816645829      0.18329548247700     -2.12672065880691
  H   -1.68162534921308     -1.08065948724943     -1.24200063840071
  H   -2.29276675145132      0.57968037283408     -1.27570150614945
