17
Coordinates from ORCA-job run
  C   0.90475922416116      0.15650907978926      0.25246622543534
  C   -0.52390319904512      0.61591998559514     -0.03679639912997
  Cl  1.69143486132247      1.23582864128481      1.36810180210691
  H   -0.44146882162918      1.62853865408399     -0.43027431797235
  N   0.98151005275122     -1.29840812672415      0.73586833976827
  O   0.62977466713948     -2.09987911650874     -0.12043258942477
  O   1.36759805421585     -1.52598372658897      1.86573987629217
  N   1.73629383583350      0.16267833748372     -1.03877852993849
  O   2.77407976876937     -0.47839276996272     -0.99934016884655
  O   1.31620432618836      0.85058015643719     -1.95928977395764
  N   -1.23097493259113      0.75616568136693      1.28079539848158
  O   -1.29309928145557     -0.25568867854052      1.97460236753971
  O   -1.71768544112192      1.85214011969371      1.53832045238164
  C   -1.38275060536276     -0.25225257379621     -0.93980103667512
  H   -1.58048229944894     -1.22128541752189     -0.48774729187596
  H   -0.90309832425020     -0.39618729404642     -1.90587620702755
  H   -2.32919188547661      0.26971704795487     -1.09855814715723
