17
Coordinates from ORCA-job run
  C   0.92271921658862      0.23511761924184      0.15036041110537
  C   -0.55889555749059      0.57036820932532     -0.01489063413743
  Cl  1.75402976515857      1.52333009732108      0.97729442814476
  H   -0.58382268667126      1.56093578583202     -0.46844651628190
  N   1.19116086207313     -1.11890398324062      0.81602280014274
  O   1.94150468600168     -1.16887072846974      1.76997647550537
  O   0.61761557751463     -2.04462294055055      0.25768912119937
  N   1.56552912465437      0.11331136157439     -1.24235914007736
  O   1.13271940275297      0.88056207477766     -2.09070942180838
  O   2.48415086540231     -0.68296016651787     -1.35522280838730
  N   -1.17524214359250      0.74567685781016      1.34406109295687
  O   -0.78247600352386      0.00914709230833      2.24476008881732
  O   -2.07106411036016      1.57878767347587      1.42009065566969
  C   -1.44045692538531     -0.38605262915030     -0.80379800626260
  H   -1.58675896302501     -1.32334331878411     -0.27212630267355
  H   -2.40417981701737      0.10381333002209     -0.95433388732274
  H   -1.00653329308020     -0.59629633497557     -1.78036835659022
