17
Coordinates from ORCA-job run
  C   0.86323480901983      0.31153685069281      0.05853672901279
  C   -0.65944266977130      0.42180532986050      0.11247875394243
  Cl  1.55011884600354      1.77640676567206     -0.59928722110795
  H   -0.86084350770964      1.26669425918490      0.77849900037064
  N   1.47801136867395      0.13476167448388      1.46488369033635
  O   1.19266376503396      1.01931972458329      2.25089657373532
  O   2.19344806588763     -0.83649011669009      1.63805168529012
  N   1.32401579912070     -0.89624326250299     -0.75712821375498
  O   2.41416016073392     -0.83630150455557     -1.29866881887004
  O   0.54580908865752     -1.84365309516776     -0.74517818637708
  N   -1.27555609254210     -0.76777584776980      0.83399302119389
  O   -0.71249066800049     -1.13522228761914      1.85817021822886
  O   -2.31204871496900     -1.22731264737338      0.37691064584004
  C   -1.30689402902959      0.61621103124443     -1.24450036725930
  H   -1.15851671586308     -0.25985796691625     -1.87477406824006
  H   -2.37765607932773      0.75887889130252     -1.11373267184534
  H   -0.89901342591812      1.49724220157059     -1.73715077049569
