17
Coordinates from ORCA-job run
  C   0.90650846656630      0.16206698651103      0.24151253369621
  C   -0.52927975711367      0.61249731079600     -0.02666336501404
  Cl  1.69897078109297      1.23942512923798      1.35508756708857
  H   -0.45936299109750      1.62827655556525     -0.41443500460195
  N   0.99938835780469     -1.29543894475715      0.71405268987688
  O   0.64552279606582     -2.09399274971829     -0.14407600630709
  O   1.39846084692073     -1.52749105159735      1.83855518210037
  N   1.72206628820348      0.18308511805676     -1.05941751240808
  O   1.28361332512690      0.87056416397256     -1.97167828197071
  O   2.76652360206305     -0.44780728927538     -1.03555206665136
  N   -1.21918831656035      0.73918849516801      1.30166443668323
  O   -1.27404375626377     -0.28061753825201      1.98439637814739
  O   -1.69916123448561      1.83328464160287      1.57898442290704
  C   -1.39284563651271     -0.25712335244614     -0.92350111941378
  H   -1.57662466139396     -1.23029740031707     -0.47455262373875
  H   -2.34575660044393      0.25755548519689     -1.06670397278389
  H   -0.92479150997245     -0.39117555974395     -1.89667325761005
