14
Coordinates from ORCA-job run
  C   -0.35605626053531      0.27663994836618     -0.48978084909321
  C   0.94163990486095     -0.44220709094930     -0.08749666779871
  F   -0.28670128564739      0.59676819339448     -1.80995408892947
  H   1.03492345095534     -1.32040175072056     -0.73366767611032
  N   -0.61590448236130      1.41028535263682      0.26568617736103
  H   -1.50577077656926      1.82614617815769      0.02119467023139
  H   -0.56396346404304      1.24708930368914      1.26250996098359
  N   -1.50380324506995     -0.78904421620387     -0.45924090167040
  O   -1.20874306352661     -1.93629708456241     -0.77610673321895
  O   -2.61765020670959     -0.36578943201571     -0.17596159153758
  C   0.84820838454050     -0.88422769557139      1.30551644844664
  N   0.72846220045875     -1.20437056625546      2.42887733822976
  C   2.08773309466373      0.44581402059981     -0.29068896619912
  N   3.01862574898317      1.13959483943456     -0.46188712069466
