14
Coordinates from ORCA-job run
  C   -0.41748030999788      0.23840043227473     -0.26120437804031
  C   0.80749261099885     -0.35817854319724      0.45330161198341
  F   0.02819065287646      1.05716428434980     -1.27199993710210
  H   0.45830144301728     -1.17211690624535      1.09518700861952
  N   -1.31251401054910      0.83479522295111      0.62862119574079
  H   -0.89111549807763      1.60234632566313      1.13757489136553
  H   -2.14390462192058      1.14797644845515      0.14061876616501
  N   -1.19108456894703     -0.87431010153213     -0.96691669071109
  O   -0.82738570702336     -2.03140601830337     -0.79287193560037
  O   -2.13618065385822     -0.48705249397506     -1.64123879286145
  C   1.41496258198344      0.68473167440622      1.28584523489130
  N   1.85226020800990      1.53782623273762      1.96365351037369
  C   1.78185936517959     -0.88358902989117     -0.50649614873854
  N   2.57659850830828     -1.29558752769344     -1.26507433608539
