14
Coordinates from ORCA-job run
  C   -0.36527511060630      0.14884539305852     -0.50813611057047
  C   0.71103635684177     -0.16223085427455      0.57366554967689
  F   0.21802731939119      0.04168662479108     -1.71355148203033
  H   0.20341868212075     -0.16996182678521      1.54467567213183
  N   -1.04418256513714      1.37797873354125     -0.41706526447603
  H   -1.56754320051167      1.46749270121179      0.44279203756987
  H   -0.42181880099077      2.16297838851819     -0.56122348121605
  N   -1.41979984872027     -0.94825092957292     -0.36769197902446
  O   -1.58030325750200     -1.71447492034081     -1.30107095336197
  O   -2.00960584548707     -0.93416754295444      0.70967743019697
  C   1.70279639399355      0.91363806542568      0.55526507521056
  N   2.44864965613397      1.81969584539357      0.52180343051967
  C   1.32747221132267     -1.47128091211634      0.34957522069438
  N   1.79612800915132     -2.53294876589582      0.17128485467915
