16

C	0.0	0.0	0.0
C	-0.383628	-0.037391	-1.480828
F	1.407314	0.0	0.0
H	-0.147868	0.937608	-1.911115
H	-0.339134	-0.90644	0.503002
N	-0.53068	1.164953	0.602087
H	-0.999959	1.004787	1.477223
H	0.136631	1.918537	0.640316
C	-1.815485	-0.454878	-1.728756
H	-2.550872	0.053986	-1.07655
H	-1.930873	-1.516337	-1.505242
H	-2.083059	-0.281442	-2.774362
N	0.53328	-0.993719	-2.183619
O	0.585128	-2.145526	-1.754238
O	1.161971	-0.582109	-3.160303
H	-4.21987	0.0	0.0
