15

C	0.0	0.0	0.0
C	-0.520169	1.357857	-0.434566
F	1.389931	0.0	0.0
H	-0.180215	1.51439	-1.471844
H	-0.335688	-0.203118	1.02015
C	-0.414347	-1.083886	-0.904671
N	-0.637044	-1.96525	-1.647319
N	0.047428	2.33132	0.499239
H	-0.453059	3.205838	0.401197
H	1.020106	2.499336	0.274171
C	-2.036096	1.384288	-0.375036
H	-2.51612	0.628431	-0.995283
H	-2.412508	2.356154	-0.707444
H	-2.401447	1.218458	0.638506
Cl	-5.160394	0.0	0.0
