15

C	0.0	0.0	0.0
C	-0.46239	-0.228678	-1.466451
F	1.387082	0.0	0.0
H	0.364658	0.217926	-2.03516
H	-0.33607	0.981655	0.343045
C	-0.431431	-1.0257	0.95996
N	-0.676289	-1.883146	1.723365
N	-1.682711	0.425493	-1.868702
H	-2.493368	0.112438	-1.323764
H	-1.616971	1.425973	-1.716915
C	-0.539904	-1.711536	-1.794441
H	-1.392707	-2.159815	-1.279623
H	0.370853	-2.237639	-1.493554
H	-0.688732	-1.830147	-2.868627
Cl	-4.269636	0.0	0.0
