15

C	0.0	0.0	0.0
C	-0.562962	0.215946	-1.403595
F	1.378877	0.0	0.0
H	-1.57276	0.603851	-1.240978
H	-0.337102	0.816096	0.645823
C	-0.407788	-1.281883	0.602089
N	-0.584394	-2.335855	1.086112
N	-0.585313	-1.05897	-2.130072
H	-1.37705	-1.585236	-1.763925
H	-0.82084	-0.856265	-3.09675
C	0.290394	1.22796	-2.150535
H	0.418679	2.145261	-1.569357
H	1.274288	0.808712	-2.369226
H	-0.197074	1.496225	-3.092829
Cl	-3.548965	0.0	0.0
