15

C	0.0	0.0	0.0
C	-0.456568	0.146846	-1.453749
F	1.389153	0.0	0.0
H	-1.546083	0.089992	-1.435881
H	-0.367237	0.812181	0.628768
C	-0.382345	-1.301881	0.577852
N	-0.511143	-2.374242	1.03733
N	0.063944	-0.920776	-2.307061
H	-0.452161	-1.772763	-2.120238
H	1.034921	-1.096121	-2.072033
C	-0.018282	1.502689	-1.988815
H	-0.469274	2.31163	-1.4078
H	-0.341762	1.594016	-3.026117
H	1.070215	1.608359	-1.956353
Cl	-3.454079	0.0	0.0
