14

C	0.0	0.0	0.0
C	-0.545083	0.261913	-1.406533
Cl	1.790379	0.0	0.0
H	-0.258422	-0.575406	-2.050848
H	-1.645917	0.276006	-1.310877
C	-0.386202	1.087844	0.907748
N	-0.609717	1.970983	1.649355
C	-0.502346	-1.340931	0.515256
H	-0.146459	-2.135416	-0.145738
H	-0.125909	-1.521561	1.523494
H	-1.596699	-1.310586	0.520988
C	-0.064886	1.506686	-1.995059
N	0.320955	2.500913	-2.485849
Br	-3.823839	0.0	0.0
