14

C	0.0	0.0	0.0
C	-0.545387	0.280146	-1.402898
Cl	1.793239	0.0	0.0
H	-1.645288	0.295277	-1.305364
H	-0.26114	-0.548098	-2.058927
C	-0.385387	1.078467	0.919052
N	-0.611227	1.961715	1.659749
C	-0.506196	-1.345044	0.499039
H	-0.150534	-2.133781	-0.168953
H	-0.135035	-1.536782	1.507147
H	-1.600018	-1.311495	0.500813
C	-0.065281	1.532056	-1.976466
N	0.321942	2.527688	-2.463273
Br	-3.826531	0.0	0.0
