14

C	0.0	0.0	0.0
C	-0.546862	-0.307277	-1.399473
Cl	1.793602	0.0	0.0
H	-1.647386	-0.272991	-1.307135
H	-0.221616	0.457754	-2.109175
C	-0.386834	1.368712	0.365861
N	-0.619673	2.475093	0.683944
C	-0.49517	-1.001307	1.032243
H	-1.588586	-0.976966	1.027114
H	-0.119162	-0.735187	2.02163
H	-0.135746	-1.998386	0.769932
C	-0.121574	-1.618731	-1.87489
N	0.217027	-2.670613	-2.271515
Br	-3.819524	0.0	0.0
