15
Coordinates from ORCA-job run
  C   0.40115890875324      0.34481982878355     -0.30944459074252
  C   -1.00219614910553     -0.31185728603518     -0.38145559932808
  H   0.49394350906991      0.94252704515991     -1.23057550021730
  H   -1.08425780158966     -0.87733398480952     -1.31830085436298
  C   1.48381087643351     -0.72151497429421     -0.29243755530573
  H   2.46980205572203     -0.25320148731549     -0.34926709091558
  H   1.38797959032744     -1.40110958668332     -1.14244402112544
  H   1.42890989847325     -1.29908015315197      0.63275304759102
  N   0.45964204911749      1.13368181478845      0.90849490778130
  H   1.41899342616601      1.35967267722555      1.13885610479023
  H   -0.05166736641229      2.00284260212562      0.80797339595467
  C   -2.03622151419916      0.72867114008130     -0.38705033708163
  N   -2.81128618171996      1.61012588968521     -0.41238849349760
  C   -1.20925004044045     -1.23929769889689      0.73562084048881
  N   -1.34836126059582     -2.01994582666300      1.60066574597082
