15
Coordinates from ORCA-job run
  C   0.39185827966099      0.34385838201255     -0.32257534440227
  C   -1.00745243583061     -0.32478130388895     -0.35637327581070
  H   0.46077998109191      0.92897570123404     -1.25380125393366
  H   -1.10330806507643     -0.90530691389184     -1.28264805262901
  C   1.48290671842788     -0.71402724684486     -0.31296965600792
  H   1.45152483240763     -1.27883164114355      0.62117434303876
  H   2.46393611909757     -0.23937400936948     -0.39693796145412
  H   1.37470845093119     -1.40629437972650     -1.15120395333126
  N   0.46906013967686      1.15041096520297      0.88256796163011
  H   1.43120662484633      1.38390443903934      1.09232084883259
  H   -0.04846860373292      2.01552943873233      0.77968211820134
  C   -2.05045027857042      0.70672255193309     -0.35713430507301
  N   -2.83691446781711      1.57812726109775     -0.38052838183599
  C   -1.18366967931578     -1.23622413306846      0.77897819774850
  N   -1.29571761579710     -2.00268911131843      1.66044871502663
