12
Coordinates from ORCA-job run
  C   -0.10509646152752      0.05958779032999     -0.17897485253061
  C   1.18566026293966     -0.29670030495315      0.52172801625900
  F   0.26671247221418      0.35067709559575     -1.54284404691153
  H   1.64839883537530     -1.15747169135630      0.03607367822707
  H   0.97835036741228     -0.53004240104040      1.56455982564008
  H   1.88505649988300      0.53892658813247      0.46270391839108
  N   -0.70842088999732      1.21206767456135      0.39647989644389
  H   -1.56535815052802      1.44256521739527     -0.09295654904838
  H   -0.07832426808300      1.99842508130947      0.30438698170932
  N   -1.02105386467015     -1.02863153996639     -0.16697109210804
  H   -0.61019876385416     -1.81459533080819     -0.65412339112120
  H   -1.87472603916425     -0.77580817919987     -0.65106238495068
