12
Coordinates from ORCA-job run
  C   -0.01249163116937      0.01577852214311     -0.27513633704167
  C   1.18812348144497     -0.27370121930702      0.59633659389145
  F   0.46744506454120      0.28227465559270     -1.57293857097160
  H   1.74710160376878     -1.09669571864187      0.15452912511148
  H   0.86341891970353     -0.55240962961284      1.59936177138416
  H   1.83352753738783      0.60479893666787      0.66324225814420
  N   -0.74117039109218      1.14194140085241      0.22291868670748
  H   -0.13897430744766      1.95327121415276      0.29587775404253
  H   -1.50225192624951      1.36373138513355     -0.40849395867150
  N   -0.84127701495310     -1.15428691321675     -0.42896522432404
  H   -1.42468134417886     -1.25207816461452      0.39237797457920
  H   -1.43876999175564     -1.03162446914941     -1.23811007285167
