12
Coordinates from ORCA-job run
  C   0.00185733624376      0.11779827601637     -0.24961358673725
  C   1.17732700063723     -0.35153552261313      0.57665823000894
  F   0.48002035217628      0.37124828713915     -1.55068934422160
  H   1.95708211660787      0.40676528841410      0.53269312859279
  H   1.56862111498716     -1.29324934924470      0.18569995979656
  H   0.87107806381622     -0.49775493179777      1.61300087975702
  N   -0.48534547852118      1.39421024979134      0.21192010287064
  H   -1.04040544816858      1.82035798583622     -0.52092897017160
  H   -1.07587493834627      1.24588757129104      1.02050193842393
  N   -1.02334396829519     -0.87966270824599     -0.28577417797953
  H   -1.77321250624814     -0.57789237469447     -0.89712656986856
  H   -0.65680364488918     -1.75617277189215     -0.63734159047133
