12
Coordinates from ORCA-job run
  C   -0.09440012711020      0.11614967804255     -0.30183020103765
  C   1.10768236413933     -0.31620706152548      0.51992186636705
  F   0.41658063330516      0.40345425564719     -1.58805602578356
  H   0.79115228772770     -0.59506177291287      1.52555168127216
  H   1.58921095249517     -1.16972496323983      0.04027122840971
  H   1.83994472046274      0.49192232214909      0.58820765182651
  N   -0.73199117122695      1.24156700240929      0.27952965089553
  H   -1.49356974627138      1.53186719390565     -0.32112415841652
  H   -0.08081798659086      2.00594496558967      0.39800011378829
  N   -1.11137422411273     -0.87615110235075     -0.52747130330240
  H   -0.70805667844594     -1.69179074636685     -0.96972021673744
  H   -1.52336102437204     -1.14296977134767      0.35671971271833
