12
Coordinates from ORCA-job run
  C   -0.07119918594408      0.12219266028081     -0.44557998204470
  C   1.06501020038589     -0.27285724496052      0.49438004660089
  F   0.54681093397977      0.34281335596478     -1.67268180900311
  H   0.67364032642462     -0.46887861738915      1.49508202700824
  H   1.80557751209357      0.52848880976671      0.55315311105214
  H   1.56721804775534     -1.17108057123734      0.12696781010139
  N   -0.74654332636637      1.34229385912372     -0.09464394171176
  H   -0.07269222566755      2.04086348588520      0.19070809122206
  H   -1.39956564502338      1.19819587044923      0.66343181045839
  N   -1.06109634503240     -0.89940918422754     -0.65712480572990
  H   -1.69583359761264     -0.96607180750121      0.12688986968005
  H   -0.61032669499277     -1.79655061615471     -0.78158222763366
