15

C	-0.668904	-0.068561	-1.33917
C	0.0	0.0	0.0
F	-2.011941	-0.03524	-1.225213
H	1.087443	0.0	0.0
H	-0.341368	-0.84836	0.591063
N	-0.259036	1.005977	-2.337525
O	0.90637	0.94218	-2.692914
O	-1.123332	1.785483	-2.702461
N	-0.347996	-1.377843	-2.051474
O	-0.82094	-1.469616	-3.178539
O	0.286183	-2.223844	-1.439389
N	-0.450355	1.221154	0.714002
O	-0.474384	2.270382	0.075539
O	-0.72663	1.103852	1.903637
Cl	3.209502	0.0	0.0
