15

C	-0.67236	0.051765	-1.338327
C	0.0	0.0	0.0
F	-2.013962	0.008056	-1.221371
H	1.087464	0.0	0.0
H	-0.339211	0.854647	0.583193
N	-0.364062	1.357154	-2.062436
O	-0.864207	1.443981	-3.177381
O	0.292004	2.205561	-1.47401
N	-0.254643	-1.025327	-2.328996
O	-1.109234	-1.818631	-2.686754
O	0.910504	-0.948863	-2.684848
N	-0.446548	-1.21282	0.730506
O	-0.711239	-1.082483	1.921652
O	-0.476031	-2.268367	0.102565
Cl	3.212308	0.0	0.0
