15

C	-0.46641	0.019661	-1.421277
C	0.0	0.0	0.0
F	0.057839	0.972512	-2.167362
H	1.089049	0.0	0.0
H	-0.361915	-0.884568	0.514481
N	-0.141202	-1.331555	-2.084883
O	0.350478	-1.282699	-3.20038
O	-0.447114	-2.32875	-1.442632
N	-1.992587	0.094349	-1.554913
O	-2.425398	0.637401	-2.562101
O	-2.638307	-0.442261	-0.663289
N	-0.500606	1.17961	0.743465
O	-0.311336	1.17555	1.952493
O	-1.058682	2.076364	0.10979
Cl	3.195442	0.0	0.0
