15

C	-0.471004	-0.009313	-1.429256
C	0.0	0.0	0.0
F	0.057306	1.044382	-2.061839
H	1.091523	0.0	0.0
H	-0.371332	0.897663	0.491651
N	-0.073409	-1.249452	-2.236025
O	-0.976463	-1.970505	-2.640952
O	1.123264	-1.349019	-2.442867
N	-1.985267	0.095221	-1.579751
O	-2.394519	0.6286	-2.601876
O	-2.655979	-0.374287	-0.668311
N	-0.449836	-1.169376	0.780179
O	-0.785269	-0.969289	1.943095
O	-0.398179	-2.264928	0.226499
Cl	3.181995	0.0	0.0
