15

C	-0.539074	-0.017118	-1.401349
C	0.0	0.0	0.0
F	0.04625	-1.004313	-2.086406
H	1.091353	0.0	0.0
H	-0.344168	-0.900951	0.507125
N	-2.044081	-0.274038	-1.446768
O	-2.689359	0.112137	-0.480012
O	-2.47216	-0.832028	-2.447983
N	-0.33802	1.267649	-2.209266
O	0.81048	1.469746	-2.560413
O	-1.333296	1.937761	-2.452159
N	-0.453696	1.151951	0.807841
O	-0.451341	2.254556	0.265606
O	-0.73985	0.930492	1.979708
Cl	3.202569	0.0	0.0
