15

C	-0.469728	0.031546	-1.420161
C	0.0	0.0	0.0
F	0.060141	0.984538	-2.162304
H	1.089072	0.0	0.0
H	-0.36317	-0.885804	0.511091
N	-0.155397	-1.315971	-2.092002
O	-0.469516	-2.314172	-1.454058
O	0.33131	-1.26495	-3.209959
N	-1.995126	0.120509	-1.55094
O	-2.644785	-0.401333	-0.654022
O	-2.423951	0.662048	-2.561035
N	-0.494751	1.17857	0.748496
O	-1.032953	2.09048	0.117674
O	-0.320578	1.156503	1.960495
Cl	3.193911	0.0	0.0
