14
Coordinates from ORCA-job run
  C   -0.36070312787571     -0.34381979861874     -0.09190181551953
  C   0.86355552355411      0.19453087529043      0.23326302686731
  N   -0.50359503396871     -1.68762457024080     -0.12695638732516
  H   -1.32484096383198     -2.07793457525349     -0.55453562281831
  H   0.31015091078647     -2.28312602571656     -0.07579835178298
  C   -1.60556077323133      0.44834078258209     -0.36006364115657
  H   -1.86503065825528      1.05902720828678      0.50374587677838
  H   -1.45500041432611      1.13611125990882     -1.19110970228717
  H   -2.43676040154706     -0.22230220786195     -0.58547334045140
  C   1.97353151884178     -0.66472093983840      0.44852177214242
  N   2.79331791839437     -1.49756726512725      0.59418257639093
  N   1.12732847521669      1.61003373113314      0.36571374180895
  O   2.27479944513341      1.92244068998859      0.67981718864420
  O   0.20980758110934      2.40561083546733      0.16059467870893
