14
Coordinates from ORCA-job run
  C   -0.46041287826472     -0.18874038387494      0.07561552508506
  C   0.85454036991379      0.22891947451430      0.04707254252172
  N   -1.11082906734641     -0.58325846957664      1.17852414396441
  H   -0.65973817906836     -0.47815351175335      2.07499767747487
  H   -2.09935577694273     -0.75760888399153      1.13084090054693
  C   -1.25576137478166     -0.21834834912155     -1.19883972976638
  H   -0.61680246205806     -0.29870059688728     -2.07569719670587
  H   -1.83723191870907      0.70403838397752     -1.28778934428644
  H   -1.94707289213454     -1.06377603259486     -1.19089034990889
  C   1.48303019933686      0.61073284219389     -1.16898222136343
  N   1.95139733338925      0.91171456156508     -2.20559434741452
  N   1.68001790590305      0.34692009899955      1.22586037766104
  O   2.83292090424561      0.74111591734009      1.07444110739966
  O   1.18429783651699      0.04514494920971      2.32144091479184
