14
Coordinates from ORCA-job run
  C   -0.35841033727915     -0.35727018602477     -0.03050718791055
  C   0.88575361945297      0.22886555858068      0.02119536636824
  N   -0.45237266862365     -1.69813244918181     -0.17340364679075
  H   -1.34012328175585     -2.10028686532933     -0.41797904378640
  H   0.36979696569679     -2.24215201277223     -0.39019427630158
  C   -1.66009316294498      0.37156947797842      0.12233334456008
  H   -1.73257211787721      0.81353240231819      1.11575213574181
  H   -2.49550360016198     -0.31556074371993     -0.02449464740863
  H   -1.73400111763289      1.19290785194403     -0.58851455622285
  C   2.04623875054729     -0.56746327839284     -0.16887726897630
  N   2.90784132916316     -1.35120668456791     -0.34264826329865
  N   1.11834021177766      1.63975502185432      0.23589611426862
  O   0.15524640794895      2.36964551564010      0.47340954677691
  O   2.28785900168891      2.01479639167310      0.16803238298005
