14
Coordinates from ORCA-job run
  C   -0.37037966412634     -0.33519243384764     -0.07859007051056
  C   0.88655322283869      0.17779886165661      0.14934307394533
  N   -0.53599120463873     -1.67499709887177     -0.14319494775758
  H   -1.46604557967217     -2.05289673628243     -0.10153679248978
  H   0.21935314486152     -2.29093309873791      0.11910100729808
  C   -1.60240026218841      0.48290398746822     -0.32890923797844
  H   -1.49663360573235      1.05752653111993     -1.24863176442110
  H   -1.75937154464358      1.20294716634514      0.47311173014836
  H   -2.47536480422526     -0.16704013350728     -0.41121111312916
  C   1.96724338154833     -0.70624313705704      0.40951915425959
  N   2.75141165080019     -1.56212455691594      0.60774860625613
  N   1.20363302963978      1.58794783304079      0.17702534190019
  O   0.31849343275596      2.39992606149308     -0.09475767810597
  O   2.36149880278235      1.87937675409625      0.47298269058493
