14
Coordinates from ORCA-job run
  C   -0.35872152082552     -0.34846323475637     -0.04395501308984
  C   0.89038469444299      0.22848138253080      0.01005679769175
  N   -0.46286977237721     -1.68578630880490     -0.19039036033074
  H   -1.35455817713858     -2.09961695144981     -0.39448512282167
  H   0.35281182052067     -2.26868863080445     -0.30767633659256
  C   -1.65788051466293      0.38765843744845      0.09854742898393
  H   -1.66385403561232      1.30798514236552     -0.47825905204216
  H   -1.80308269193137      0.66936791639016      1.14242760802475
  H   -2.48753293886553     -0.25237737854355     -0.20868065817133
  C   2.04481249959579     -0.57173019285415     -0.19869866681428
  N   2.89856640775681     -1.36212458635194     -0.38149324308718
  N   1.13037526450167      1.63249343861315      0.25032174232804
  O   0.18772225370373      2.33921949741007      0.61260796500411
  O   2.28582671089179      2.02458146880701      0.08967691091718
