14
Coordinates from ORCA-job run
  C   -0.47315321424604     -0.12240130390971      0.12442317219331
  C   0.86688713236970      0.17123850157143     -0.02652122305393
  N   -1.01424235049691     -0.66423809257798      1.22320279242618
  H   -2.01345076784836     -0.74621195683867      1.29198405920540
  H   -0.44003126873107     -0.78025217616158      2.04480460186027
  C   -1.40200234597227      0.06982223618385     -1.04104387798304
  H   -1.06523382065645      0.86750743332510     -1.70034306363262
  H   -1.45069033659833     -0.85358130668812     -1.62471393457643
  H   -2.40858090816187      0.30720745433294     -0.68937029490554
  C   1.37073346353201      0.70334212522864     -1.24389143731300
  N   1.72623118552564      1.13862529950286     -2.27767450838959
  N   1.84205206300316      0.01304514653872      1.02509636960358
  O   2.99847953747159      0.34633049543276      0.78253003896655
  O   1.46300163080921     -0.44943385594026      2.11151730559886
