14
Coordinates from ORCA-job run
  C   -0.43587546675762     -0.24274100434345      0.06100133502565
  C   0.81237733776491      0.34542270515462      0.06255647779513
  N   -0.93841756469296     -0.96492986573987      1.07181795889150
  H   -0.33864687766802     -1.19923803884006      1.84878237630887
  H   -1.80467145001915     -1.45720483043177      0.94028253903874
  C   -1.36843978300670      0.00712455097976     -1.09025704152653
  H   -1.97544226488096     -0.88044833520689     -1.28338298653526
  H   -0.83289669956601      0.26774655885442     -2.00052440538626
  H   -2.04006831722388      0.83313561269801     -0.84103337412088
  C   1.26026678298394      1.13345859059504     -1.03215199338938
  N   1.57423757764851      1.77839973813962     -1.96488059370803
  N   1.77433622050791      0.17241598539781      1.12529894461166
  O   2.86914376554415      0.71216819216949      0.99369623188276
  O   1.44509673936586     -0.50530985942672      2.10979453111204
