14
Coordinates from ORCA-job run
  C   -0.36192908930268     -0.33561417381138     -0.02789825650741
  C   0.89908886468124      0.21247437992933     -0.02632438922389
  N   -0.50658282782998     -1.66779486940794     -0.22498629504858
  H   0.29734151597298     -2.27777985707610     -0.21398244909826
  H   -1.40340164796182     -2.08293571982358     -0.04614257081320
  C   -1.64371484381024      0.41281876624475      0.17568663218414
  H   -1.60803720102390      1.41214716954478     -0.24374641443109
  H   -2.47093170081659     -0.14167450842741     -0.27285748447346
  H   -1.83121784399578      0.52464941136330      1.24562859007552
  C   2.02473458602048     -0.61688712947601     -0.27491092149781
  N   2.85235527155040     -1.42971900638446     -0.47670957065297
  N   1.17123619383149      1.62917916525026      0.09828116320523
  O   2.28416293767489      1.99819153017766     -0.27210517940977
  O   0.29689578500950      2.36294484189679      0.56006714569155
