14
Coordinates from ORCA-job run
  C   -0.46560696309843     -0.17341471115326      0.04733072661424
  C   0.85370798118914      0.22911743324242      0.08847247310467
  N   -1.17031196103031     -0.58225138754112      1.11068200811483
  H   -0.75644451301114     -0.52609723046644      2.02876767815233
  H   -2.15103843977929     -0.77748414670557      1.01074735633774
  C   -1.20863171288859     -0.17315153594631     -1.25837151811641
  H   -1.76907023413679     -1.10500807298941     -1.36535454236489
  H   -1.91891150733336      0.65872643558241     -1.27144235491731
  H   -0.54302164833205     -0.06578486537607     -2.11164813656145
  C   1.54740887004169      0.63297243985118     -1.08473924738544
  N   2.07443983186426      0.95968245201087     -2.08485532504141
  N   1.62986071016349      0.29208986660135      1.30525710383658
  O   1.08082560912866     -0.03102086440625      2.36875825432644
  O   2.79679397722273      0.66262418729620      1.21539552390006
