14
Coordinates from ORCA-job run
  C   -0.45927671282945     -0.18203128374369      0.10055380650853
  C   0.83852627415649      0.27830930764298      0.01260564972892
  N   -1.04281367946466     -0.60304053842357      1.23099436162907
  H   -0.47686614291950     -0.70817302840692      2.05999404388690
  H   -1.94588803861965     -1.04109093416194      1.18268665318959
  C   -1.34557790163836     -0.11831165034689     -1.11098565887666
  H   -0.77505428488001     -0.17359731563854     -2.03595866719458
  H   -2.06802388973428     -0.93759124214485     -1.09530418230187
  H   -1.89769042791681      0.82548305728362     -1.10853466218535
  C   1.37334132073943      0.74900428043985     -1.21694378502686
  N   1.76133846784998      1.12645886444494     -2.26180565624654
  N   1.76645862438634      0.26552690868624      1.11836580795409
  O   2.91087113799713      0.65461065891846      0.90390780388804
  O   1.36065525287332     -0.13455708454968      2.21942448504673
