14
Coordinates from ORCA-job run
  C   -0.36795132850561     -0.33867544136052     -0.08495171919353
  C   0.87612034696125      0.17919828707924      0.19464357361726
  N   -0.53929107532197     -1.67886984485891     -0.10004300021851
  H   0.19001598250479     -2.28658799046489      0.24250186774337
  H   -1.47192563014801     -2.05145651913781     -0.11908047481630
  C   -1.57557148787535      0.47316009855247     -0.44561345855894
  H   -1.88398321518905      1.09422081755560      0.39509823623826
  H   -1.35532710092325      1.15305000593127     -1.26721764997075
  H   -2.39671160742433     -0.18413528807669     -0.73611135022943
  C   1.94413782774129     -0.69555521137036      0.52722663669195
  N   2.72442567027885     -1.53612317023699      0.79260299068118
  N   1.19442720642819      1.58983891002942      0.19701569878168
  O   2.38286112876511      1.87900057074352      0.33187440073157
  O   0.27877328270809      2.40393477561463      0.07305424850218
