14
Coordinates from ORCA-job run
  C   -0.46637148840438     -0.16550174693263      0.08336863021057
  C   0.84570637603483      0.25955622535748      0.04132819329183
  N   -1.13252993991847     -0.47127679738953      1.20503679170860
  H   -0.63126824556852     -0.49955365153576      2.08015405575253
  H   -2.04592254437086     -0.88520918648374      1.13734140255616
  C   -1.27278165578069     -0.20387722299901     -1.18416283388863
  H   -1.96093392776741     -1.05234651879576     -1.16779631009041
  H   -0.64326626472218     -0.28238776006460     -2.06754264862737
  H   -1.86279664621188      0.71335046733563     -1.26455905035330
  C   1.47206328622920      0.60843285410440     -1.18578990851245
  N   1.93773938917973      0.88387113581348     -2.23064827741708
  N   1.69494056651182      0.34251665927286      1.20641868607056
  O   2.85924066695870      0.69260998947134      1.03624722640643
  O   1.20618042783010      0.05781555284584      2.30960404289257
