14
Coordinates from ORCA-job run
  C   -0.38979893032802     -0.32340772898132      0.00898593736945
  C   0.90217490367689      0.14984284395301      0.04006763737844
  N   -0.61221060776036     -1.64874518642309      0.15310821180215
  H   -1.54699499758658     -1.96919234652575      0.33489428128670
  H   0.14171775196116     -2.26203086859896      0.42566499521038
  C   -1.60806496351471      0.51574345114491     -0.23737660736324
  H   -2.50946777987995     -0.09212846745034     -0.13928089147840
  H   -1.57582821401068      0.94560843004976     -1.23825208469722
  H   -1.65421508918301      1.35177841638581      0.45838289327385
  C   1.97195085452898     -0.74371061440069      0.31225832162564
  N   2.74629205862090     -1.59911473266176      0.54776362561307
  N   1.27342813399921      1.53169667115059     -0.16826695350406
  O   0.39783646951617      2.34055139869374     -0.47768803128364
  O   2.46418040996002      1.80310873366408     -0.02126133523312
