14
Coordinates from ORCA-job run
  C   -0.41847797108186     -0.25689563340494      0.08438142437551
  C   0.81001288061594      0.36644105099581      0.00761347523840
  N   -0.89163540444265     -0.87701732771944      1.17442158730641
  H   -0.37835823314851     -0.80670472335190      2.04002754528450
  H   -1.84158002644186     -1.20573446141527      1.17896445423731
  C   -1.31909359471636     -0.29197659774556     -1.11770988812843
  H   -2.18223864092408      0.35761383481542     -0.94488005790119
  H   -0.81496361241338      0.04205806949806     -2.02125409861488
  H   -1.68312761010177     -1.31023137878150     -1.27484364951751
  C   1.26133617932411      0.98134466562420     -1.19200520776695
  N   1.58691204389144      1.47296522305256     -2.21023650705913
  N   1.71674991540478      0.48038647643624      1.12713947598588
  O   2.77653598891317      1.07145574495980      0.94063772857049
  O   1.37992808512102     -0.02270494296346      2.20874371798959
