14
Coordinates from ORCA-job run
  C   -0.43629437433325     -0.21653090000524      0.09694973920758
  C   0.82070683471020      0.34489880564929     -0.00332476362805
  N   -0.94211205592263     -0.75404632345299      1.21377714132490
  H   -0.39479227094058     -0.75393049648114      2.06068078410781
  H   -1.87283063489710     -1.13290115865742      1.20908251084588
  C   -1.34575581360888     -0.24521812216072     -1.09885226996800
  H   -0.86628771395611      0.14338166085711     -1.99387686529560
  H   -1.66526867294151     -1.27283630948683     -1.29141390622938
  H   -2.23591101253165      0.35589903666281     -0.89257802691045
  C   1.29965156977941      0.89097101197902     -1.22520856830804
  N   1.64817925610597      1.32810466674941     -2.26056494650549
  N   1.74987266029560      0.41848829733758      1.10038335584548
  O   2.84553542613878      0.92954249713521      0.88677574575203
  O   1.39430680210174     -0.03482266612610      2.19817006976133
