14
Coordinates from ORCA-job run
  C   -0.37731503332901     -0.33481832024146      0.04603819341809
  C   0.88947086573840      0.20323091166546      0.08070707191257
  N   -0.56328634999046     -1.61259092837262      0.44397552846612
  H   -1.49863077294768     -1.94545197497779      0.59870102296947
  H   0.18577351848749     -2.12011954941391      0.89108743785335
  C   -1.59975092146895      0.37275081361042     -0.45649225653558
  H   -1.48710690737022      0.63082716495535     -1.50931240550491
  H   -2.48059049610499     -0.26045351700740     -0.33602716259870
  H   -1.75035110240338      1.31162876238974      0.07435613902759
  C   1.96563443987675     -0.56580551994419      0.59702906665987
  N   2.74825136216882     -1.31953805508626      1.05120844342650
  N   1.22710389960381      1.53248378707452     -0.37664887508691
  O   2.39986197438263      1.87553564824001     -0.23441008230495
  O   0.34193552335680      2.23232077710814     -0.87021212170252
