14
Coordinates from ORCA-job run
  C   -0.47901291938126     -0.09597183424189      0.09488578338376
  C   0.87605813032921      0.15035730151733      0.00976111663330
  N   -1.14906626015349     -0.27769591741930      1.24167110690496
  H   -0.67234166933653     -0.12399470310083      2.11738821662735
  H   -2.15231218762528     -0.33654284708549      1.21927275050781
  C   -1.29485522439959     -0.25156145614883     -1.15671991696242
  H   -0.72175658706770     -0.03291728977002     -2.05391310640252
  H   -2.15580269725248      0.42143085386220     -1.12090278676420
  H   -1.66743216336048     -1.27720607071784     -1.22217499332365
  C   1.53035093330541      0.30565659617651     -1.24284886386828
  N   2.02151733272131      0.42794084136596     -2.30501150877678
  N   1.72824339903387      0.32044422515465      1.16463458840809
  O   1.22255474063947      0.20399642063366      2.29037832775500
  O   2.91385517254754      0.56706387977388      0.96257928587755
