14
Coordinates from ORCA-job run
  C   -0.44629514240215     -0.21482553443678      0.10637626062456
  C   0.83019081258426      0.29826314786117     -0.00284332311606
  N   -0.93376244650967     -0.81645545942283      1.19908880223769
  H   -1.83227787440761     -1.26409209850942      1.15633382139072
  H   -0.30769130357431     -1.01476474060023      1.96550726520919
  C   -1.41375819357968     -0.00794926546494     -1.02468144181381
  H   -2.18040331668292     -0.78535189279198     -1.02067032156855
  H   -1.90588759338562      0.96164004270065     -0.91101080063219
  H   -0.91196449017036     -0.01654076600241     -1.99071335919139
  C   1.25602070368610      0.95800348805238     -1.18682464074965
  N   1.54642488175061      1.49196897591148     -2.19446526100065
  N   1.83397549404182      0.16968586654808      1.02560127526679
  O   1.52177949820936     -0.40220433913963      2.08057319281980
  O   2.94464897044017      0.64062257529447      0.79772853052355
