14
Coordinates from ORCA-job run
  C   -0.43464284402237     -0.23041406043356      0.07182702984201
  C   0.83778889558234      0.29940446319858      0.00585007638083
  N   -0.86890158621297     -1.05038079142710      1.03881123480233
  H   -0.27497943058091     -1.23221634931105      1.83350066561947
  H   -1.83964490439020     -1.31018378160625      1.06523056050522
  C   -1.43402493822623      0.07496358604143     -1.00762048891296
  H   -1.82919470790380     -0.85879310454096     -1.41556080385684
  H   -1.00273865092668      0.65507249098499     -1.81941068419354
  H   -2.26775791768994      0.64128505651277     -0.58265021438450
  C   1.24297550265651      1.13915504230582     -1.06751516598555
  N   1.52768982726446      1.82656256281439     -1.97899716366674
  N   1.84679052638487      0.07576832930562      1.01582872762514
  O   1.55714197133046     -0.63837083216841      1.98673172805890
  O   2.94049825673444      0.60914738832373      0.85297449816622
