14
Coordinates from ORCA-job run
  C   -0.48427652210697     -0.06833741871484      0.08589672801214
  C   0.88402084690307      0.10339284440896      0.02383114726581
  N   -1.16917574341294     -0.31587828139278      1.20919983994135
  H   -0.67945930242089     -0.38354081861299      2.08818180458910
  H   -2.16731834037451     -0.42481924091938      1.17241440878583
  C   -1.31005594877961      0.00413566740238     -1.16728804155579
  H   -1.79155416010176     -0.96184942058903     -1.34293663098771
  H   -0.71510959135715      0.25807894133932     -2.04098265348519
  H   -2.09233860705073      0.75844376024920     -1.04688684954615
  C   1.54972868967079      0.36416448168957     -1.20474802039306
  N   2.05105571696645      0.57674139031364     -2.24781723808572
  N   1.74650806891766      0.04551110170521      1.18142564783404
  O   2.94788732284162      0.22562377887018      1.00360459366075
  O   1.23208757030497     -0.18266678574945      2.28610526396460
