14
Coordinates from ORCA-job run
  C   -0.39861492363052     -0.29437656815370     -0.04821152222893
  C   0.75678162893565      0.45972085913434     -0.08014124887619
  N   -0.70363473514735     -1.25688282734117     -0.92836833428536
  H   -1.52987695702537     -1.81228223763197     -0.79106906400829
  H   -0.02885885769105     -1.51628231730261     -1.63159191360020
  C   -1.42657019166971     -0.04981102839659      1.02018299655154
  H   -1.19589473259119      0.82460485984067      1.62347556920604
  H   -1.48108466999304     -0.92054840097851      1.67994406450635
  H   -2.40764745881389      0.09162722255726      0.56007989552387
  C   1.00718983928168      1.48438262416627      0.87276437741043
  N   1.16604822062990      2.32102164198533      1.68478598736683
  N   1.80292934734829      0.27323291162712     -1.05974681387337
  O   1.65688178949720     -0.61425363586507     -1.91283350041777
  O   2.78335170086942      1.00884689635862     -0.98927049327496
