14
Coordinates from ORCA-job run
  C   -0.41571734098807     -0.26206218298868      0.07984723225785
  C   0.81635640124446      0.35195141116679     -0.01156388799942
  N   -0.78862006923603     -1.07853791011370      1.07568132547787
  H   -0.18580226582246     -1.17895776858724      1.87821063106553
  H   -1.74364287535866     -1.38864930617856      1.12350034582265
  C   -1.43786945580680     -0.06168082951706     -1.00284997218228
  H   -1.81090830737741     -1.03201047658106     -1.33942489755929
  H   -2.28177761599661      0.50973037904851     -0.60559795225361
  H   -1.03428643776808      0.47301443489046     -1.85901266865912
  C   1.15748217940511      1.18288335583438     -1.11351289780313
  N   1.38999565511853      1.85893399387306     -2.04797944017689
  N   1.83938202890745      0.23945684313189      1.00330801770414
  O   1.60313962404941     -0.45867758965535      1.99990553346061
  O   2.89126847962917      0.84460564567657      0.81748863084510
