14
Coordinates from ORCA-job run
  C   -0.39842301010992     -0.28875306787588     -0.06698799980024
  C   0.77134946772405      0.44242769392289     -0.03756954050175
  N   -0.71981391099729     -1.17464286535225     -1.01987021237864
  H   -1.54771560168601     -1.73452992557492     -0.91238617420619
  H   -0.03760042636211     -1.41165604256847     -1.72370560661165
  C   -1.44546382805944     -0.07686868500268      0.98989088748764
  H   -1.65439003215060     -1.02467240402529      1.49404421377097
  H   -1.13904754560941      0.65104749076468      1.73708679760241
  H   -2.36871287651746      0.27340132756060      0.52135989960090
  C   1.03074606697801      1.39404692398471      0.98644430892415
  N   1.18480654338902      2.17591525130460      1.85200978572110
  N   1.82760429848106      0.29676278597938     -1.01296834874764
  O   2.82470934697671      1.00009652398182     -0.87758241222971
  O   1.67095150794339     -0.52357500709920     -1.92876559863136
