14
Coordinates from ORCA-job run
  C   -0.48525045620542     -0.08530943476561      0.11233510747669
  C   0.87059462644389      0.14810359979646      0.00314683345668
  N   -1.12360697744242     -0.33942287100339      1.26227361759802
  H   -2.12767225969797     -0.37905665046026      1.26981069531556
  H   -0.61656987734970     -0.25000239207009      2.13033525950036
  C   -1.31571021535062     -0.17388238996826     -1.13685889684234
  H   -0.91688145743359      0.45210977423401     -1.93283799976243
  H   -1.32874328011782     -1.20721485645904     -1.49397762657905
  H   -2.34436986545187      0.13126065318050     -0.93264218752671
  C   1.47997667958531      0.36589933272497     -1.26191284565805
  N   1.92460261369137      0.53669351208154     -2.33791943121982
  N   1.75879902813290      0.24202035188822      1.13672020673304
  O   2.93914405985814      0.49608108484386      0.91417613406962
  O   1.28568738133779      0.06072028597709      2.26835113343842
