14
Coordinates from ORCA-job run
  C   -0.45027594629497     -0.18688737794229      0.12166739419106
  C   0.84329115693073      0.26547203903540     -0.03910847618295
  N   -0.93192391538286     -0.73279088934659      1.24683781064945
  H   -0.29391207718010     -0.93660482531210      2.00163812181255
  H   -1.84749533339144     -1.14709898658608      1.23838875557533
  C   -1.44894508356851      0.02433260972816     -0.98067109519692
  H   -2.14780384702425     -0.81451992205018     -1.02194962326536
  H   -2.01982945350495      0.93586570793149     -0.78318245942459
  H   -0.97006106768509      0.12730976712253     -1.95224981367953
  C   1.26967091445181      0.87402117417124     -1.25053175270873
  N   1.56482291135549      1.37129858459846     -2.27530487911142
  N   1.87124241225834      0.11416477644813      0.96375125838298
  O   3.00044788772070      0.50541270035784      0.68276929393244
  O   1.56077144131509     -0.39897535815600      2.04894546502568
