14
Coordinates from ORCA-job run
  C   -0.44809024447848     -0.21165283939987      0.09788610740966
  C   0.82346112719638      0.31898433414943      0.01851004078968
  N   -1.01444071259497     -0.66583003543726      1.22356756653718
  H   -0.45470600129809     -0.72940848905771      2.06075642619806
  H   -1.89879786520495     -1.14042013967981      1.17341025327649
  C   -1.32525040299167     -0.19718389106933     -1.12205144453737
  H   -2.03487769179209     -1.02680287112845     -1.09109311475543
  H   -0.74407087136200     -0.26853777966710     -2.03954134813930
  H   -1.89113032625687      0.73787227366543     -1.15264608337264
  C   1.33547130523055      0.82225948831427     -1.20759950897745
  N   1.70071749765807      1.22451179934947     -2.25134276599764
  N   1.73981601563410      0.36588131955298      1.13242730373520
  O   2.85952822410123      0.82594562366509      0.92790643316527
  O   1.34936994615879     -0.05661879325715      2.23081013466830
