14
Coordinates from ORCA-job run
  C   -0.43258424268510     -0.24155801010230      0.09035253795740
  C   0.80868310648827      0.35768390112261      0.02005792137245
  N   -0.91293621489746     -0.87241408497834      1.16977654482006
  H   -1.78093774690049     -1.37423883789573      1.10287877141010
  H   -0.30657188587312     -1.01532382297288      1.96351346572595
  C   -1.37931137155992     -0.11018835346216     -1.06881342966342
  H   -0.85220008454138      0.01791256498593     -2.01210175995595
  H   -2.01498761561287     -0.99550342706154     -1.14029652479596
  H   -2.02121228446612      0.76184350581825     -0.91772048971625
  C   1.23126931283423      1.04334148167383     -1.15057718492621
  N   1.51932728787268      1.60234353461368     -2.14508563956678
  N   1.78677652404855      0.29332050014672      1.07972697342842
  O   1.47541914183770     -0.28648189243009      2.13044236578722
  O   2.87726607345503      0.82026294054203      0.87884644812299
