14
Coordinates from ORCA-job run
  C   -0.37534865009078     -0.33766500388307     -0.01080781920277
  C   0.88024902350327      0.20926114868359      0.10689608586382
  N   -0.51544561100942     -1.68285974729780     -0.10507175920798
  H   0.27874590079805     -2.27309064016057      0.09515008155135
  H   -1.41027084037715     -2.06790158622714      0.14658474752181
  C   -1.65030376413584      0.44177444159025     -0.13555411683919
  H   -1.87646028238517      0.57703989311060     -1.19692499634426
  H   -2.47499471112226     -0.10544826534822      0.32801890532472
  H   -1.56098800108591      1.42913946353308      0.30674216057259
  C   2.00470866777866     -0.65716874159391      0.21410645357532
  N   2.83644928087034     -1.48757828476595      0.27519640403622
  N   1.19532019121536      1.61662148541719      0.00891898128846
  O   2.34281376308071      1.93208078621757      0.32373842348997
  O   0.32452503296012      2.40679505072440     -0.35699355163005
