19

C	0.0	0.0	0.0
C	-0.292312	0.102609	-1.528247
Br	1.969823	0.0	0.0
H	0.174809	1.033849	-1.847901
N	-0.489567	1.237392	0.567171
H	-1.505361	1.217202	0.453953
H	-0.315981	1.224575	1.567514
C	-0.512313	-1.241111	0.706048
H	-0.142307	-2.160692	0.257998
H	-0.209638	-1.201191	1.756747
H	-1.607281	-1.213886	0.656812
C	-1.733908	0.045978	-1.993698
H	-1.730949	0.100926	-3.086862
H	-2.238265	-0.861584	-1.675524
H	-2.319538	0.875001	-1.605863
N	0.42733	-0.949708	-2.322666
O	1.14369	-0.560553	-3.245085
O	0.203751	-2.130596	-2.063773
Cl	-4.222236	0.0	0.0
