19

C	0.0	0.0	0.0
C	-0.494037	0.049555	-1.472768
Br	1.9782	0.0	0.0
H	-1.554577	0.316761	-1.377183
N	-0.454157	1.085829	0.820497
H	-0.325717	1.959755	0.322342
H	-1.464436	0.947731	0.918811
C	-0.434121	-1.304381	0.654036
H	-1.523711	-1.372336	0.589343
H	-0.137741	-1.26057	1.703075
H	0.032535	-2.171131	0.187246
C	-0.340451	-1.225663	-2.270722
H	-0.623279	-1.050924	-3.309535
H	0.68591	-1.594994	-2.251489
H	-1.017516	-1.973453	-1.858239
N	0.153287	1.194056	-2.193246
O	0.917481	0.951882	-3.127007
O	-0.10651	2.331591	-1.79371
Cl	-3.640342	0.0	0.0
