19

C	0.0	0.0	0.0
C	-0.541783	0.145387	-1.432861
Br	1.976869	0.0	0.0
H	-1.624417	0.272187	-1.301045
N	-0.435631	1.141501	0.760448
H	-1.452686	1.193197	0.657941
H	-0.232276	0.978868	1.741155
C	-0.42637	-1.34318	0.58431
H	-0.098386	-1.393007	1.62589
H	-1.519507	-1.383023	0.549919
H	0.007743	-2.190681	0.051648
C	-0.248199	-1.009595	-2.367308
H	-0.567824	-0.75098	-3.378284
H	-0.81988	-1.882334	-2.048902
H	0.816482	-1.245379	-2.3928
N	-0.065761	1.426245	-2.049407
O	-0.727009	2.439237	-1.834655
O	0.950792	1.385562	-2.747256
Cl	-3.693162	0.0	0.0
