19

C	0.0	0.0	0.0
C	-0.493543	0.002101	-1.459954
Br	2.049948	0.0	0.0
H	-1.554154	0.287287	-1.374393
N	-0.478339	1.109586	0.684948
H	-0.240426	1.138269	1.662708
H	-0.375929	1.990744	0.20813
C	-0.426115	-1.265787	0.720221
H	-1.518916	-1.311543	0.657325
H	-0.131917	-1.193061	1.77026
H	0.038242	-2.155663	0.298277
C	-0.355272	-1.312947	-2.192335
H	0.669048	-1.6885	-2.161846
H	-1.037335	-2.031608	-1.738317
H	-0.647431	-1.186582	-3.234733
N	0.171391	1.106055	-2.236119
O	0.845648	0.816352	-3.221952
O	-0.004942	2.259123	-1.837905
Cl	-3.802681	0.0	0.0
