19

C	0.0	0.0	0.0
C	-0.490646	-0.037914	-1.474939
Br	1.979637	0.0	0.0
H	-1.554423	0.227137	-1.401203
N	-0.459238	1.129389	0.755497
H	-0.338213	1.972771	0.205466
H	-1.468592	0.989658	0.865546
C	-0.430041	-1.26771	0.726562
H	-0.139446	-1.162483	1.773093
H	0.046445	-2.1564	0.311946
H	-1.519321	-1.35086	0.659884
C	-0.324415	-1.356538	-2.197405
H	0.704464	-1.716583	-2.15077
H	-0.998487	-2.084727	-1.746127
H	-0.601721	-1.244646	-3.246295
N	0.153596	1.066168	-2.257834
O	-0.115604	2.223108	-1.926197
O	0.924451	0.776093	-3.173141
Cl	-3.643586	0.0	0.0
