19

C	0.0	0.0	0.0
C	-0.292022	-0.168483	-1.550928
Br	1.975681	0.0	0.0
H	0.567571	-0.677121	-1.988118
N	-0.497986	1.185147	0.619341
H	-0.327371	2.002431	0.04727
H	-1.514008	1.050671	0.691899
C	-0.403805	-1.185063	0.86543
H	-0.059279	-0.976476	1.88032
H	0.031437	-2.114279	0.507652
H	-1.492187	-1.263796	0.854844
C	-0.516485	1.16009	-2.240776
H	-0.552689	1.026929	-3.321304
H	-1.46549	1.586157	-1.914966
H	0.308684	1.837117	-2.005957
N	-1.389157	-1.142414	-1.956921
O	-1.293658	-2.28767	-1.523567
O	-2.181768	-0.785223	-2.81945
Cl	-3.562832	0.0	0.0
