19

C	0.0	0.0	0.0
C	-0.29689	-0.17876	-1.522951
Br	1.979726	0.0	0.0
H	0.122519	0.697755	-2.023266
N	-0.481814	1.263856	0.475702
H	-0.318478	1.998606	-0.203294
H	-1.485849	1.182398	0.637856
C	-0.535015	-1.09375	0.896673
H	-0.237986	-0.879005	1.924747
H	-1.629355	-1.078473	0.831665
H	-0.167147	-2.071705	0.597342
C	-1.748165	-0.37186	-1.906139
H	-2.156164	-1.289861	-1.489911
H	-1.815431	-0.408134	-2.997804
H	-2.381135	0.430019	-1.536396
N	0.45721	-1.315936	-2.154938
O	0.287671	-2.44644	-1.702941
O	1.151531	-1.05155	-3.136911
Cl	-4.318519	0.0	0.0
