19

C	0.0	0.0	0.0
C	-0.288657	0.066896	-1.534488
Br	1.979937	0.0	0.0
H	0.155761	1.001741	-1.886483
N	-0.487161	1.172952	0.66492
H	-1.487713	1.054171	0.825425
H	-0.340485	2.003869	0.102744
C	-0.53649	-1.219604	0.714336
H	-1.628265	-1.215736	0.614483
H	-0.135453	-2.14109	0.299621
H	-0.278964	-1.139765	1.772537
C	-1.738983	-0.019113	-1.960716
H	-2.188598	-0.972728	-1.694781
H	-2.346401	0.744653	-1.482503
H	-1.781068	0.109852	-3.046955
N	0.445517	-0.97292	-2.33042
O	0.269564	-2.155479	-2.044803
O	1.130885	-0.575802	-3.273487
Cl	-4.282808	0.0	0.0
