19

C	0.0	0.0	0.0
C	-0.354736	-0.005399	-1.531668
Cl	1.80251	0.0	0.0
H	0.393532	-0.667817	-1.982857
N	-0.50608	1.184004	0.646733
H	-1.509276	1.213198	0.456391
H	-0.411039	1.07598	1.651693
C	-0.442858	-1.292377	0.669924
H	-0.066345	-1.328559	1.696659
H	-1.535579	-1.307106	0.691157
H	-0.067377	-2.171181	0.137363
C	-0.196044	1.384142	-2.136546
H	0.767393	1.830453	-1.8835
H	-0.29346	1.301022	-3.221583
H	-0.983035	2.049703	-1.773642
N	-1.645951	-0.541665	-1.912723
H	-1.709007	-1.518641	-1.652018
H	-2.423413	-0.091352	-1.430596
Cl	-4.14471	0.0	0.0
