19

C	0.0	0.0	0.0
C	-0.414297	-0.053787	-1.487313
Cl	1.86046	0.0	0.0
H	0.342045	-0.663978	-1.993236
N	-0.517593	1.138997	0.646904
H	-0.181991	2.008954	0.261695
H	-0.37068	1.114838	1.64643
C	-0.401331	-1.248643	0.765715
H	0.037125	-1.218255	1.768366
H	-1.488619	-1.285416	0.840091
H	-0.049197	-2.141889	0.250952
C	-0.406757	1.337966	-2.126554
H	0.544285	1.863239	-1.977511
H	-1.231178	1.930852	-1.724866
H	-0.56551	1.239674	-3.204473
N	-1.679468	-0.761796	-1.604431
H	-2.006667	-0.694425	-2.562322
H	-2.419468	-0.354194	-1.024587
Cl	-4.490932	0.0	0.0
