19

C	0.0	0.0	0.0
C	-0.462967	-0.138115	-1.460295
Cl	1.834908	0.0	0.0
H	-1.553277	-0.077763	-1.365512
N	-0.447816	1.23031	0.590303
H	-0.371715	1.939179	-0.13523
H	-1.446339	1.10263	0.769916
C	-0.446689	-1.161156	0.865921
H	-0.172034	-0.945458	1.899817
H	-1.534805	-1.241875	0.78957
H	0.02442	-2.09649	0.563638
C	-0.096555	-1.454046	-2.138577
H	-0.477303	-1.448524	-3.164616
H	0.989044	-1.589518	-2.174507
H	-0.54224	-2.311029	-1.628577
N	-0.026286	1.046449	-2.207315
H	0.928491	0.911041	-2.524877
H	-0.617309	1.154267	-3.022967
Cl	-3.769946	0.0	0.0
