19

C	0.0	0.0	0.0
C	-0.495928	-0.08143	-1.443641
Cl	1.885203	0.0	0.0
H	-1.585226	-0.008765	-1.316575
N	-0.449219	1.212756	0.540983
H	-0.111588	1.381155	1.4768
H	-0.257759	1.979102	-0.089806
C	-0.445636	-1.163322	0.856426
H	-0.002228	-2.103947	0.529634
H	-0.153161	-0.990916	1.895687
H	-1.538814	-1.196528	0.79461
C	-0.153585	-1.385874	-2.152489
H	0.929173	-1.539963	-2.191993
H	-0.537015	-1.34607	-3.176105
H	-0.61633	-2.244388	-1.662487
N	-0.054037	1.117248	-2.162352
H	0.870003	0.957939	-2.548491
H	-0.69291	1.296013	-2.926915
Cl	-3.995606	0.0	0.0
