19

C	0.0	0.0	0.0
C	-0.454406	-0.216341	-1.466451
Cl	1.808572	0.0	0.0
H	-1.545754	-0.136574	-1.422824
N	-0.463941	1.316504	0.396802
H	-0.225296	1.458148	1.373803
H	-1.486784	1.255962	0.348866
C	-0.457109	-1.106062	0.933629
H	-0.169533	-0.864011	1.961841
H	-0.017573	-2.071019	0.676199
H	-1.547756	-1.156918	0.868764
C	-0.104818	-1.587049	-2.022937
H	0.973142	-1.773109	-1.98717
H	-0.618145	-2.384389	-1.484336
H	-0.423378	-1.618204	-3.06585
N	0.023748	0.813275	-2.384301
H	1.039215	0.799291	-2.371438
H	-0.246739	1.708885	-1.994162
Cl	-3.756493	0.0	0.0
