19

C	0.0	0.0	0.0
C	-0.371452	0.021399	-1.5103
Cl	1.876562	0.0	0.0
H	0.310013	-0.690135	-1.990634
N	-0.51479	1.120905	0.674758
H	-0.448379	1.047906	1.679963
H	-0.129662	1.996119	0.352816
C	-0.450021	-1.269273	0.68763
H	-0.034102	-1.324182	1.697495
H	-0.113402	-2.148061	0.134207
H	-1.541299	-1.254216	0.744334
C	-0.15008	1.399993	-2.124177
H	-0.269975	1.320704	-3.205383
H	-0.918328	2.087482	-1.760842
H	0.841248	1.803699	-1.90346
N	-1.722768	-0.395814	-1.814099
H	-2.429235	0.095763	-1.263287
H	-1.856602	-1.376211	-1.600998
Cl	-4.459202	0.0	0.0
