19

C	0.0	0.0	0.0
C	-0.333445	-0.064444	-1.540746
Cl	1.806492	0.0	0.0
H	0.410999	-0.745332	-1.96917
N	-0.495269	1.139475	0.724707
H	-0.294636	1.992109	0.21555
H	-1.509754	1.043491	0.793077
C	-0.46569	-1.2552	0.712636
H	-0.089381	-2.149423	0.210027
H	-0.102522	-1.240081	1.74119
H	-1.558399	-1.269084	0.71729
C	-0.169967	1.300114	-2.201016
H	-0.223981	1.173446	-3.283546
H	-0.995359	1.955888	-1.909686
H	0.77914	1.778297	-1.945303
N	-1.630919	-0.589685	-1.906429
H	-1.713712	-1.556163	-1.61843
H	-2.401829	-0.10665	-1.445278
Cl	-4.155778	0.0	0.0
