19

C	0.0	0.0	0.0
C	-0.466491	-0.222395	-1.449149
Cl	1.827394	0.0	0.0
H	-1.556268	-0.15089	-1.356389
N	-0.44749	1.265095	0.515905
H	-1.446781	1.150492	0.696651
H	-0.36489	1.927768	-0.25072
C	-0.450405	-1.107092	0.932897
H	-1.538416	-1.189812	0.85989
H	-0.176717	-0.831507	1.952915
H	0.018245	-2.059934	0.686024
C	-0.108077	-1.578664	-2.047872
H	-0.557732	-2.401018	-1.487284
H	0.976841	-1.721848	-2.076589
H	-0.489873	-1.631472	-3.072412
N	-0.02559	0.912655	-2.266486
H	0.924795	0.752086	-2.584122
H	-0.623233	0.981525	-3.080936
Cl	-3.777328	0.0	0.0
