8
Coordinates from ORCA-job run
  C   0.12351957339616      0.47303730916674     -0.17021795781414
  C   1.08455812231460     -0.41272490312037     -0.41486593719615
  H   0.13151639707178      1.52482299660756     -0.42238676598436
  H   0.97311826880719     -1.44767043985624     -0.11751009881444
  H   1.99116007019884     -0.09999135816292     -0.91716942131680
  N   -1.11488074252632      0.07632204735573      0.50846791821699
  O   -1.93379429272122      0.97924816959628      0.68263375663324
  O   -1.25419739654102     -1.09304382158679      0.85004850627566
