8
Coordinates from ORCA-job run
  C   -0.00243421832479      0.21256037853261     -0.47230031572900
  C   1.20266105671929     -0.23350206469863     -0.13037098932959
  H   -0.27626833735579      0.69615710821776     -1.40020184562231
  H   2.03214385717155     -0.12629828956566     -0.81779991401415
  H   1.36733995673773     -0.70533599747017      0.82990291131911
  N   -1.14355995742290      0.07980648299722      0.44018331845361
  O   -2.21044738613392      0.52822791054648      0.01957307439681
  O   -0.97043497139118     -0.45261552855962      1.53101376052553
