8
Coordinates from ORCA-job run
  C   0.00457394514234      0.22380389038726     -0.46751756532106
  C   1.20759593631073     -0.21694040770586     -0.11165680720528
  H   -0.25616748398588      0.72576851445395     -1.38941348644584
  H   1.35793501511758     -0.70898221585926      0.84084121764916
  H   2.05017531944060     -0.08554845655520     -0.77864665612479
  N   -1.15271587074097      0.05701447863929      0.41868015795386
  O   -2.21634038299104      0.50295871303483     -0.01280401858943
  O   -0.99505647829337     -0.49807451639502      1.50051715808337
