8
Coordinates from ORCA-job run
  C   -0.01166229717826      0.19036650626966     -0.48172709043905
  C   1.20674553280534     -0.21018652870802     -0.13113547335806
  H   -0.30522280477097      0.62328032447264     -1.42843510972145
  H   1.39082629539352     -0.63286784553407      0.84834796733908
  H   2.02808067292101     -0.11519501798864     -0.83005056767899
  N   -1.14133812106432      0.07255266206275      0.44699345704868
  O   -0.94601284432126     -0.40416746468563      1.55962207743063
  O   -2.22241643378506      0.47521736411131      0.01638473937915
