14
Coordinates from ORCA-job run
  C   0.79449036468919     -0.38406218203012      0.52792197922595
  C   -0.50946093994636     -0.12091439367503     -0.21386504845746
  F   0.87536294175553      0.37178796410934      1.64511717602391
  H   -0.43533717399685     -0.63924222542176     -1.17742240312526
  H   0.94427278045280     -1.43545427150297      0.78394467366138
  N   1.93519769214507     -0.01970608328159     -0.38852174578055
  O   2.65085381253273      0.92102561921000     -0.08777774592837
  O   2.02720228652158     -0.73509215031711     -1.38212665465094
  N   -0.57110871803308      1.29160124205532     -0.48219736078054
  H   -0.76799850136824      1.79275635398565      0.37539302445435
  H   -1.28201622206685      1.50768190488616     -1.16705362036193
  N   -1.60025988585151     -0.59494090717321      0.63670618584063
  H   -2.48288189967628     -0.34866400859225      0.20477463575275
  H   -1.57731653715773     -1.60577686225243      0.72510690412610
