14
Coordinates from ORCA-job run
  C   0.84446605144269     -0.02276218151131      0.55578629538000
  C   -0.45209813498098      0.30367730439684     -0.15704249069753
  F   1.39934598514781      1.11809968595551      1.06726188653079
  H   -0.19255819467195      0.99491361895142     -0.96972581098880
  H   0.72060517868258     -0.75759324874426      1.35071773290603
  N   1.81344437566383     -0.60114987260500     -0.43040436346805
  O   2.17157362055627      0.14168440248538     -1.33866085781114
  O   2.15920601945726     -1.76441580985654     -0.25264002229141
  N   -1.35619706687040      0.85950113271761      0.84421070052404
  H   -2.22015052576100      1.13908736770991      0.39441157129383
  H   -0.94698107247516      1.68775066221127      1.26278019539579
  N   -0.94045671993269     -0.91721698078952     -0.74764340964888
  H   -1.55392481808043     -0.73258774144255     -1.52857449980870
  H   -1.44727469817783     -1.44998833947876     -0.05047692731600
