14
Coordinates from ORCA-job run
  C   0.80057043508924     -0.57371176592384      0.40583773799597
  C   -0.51907293489090     -0.21872006738425     -0.26569657480391
  F   0.75174058808222     -0.33920569783301      1.73568297668023
  H   -0.46929687974760     -0.61374861510786     -1.28752282305107
  H   1.07745950590408     -1.61361972676533      0.22471125960085
  N   1.90073842003772      0.27113233533559     -0.18922798970351
  O   2.59381846953464      0.94999212847390      0.55149288454257
  O   1.99160930115174      0.18877120148350     -1.41322354670047
  N   -0.69837104024997      1.23072540857268     -0.20647908270723
  H   -0.14307249472943      1.69216487325140     -0.91893265751792
  H   -1.66926442251299      1.45008604545012     -0.38997894059873
  N   -1.53524796858794     -0.95210675974602      0.44714383207844
  H   -2.41220747072091     -0.93609962951420     -0.05605272676176
  H   -1.67040350835989     -0.53465973029269      1.36024565094655
