14
Coordinates from ORCA-job run
  C   0.80937425143735     -0.64217383851684      0.22751990850088
  C   -0.54166197686863      0.04650865748647      0.29701166884357
  F   1.13856622017904     -1.18388339636755      1.42929006280888
  H   -0.55989537298646      0.60548019451446      1.24068476369919
  H   0.85339166982151     -1.39991448556111     -0.55424201656207
  N   1.88175385570866      0.36131288208378     -0.09804728390154
  O   1.90245698922580      1.37617216672239      0.59763987075661
  O   2.65718127040846      0.09001088291748     -1.00999730501435
  N   -1.53700694202978     -0.99548378364154      0.36897411726151
  H   -1.72489562873911     -1.35231595810771     -0.56101731838771
  H   -2.39875840625017     -0.65283571798903      0.77044450705906
  N   -0.67931191384536      0.87715243816909     -0.89842150210613
  H   -1.65307211253238      1.13274109486152     -1.00614387154055
  H   -0.14912190352895      1.73622886342857     -0.80169560141735
