14
Coordinates from ORCA-job run
  C   0.81057636508649     -0.66001860810861      0.16403055540145
  C   -0.49068772316608      0.10949368765331      0.33145728750192
  F   1.11645166659963     -1.33667548176116      1.29713672297777
  H   -0.37837675932307      0.66777152478800      1.26496358357957
  H   0.80754405294197     -1.34802415946631     -0.68427393370377
  N   1.91708912632706      0.32195542140663     -0.10037861689773
  O   2.37581911959236      0.34166653607747     -1.23797307939576
  O   2.24995156770948      1.03026108169025      0.84161636889451
  N   -1.55114807083130     -0.86505484255063      0.51920955546746
  H   -1.82897734234321     -1.26261081801147     -0.37089520217514
  H   -2.36405001069195     -0.43095513886476      0.93660757971046
  N   -0.58147317058406      1.07477716858123     -0.74848897363857
  H   -1.32638320526297      1.73685034048924     -0.57689858251288
  H   -0.75633561605434      0.61956328807681     -1.63711326520930
