14
Coordinates from ORCA-job run
  C   0.81240100973824     -0.00524474036924      0.60238010280066
  C   -0.42171407935581      0.30919720728366     -0.21822706926357
  F   1.41598928576883      1.15379847189800      1.00587858195785
  H   -0.07659125054014      0.87843893912572     -1.09141011621382
  H   0.59907151499067     -0.62884400977305      1.47005172089404
  N   1.78932004568700     -0.75760085774299     -0.25001444413979
  O   2.24212689993617     -0.15422699317123     -1.21732259282536
  O   2.04701262617486     -1.90889601562089      0.08507809879625
  N   -1.33533145158963      1.03766175453007      0.65574427736282
  H   -2.15854911522131      1.30446688630921      0.12848718604343
  H   -0.89599474369330      1.88857124076366      0.98969926914951
  N   -0.96113378707905     -0.94301941152950     -0.68603343959359
  H   -1.53418726416419     -1.35593476672964      0.04053532190238
  H   -1.52341969065235     -0.81836770497379     -1.51584689687081
