14
Coordinates from ORCA-job run
  C   0.74803173002660     -0.58113668374134      0.28035720332357
  C   -0.59647393797844     -0.08636596480642     -0.26710695308766
  F   0.79903669276384     -0.48273170765644      1.62771029811549
  H   -0.61957149991892     -0.35781919917973     -1.33133650257145
  H   0.95585209488466     -1.61107732775509     -0.01908531274721
  N   1.85371455530914      0.25042525660258     -0.31332395991340
  O   2.52577597076405      0.95900110782862      0.41999268737835
  O   1.94483128282308      0.15368134553233     -1.53635256942586
  N   -0.70478825811772      1.33464940379712     -0.00278483648368
  H   -0.12296004247392      1.87519241697766     -0.63113268709910
  H   -1.66959828663042      1.59977628333880     -0.15570124199399
  N   -1.71741732436260     -0.72373532044190      0.38553964569306
  H   -1.77424982354561     -1.70664570095688      0.15294247581774
  H   -1.62218315354374     -0.62321390953932      1.38928175299412
