14
Coordinates from ORCA-job run
  C   0.76493757214197     -0.36958450631388      0.49619041573633
  C   -0.59278059492791     -0.14902079975280     -0.18738362330603
  F   0.88811213195480      0.41875744207194      1.58717604033708
  H   -0.53696600203442     -0.62501882867543     -1.17649926237177
  H   0.95699520554614     -1.40910538052625      0.76717444551990
  N   1.83664272452517      0.00422915642569     -0.49122774793192
  O   2.03039507421768     -0.82805688971864     -1.37350353645667
  O   2.37318722786672      1.09973445910757     -0.38294966781349
  N   -0.91160072621407      1.24417502119518     -0.38095388368920
  H   -0.78540798777786      1.74270477125216      0.49203103462002
  H   -0.32687429017809      1.67026697798167     -1.08773262908375
  N   -1.60155850789508     -0.70313232453037      0.69618721180059
  H   -2.50407869758984     -0.37934510324805      0.37119124988876
  H   -1.59300312963522     -1.71560399526879      0.67129995275014
