14
Coordinates from ORCA-job run
  C   0.79587924492239     -0.49882734674710      0.44023862242068
  C   -0.50393804490466     -0.21412083547504     -0.28693588840740
  F   0.76911049570168      0.08954605999957      1.66994335718375
  H   -0.43652015530281     -0.70444256057539     -1.26048740297352
  H   0.99274606763603     -1.56458135804021      0.54816214614397
  N   1.93720101186066      0.08084332076471     -0.35046811898170
  O   2.55945999251752      1.02084830588830      0.11649476202892
  O   2.12403451051786     -0.47395232372792     -1.42812399743317
  N   -0.56894893195293      1.21699744509410     -0.51800114848173
  H   -1.36232429742365      1.45429769430137     -1.09841447980087
  H   -0.64489096997459      1.71969763269833      0.35809788261650
  N   -1.55300119621214     -0.87768622848179      0.47381931786283
  H   -1.67994457251099     -0.41329028300051      1.36558978218265
  H   -2.42986315487436     -0.83532952269843     -0.02991483436092
