16

C	-0.516911	0.003851	-1.425004
C	0.0	0.0	0.0
F	0.127679	0.966036	-2.174469
H	1.094516	0.0	0.0
H	-1.57836	0.315014	-1.407997
N	-0.294907	-1.257475	-2.108155
H	-0.977118	-1.937027	-1.795233
H	-0.442956	-1.1011	-3.09854
C	-0.469681	-1.250918	0.739107
H	-1.566588	-1.337454	0.723396
H	-0.031398	-2.151195	0.304722
H	-0.150761	-1.195248	1.782349
N	-0.453586	1.244285	0.63752
H	0.270235	1.558768	1.274501
H	-1.29269	1.068205	1.183926
Cl	3.623618	0.0	0.0
