16

C	-0.481143	-0.043568	-1.443093
C	0.0	0.0	0.0
F	-0.368289	-1.335101	-1.954334
H	1.095683	0.0	0.0
H	0.176286	0.577052	-2.066671
N	-1.880131	0.320819	-1.524308
H	-1.941557	1.257265	-1.141997
H	-2.144108	0.364796	-2.501131
C	-0.518001	-1.180193	0.80854
H	-0.164043	-2.121241	0.38684
H	-0.149414	-1.107875	1.835217
H	-1.612569	-1.192638	0.81305
N	-0.422004	1.305795	0.548268
H	-1.210263	1.165566	1.173012
H	0.341936	1.680321	1.09956
Cl	3.609669	0.0	0.0
