18

C	0.0	0.0	0.0
C	-0.39281	-0.132608	-1.523605
Cl	1.80047	0.0	0.0
H	0.536647	-0.075601	-2.096619
C	-0.412258	1.348045	0.586649
H	0.005865	2.197592	0.041266
H	-1.506094	1.34091	0.563335
H	-0.055041	1.399197	1.619761
N	-0.548687	-1.108814	0.720756
H	-0.361105	-0.960966	1.708892
H	-1.576101	-0.93794	0.570542
C	-1.343068	0.934194	-2.089331
H	-2.272276	0.875263	-1.516012
H	-1.51833	0.718023	-3.148692
H	-0.883928	1.923563	-2.018699
C	-0.932504	-1.459854	-1.8473
N	-1.327096	-2.462124	-2.315913
F	-2.8837	0.0	0.0
