12
Coordinates from ORCA-job run
  C   0.92221509484810      0.59531108566180     -0.11980825440609
  C   -0.39998353453555      0.37725724287676     -0.26790330652459
  H   1.42069736163255      1.51001812617152     -0.41520301180908
  N   1.84717265249862     -0.40388902065227      0.39016799645186
  O   1.40772751518548     -1.32715280412468      1.07476290142759
  O   3.02804752698618     -0.22797372133243      0.08964703258652
  C   -1.17946849405342     -0.86631912137634      0.06621938766791
  H   -0.61754462709037     -1.76492030377378     -0.18189329342392
  H   -1.38348417009854     -0.89941713043842      1.13905203498565
  H   -2.12731053747736     -0.86350223178288     -0.47145291428572
  C   -1.14191598218522      1.48835458944126     -0.79301622245176
  N   -1.77615280571047      2.38423328932946     -1.21857235021837
