12
Coordinates from ORCA-job run
  C   0.92932700132678      0.58762732174365     -0.08474758359449
  C   -0.39042687463451      0.38485122489129     -0.27089132378813
  H   1.44306497067090      1.50314425828098     -0.34982687324271
  N   1.83257857608202     -0.42988917351100      0.42852295203097
  O   1.36866215363882     -1.36127673523359      1.08540052874362
  O   3.02178793746373     -0.26002844116200      0.15904756114428
  C   -1.18939389628340     -0.85732891841233      0.01912811038819
  H   -0.62809356472250     -1.75685730587219     -0.22665667426600
  H   -1.42639936725134     -0.90550441846304      1.08461712250248
  H   -2.12078722856305     -0.83695038085429     -0.54625567208910
  C   -1.11024077047292      1.51252618230104     -0.79124715441327
  N   -1.73007893725455      2.41968638629148     -1.21409099341584
