12
Coordinates from ORCA-job run
  C   0.89043474206560     -0.37223477542389      0.11162240252456
  C   -0.36071826035047      0.06569041516459     -0.10989426962945
  H   1.12635602293457     -1.40868249708225      0.31683299646935
  N   2.08180685324960      0.46765046122216      0.09663080472590
  O   1.95975040977629      1.67436864524731     -0.08886177539446
  O   3.14105643534917     -0.13500133745582      0.27972104544345
  C   -1.52861457269914     -0.88334169069134     -0.07724837593076
  H   -2.24462653807418     -0.56833306399657      0.68553038818848
  H   -2.04625017902138     -0.87139570891708     -1.03936811286198
  H   -1.20407730455954     -1.90179741962029      0.13871024165271
  C   -0.69232223229400      1.43182057752590     -0.39010094414791
  N   -1.12279537637652      2.50025639402727     -0.63157440103990
