12
Coordinates from ORCA-job run
  C   0.89925836371457      0.58020875251968      0.20375612182671
  C   -0.38981015325807      0.42766602825679     -0.15878100231684
  H   1.38767000777944      1.54035579066046      0.31401805165097
  N   1.80664499311551     -0.53680130103264      0.41249062457481
  O   3.00015294993748     -0.28054957635860      0.25403672733027
  O   1.33954327793445     -1.62887078183159      0.73420821263657
  C   -1.14417515735033     -0.85433984211813     -0.38651866915097
  H   -1.52116340373213     -1.23462124008997      0.56617045511301
  H   -0.50347630107721     -1.62397954258352     -0.81206464300088
  H   -1.99109761909722     -0.67064081338321     -1.04744571814570
  C   -1.12589973694091      1.64909249051014     -0.32297751137681
  N   -1.75764722102557      2.63248003545059     -0.46289264914114
