12
Coordinates from ORCA-job run
  C   0.90741015312468      0.59228605619783      0.14046283816915
  C   -0.39472901851135      0.42158226169853     -0.16208612023923
  H   1.39694922082265      1.55698322331206      0.18798214194883
  N   1.82694726092080     -0.51260819507162      0.36167789804914
  O   1.37735911604420     -1.58961281116589      0.75194740944115
  O   3.01191037775955     -0.26172378603147      0.14221817996000
  C   -1.15394121436629     -0.86976272108057     -0.30188903283075
  H   -0.52733148946428     -1.65976298887679     -0.71069193896652
  H   -1.50020398154076     -1.20323143857935      0.67956737285350
  H   -2.02257726078272     -0.71712522157400     -0.94251232682007
  C   -1.14076086597162      1.63382818430068     -0.34852696061674
  N   -1.78103229803487      2.60914743687058     -0.50514946094847
