12
Coordinates from ORCA-job run
  C   0.86260381705906     -0.38474107457747      0.20519400722306
  C   -0.35148363052239      0.06797033974973     -0.15126277273418
  H   1.03431224695479     -1.38651420812388      0.57795711172776
  N   2.08549249163584      0.40778362808886      0.17793213470509
  O   2.06784728568601      1.51336661093890     -0.35400799242085
  O   3.06017681655401     -0.12705108836416      0.70917872516528
  C   -1.56236415864341     -0.82277036966579     -0.07235192311648
  H   -2.30562751039124     -0.38487562083490      0.59819410475980
  H   -2.02271856771163     -0.91471153686649     -1.05892625869061
  H   -1.29841909231832     -1.81671224173063      0.29047848510911
  C   -0.60181544110600      1.39906577096403     -0.62072479652973
  N   -0.96700425719671      2.44818979042179     -1.00966082519824
