12
Coordinates from ORCA-job run
  C   0.91574528153254      0.57502407899770     -0.21871532817486
  C   -0.40738185737986      0.34227692666765     -0.30795065495287
  H   1.39446879956908      1.49594304467243     -0.52918519407309
  N   1.86644471213385     -0.37483685955280      0.34630412605845
  O   1.73785736848298     -1.57185071160761      0.09754106716146
  O   2.75194928435522      0.12728126665629      1.03664927691406
  C   -1.16989409627524     -0.85386801407526      0.18258881452919
  H   -0.50024730128682     -1.60492266055769      0.59322106855094
  H   -1.72836600392582     -1.31542516713766     -0.63347645043292
  H   -1.88438815946421     -0.53081219218938      0.94300384854469
  C   -1.17232709625150      1.41627394207890     -0.87519091160392
  N   -1.80386093149022      2.29391634604744     -1.34078966252114
