12
Coordinates from ORCA-job run
  C   0.93715080968625      0.56178609017466     -0.30381676041568
  C   -0.40227220146505      0.42099680477651     -0.27372288501150
  H   1.49473987870143      1.34814436208628     -0.82686002257750
  N   1.79550283140925     -0.42473469157534      0.33312295069664
  O   1.52798661323871     -0.74732394795395      1.49586836935354
  O   2.72814455984639     -0.85690202234567     -0.35103905848073
  C   -1.14106490241167     -0.72787096315903      0.37072800419420
  H   -2.05034037296812     -0.91961193394382     -0.19082126391966
  H   -0.54836103869155     -1.64269448668248      0.39309669630318
  H   -1.39253569419836     -0.48208154534617      1.40104897212109
  C   -1.17513425933735      1.36121109172748     -1.03661702235349
  N   -1.77581622380993      2.10908124224153     -1.71998797991008
