12
Coordinates from ORCA-job run
  C   0.88265807897868     -0.40854358816185      0.06508735466959
  C   -0.36028081655916      0.07958945484786     -0.08650064499551
  H   1.09144246827779     -1.46088709369737      0.20977178351257
  N   2.10075532653056      0.39114247449592      0.02077493763409
  O   3.14673983806040     -0.26023567499812      0.02688387053829
  O   2.01095618122861      1.61428178066565     -0.01695403466845
  C   -1.55902568208544     -0.82961335725096     -0.04095542405865
  H   -2.23166251832948     -0.52004277036301      0.76247694182212
  H   -1.26226105083844     -1.86598020867711      0.12384250689272
  H   -2.11457216228752     -0.76318996900128     -0.97937611592966
  C   -0.65301363360289      1.46614921902336     -0.30227657019028
  N   -1.05173602937312      2.55732973311691     -0.49077460522684
