12
Coordinates from ORCA-job run
  C   0.86640682686551     -0.37002721080539      0.21303843128321
  C   -0.35181105862443      0.06165120609964     -0.15518611385908
  H   1.05510222490770     -1.37354257228083      0.57289862621812
  N   2.07242806994054      0.44881136212411      0.21510015726859
  O   2.03566771180246      1.56720158224731     -0.28836051673347
  O   3.05428671606450     -0.07906935991760      0.74013849848932
  C   -1.54434794864695     -0.85555643069917     -0.10798347765111
  H   -1.26537764514447     -1.84777311175709      0.24834052553564
  H   -2.30852648423357     -0.44130409034024      0.55398514126452
  H   -1.98494080526107     -0.94578925608229     -1.10373566637729
  C   -0.62330931252755      1.39396708235913     -0.60893642160889
  N   -1.00457829514266      2.44043079905243     -0.98929918382956
