12
Coordinates from ORCA-job run
  C   0.84774371118252     -0.27118910963362      0.35220888780463
  C   -0.35148855465130      0.04439061255686     -0.16592273256891
  H   1.00774699591844     -1.12768965794498      0.99468532214528
  N   2.08223183854508      0.46070564607908      0.09662726018894
  O   2.03104208607489      1.52199600915978     -0.51708394824950
  O   3.10082592494601     -0.07438154615831      0.53773889130680
  C   -1.56995505756479     -0.78316921193688      0.14414151216398
  H   -1.99608432575240     -1.18160281552444     -0.77964862934570
  H   -2.33315310897327     -0.16069259541802      0.61717776444467
  H   -1.32535760277592     -1.61218263972431      0.80911387375490
  C   -0.57618251820560      1.16022818920956     -1.03728762366089
  N   -0.91736938874365      2.02358711933529     -1.76075057798420
