12
Coordinates from ORCA-job run
  C   0.88736016242230     -0.27858169731175      0.25294480208091
  C   -0.36071812547691      0.04691105972076     -0.12456647648743
  H   1.11564445247636     -1.14739031534425      0.85706787901024
  N   2.08786286759667      0.45593105793941     -0.12717552980715
  O   3.14776324342526     -0.09735870398362      0.17102825882146
  O   1.97157559025232      1.53684236249251     -0.69612385480437
  C   -1.54012380831155     -0.78473221732108      0.30292737283078
  H   -1.22666118710965     -1.62686634387223      0.92080317215169
  H   -2.06727191622098     -1.16439455372972     -0.57562256647064
  H   -2.24455824820279     -0.17077893161310      0.86913984492250
  C   -0.67683631876279      1.17797145446204     -0.94648266114609
  N   -1.09303671208825      2.05344682856104     -1.61394024110191
