12
Coordinates from ORCA-job run
  C   0.91536975393025     -0.34740656428369     -0.12003122529645
  C   -0.36494247339639      0.05751935874561     -0.06545382556947
  H   1.20386652790198     -1.36741609555426     -0.34067573342178
  N   2.06818680984547      0.50621774806122      0.13779015957907
  O   3.14771121006554     -0.08569947247735      0.19095661003271
  O   1.89795538517212      1.71327828688159      0.27780173500652
  C   -1.49224887313345     -0.90347279225193     -0.33186669510273
  H   -2.14911148477777     -0.95896184232873      0.53943457201752
  H   -2.09240315483272     -0.55145716116022     -1.17428314230933
  H   -1.11569819364776     -1.90177155604431     -0.55678189476406
  C   -0.76666217743219      1.39780907682876      0.24605120172419
  N   -1.25302332969507      2.44136101358332      0.49005823810381
