12
Coordinates from ORCA-job run
  C   0.86250107451629     -0.16790413779095      0.38020968527808
  C   -0.34876572047369     -0.00858655896358     -0.17913885274403
  H   1.02816140701414     -0.74847889814251      1.27865050682104
  N   2.08054107287019      0.47756079729124     -0.09722067598345
  O   2.09430043068816      0.95857307641764     -1.22527068239173
  O   3.01328049904812      0.48170913483417      0.70466243408938
  C   -1.56319969051945     -0.67914980125182      0.40675495111136
  H   -2.29726007997452      0.07428280963804      0.69665239013377
  H   -2.02548115385686     -1.32503485027374     -0.33993588606419
  H   -1.29889956175933     -1.27786169209465      1.27976437751289
  C   -0.59689046794561      0.79381208275085     -1.34012411931131
  N   -0.94728780960744      1.42107803758532     -2.27200412845181
