12
Coordinates from ORCA-job run
  C   0.84959583137480     -0.28474980390293      0.34036795507167
  C   -0.35259491202962      0.05314135972285     -0.15630487661936
  H   0.99932622030273     -1.12288198667849      1.00900641615629
  N   2.10023303745854      0.39223865097279      0.02025898068670
  O   3.11424141764938     -0.17446618093596      0.43132783299942
  O   2.06521900578003      1.44318961159718     -0.61208277908519
  C   -1.58936959171918     -0.71866921689874      0.21819209628215
  H   -2.05553466462528     -1.13513369434518     -0.67789722974284
  H   -2.31663517190303     -0.05255052922054      0.68839884907688
  H   -1.35444804774319     -1.53108874046506      0.90671621880627
  C   -0.56361202608203      1.14250474116705     -1.06380536862283
  N   -0.89442109846317      1.98846578898701     -1.81217809500915
