12
Coordinates from ORCA-job run
  C   0.86194876181024     -0.12402631059145      0.39017166376945
  C   -0.35196714013630     -0.00708804191048     -0.17432964341835
  H   1.03683590796341     -0.66988114481903      1.30861162339130
  N   2.08134001040681      0.48577744662929     -0.12569808879023
  O   2.05507681111977      1.03710841849835     -1.22164427667456
  O   3.06181430854420      0.38697365850907      0.61408946775895
  C   -1.55804520105310     -0.66147544083069      0.44459098556768
  H   -1.29103673401115     -1.20105520232861      1.35390891852057
  H   -2.30978672560317      0.09355275782051      0.68665417405682
  H   -2.00879546131640     -1.36027292304310     -0.26392587802240
  C   -0.60564185981278      0.72863354279182     -1.37815329697262
  N   -0.97274267791154      1.29175323927431     -2.34427564918662
