12
Coordinates from ORCA-job run
  C   0.91295488404031     -0.35026392247877      0.01537085895553
  C   -0.36525420939894      0.05289887444775     -0.08335322896194
  H   1.21293345700877     -1.38831764258459     -0.05077575841852
  N   2.05455601706592      0.54081193127072      0.18225676871115
  O   1.85538508336738      1.73128963775737      0.40283036616908
  O   3.15476028751001     -0.00527985783100      0.08387390357879
  C   -1.47803316045981     -0.94293118012523     -0.27243152896690
  H   -2.19401471012732     -0.86258274772391      0.54894923744425
  H   -2.01572188348552     -0.73093615882494     -1.19960570583916
  H   -1.09300696654888     -1.96251589997099     -0.31017597603865
  C   -0.77679861467217      1.42469948911425     -0.02337878066760
  N   -1.26776018429975      2.49412747694935     -0.00156015596603
