12
Coordinates from ORCA-job run
  C   0.89514927545855      0.59226489327090      0.18994198761081
  C   -0.39876565287161      0.42193800250403     -0.14631652019743
  H   1.36975572094322      1.55951784301511      0.29954601338280
  N   1.82420736096005     -0.51167452328321      0.37079063195124
  O   1.38170046071471     -1.61382307087253      0.69288704621159
  O   3.00974873843070     -0.23512840244622      0.18824994275382
  C   -1.13714766584867     -0.86989068238326     -0.36907018688391
  H   -1.48655754676828     -1.26580810810490      0.58777913163240
  H   -0.49411119150727     -1.62539802288786     -0.81629498964105
  H   -2.00173580404795     -0.69459927683118     -1.00907179926796
  C   -1.15679108878725      1.63295457165077     -0.28654697403916
  N   -1.80545260667622      2.60764677636835     -0.40889428351315
