12
Coordinates from ORCA-job run
  C   0.86231419840935     -0.39381218122653      0.19234999099407
  C   -0.34704105178247      0.07077705130406     -0.16501142953785
  H   1.07273029285139     -1.44597150454375      0.33598770772256
  N   2.02497285163856      0.44109778517728      0.46857608787521
  O   2.99171348145916     -0.15912490125162      0.94119530737094
  O   1.97009729936993      1.64141394559167      0.22004670336868
  C   -1.49420427751711     -0.87098991170603     -0.41553934162256
  H   -1.19312583618835     -1.90875648822279     -0.26921598682811
  H   -2.32132067989541     -0.64115140352963      0.26028471784966
  H   -1.86056658470949     -0.74793418345413     -1.43747471329531
  C   -0.65057573630248      1.46148874325444     -0.33513476547155
  N   -1.05399395733306      2.55396304860702     -0.50506427842573
