12
Coordinates from ORCA-job run
  C   0.97380725532007      0.35850079223822     -0.43065061414613
  C   -0.36932958333046      0.24996995485880     -0.44099231667488
  H   1.54402192189934      0.89819776740649     -1.17640021145043
  N   1.82054628002022     -0.31161616333615      0.54322944257444
  O   2.97085600234753     -0.54005842763391      0.16941970877077
  O   1.35099973969610     -0.58951109251150      1.64623409942603
  C   -1.24539550970736     -0.51474616458235      0.51382706905714
  H   -2.19292757862004     -0.75478334370993      0.03158707869707
  H   -0.76259342023089     -1.42824225650444      0.85518377987888
  H   -1.44883974066154      0.09501664303621      1.39772550425469
  C   -1.03239537535427      0.97536433900052     -1.48727003537434
  N   -1.60974999137870      1.56190795173801     -2.32889350501326
