12
Coordinates from ORCA-job run
  C   0.88729542495689      0.55320416597841      0.29012561107491
  C   -0.43165939925064      0.37234844862704      0.08144077301159
  H   1.30844962398871      1.41199564496113      0.79779225922800
  N   1.89420459367768     -0.43154122661999     -0.07138205534592
  O   2.93330291282318     -0.38560485534906      0.58687818499982
  O   1.65477197889001     -1.21561903161829     -0.98912276946447
  C   -1.11603930312241     -0.80236783967418     -0.56336088425163
  H   -2.15030451220046     -0.85709952848246     -0.22382686983578
  H   -1.11181181359219     -0.68179026645141     -1.64959627603838
  H   -0.60363599734606     -1.73587479203425     -0.33948842567724
  C   -1.27225188482437      1.45161183294222      0.51619987793209
  N   -1.99132162400035      2.31973744772084      0.85534057436702
