12
Coordinates from ORCA-job run
  C   0.92050511998978      0.60474928014165     -0.09634975804698
  C   -0.39221509432162      0.37033960621917     -0.29162167888928
  H   1.40544705699278      1.54826825894210     -0.31320658485305
  N   1.82267231883348     -0.36320448717333      0.50666436062723
  O   2.81194811278939      0.11531149375653      1.06125183382890
  O   1.55351183109786     -1.56070236438929      0.41796478204246
  C   -1.16794607009999     -0.88000590020691      0.02276210075556
  H   -1.06890958828330     -1.59320519291346     -0.79922310611919
  H   -0.79302676828019     -1.36658139753782      0.92090695185459
  H   -2.22314258610076     -0.63709390392313      0.14730145768927
  C   -1.12127582382169      1.44993117283885     -0.89471386397261
  N   -1.74656850879574      2.31519343424564     -1.39073649491689
