12
Coordinates from ORCA-job run
  C   0.89828804836907      0.57007307612698      0.23355581075578
  C   -0.39569209110610      0.42394500670286     -0.11332380976532
  H   1.36561053823595      1.53031192785353      0.41218739558397
  N   1.83071962248041     -0.53872806922239      0.33044664724933
  O   3.00850028886335     -0.25429134266535      0.11293151066221
  O   1.39695725801424     -1.65494159389181      0.61389108168231
  C   -1.13282921330777     -0.84577308239294     -0.44080953973459
  H   -0.47577763813555     -1.59940713882728     -0.86630114023850
  H   -1.57209018448625     -1.26040703000014      0.47176681342809
  H   -1.94712846249693     -0.62238099155271     -1.12929368885234
  C   -1.15990756690817      1.63733144019637     -0.15059608827658
  N   -1.81565059952224      2.61426779767287     -0.18245499249436
