14
Coordinates from ORCA-job run
  C   0.85976716689642      0.21203385712948      0.40895338444663
  C   -0.62181478112558     -0.09357663973300      0.12397146556742
  Br  1.48187277387192      1.75918666750245     -0.52738799003971
  H   -0.89796957904768     -0.93755794582305      0.75958652521168
  H   1.03516726170812      0.34868898147026      1.47408449355123
  N   1.60800018130013     -1.04067920812031      0.01027608705503
  O   1.44771222216034     -1.96761652723786      0.80141863360625
  O   2.22676958027371     -1.07619022111634     -1.04245801476629
  N   -1.00202387451294     -0.33551919820984     -1.21032573129240
  H   -0.58646351704886      0.29883514764793     -1.87722053653477
  H   -0.88229240217552     -1.29803678821027     -1.48543432862107
  N   -1.38673169946219      1.09106553896069      0.70421962412912
  O   -1.99131052150710      1.82279009472499     -0.06444695374857
  O   -1.29168281133078      1.21757624101486      1.92276334143543
