14
Coordinates from ORCA-job run
  C   0.73465189053088     -0.52642301040211     -0.27625170603225
  C   -0.60063466106251     -0.09346814860839      0.31998954203938
  Br  1.11288666538574     -2.35169438535929      0.20875496798558
  H   -0.57553726466208     -0.16810860809496      1.40504384283966
  H   0.74902157767644     -0.44437783032961     -1.36069875186584
  N   1.85578426033004      0.34188891123633      0.22549634716816
  O   2.76029893889952      0.57636014837242     -0.56685610509335
  O   1.77062006326091      0.73040573600338      1.38722739690167
  N   -1.75187273677652     -0.74467486242930     -0.21236961376353
  H   -1.97204071332853     -1.59123572294083      0.28977101971645
  H   -1.67298548435221     -0.93121169583032     -1.20300572955950
  N   -0.75268430453797      1.38254818713187      0.01592283617775
  O   -0.48967222553104      1.71403669599662     -1.14071116398721
  O   -1.16783600583266      2.10695458525420      0.90868711747304
