14
Coordinates from ORCA-job run
  C   0.64309173652540     -0.47111662896954      0.71015342070887
  C   -0.75230156413159      0.05126620778245      0.30669698304065
  Br  1.31331708751651      0.43203953422611      2.26234100073858
  H   -1.37514451424318      0.02640360802759      1.20086166572916
  H   0.55649042745248     -1.53213719829897      0.94227444826715
  N   1.62327965170761     -0.40636310833668     -0.44761332070433
  O   1.36944826769388     -1.21948330732546     -1.33602187049164
  O   2.53786194209628      0.39725958628482     -0.43531704603689
  N   -1.41372454804919     -0.60070162307868     -0.77227770777707
  H   -0.77887449389108     -0.84987450768439     -1.51860973276302
  H   -1.92478165618210     -1.41311435289713     -0.45932774008421
  N   -0.62751550888162      1.51143934885616     -0.05129938973511
  O   -1.19224756806401      2.32833066484068      0.66638026319547
  O   0.02110074045062      1.74605177657305     -1.06724097408758
