14
Coordinates from ORCA-job run
  C   0.78658062049694     -0.63597613158470      0.21090212631510
  C   -0.54497473631191      0.07686420776441      0.37091803066793
  Br  1.24975795997735     -1.58098306199074      1.81865051319877
  H   -0.52364515523261      0.74996095314012      1.22568694403090
  H   0.78974898108322     -1.33748967312815     -0.62013520562447
  N   1.87777439128533      0.35744893107612     -0.07948609947827
  O   1.76730941001815      1.46402350870481      0.44071320137287
  O   2.79243627811775     -0.03172554400689     -0.79392920352043
  N   -1.60991649893491     -0.85587376929147      0.47842689936990
  H   -2.47649343396205     -0.40513826952688      0.73858657776290
  H   -1.73653951334071     -1.38846976510100     -0.37318124875844
  N   -0.72011954912329      0.99217528597147     -0.83963518572269
  O   -0.31827318420680      0.55875944097734     -1.92029290294672
  O   -1.33264556986646      2.03742388699556     -0.65622444666736
