14
Coordinates from ORCA-job run
  C   0.83515287245709     -0.48785006063895      0.60576369029407
  C   -0.63795527082780     -0.10565895183709      0.44154027570559
  Br  1.62097881369133      0.13013900367891      2.23888409152580
  H   -1.08221627188399     -0.01972200763575      1.43568448975404
  H   0.89070216528035     -1.57693920503961      0.61387800108820
  N   1.63935683579842     -0.07080934304192     -0.61554801292035
  O   1.03282379047143     -0.22816106404890     -1.67384508624095
  O   2.78984719160002      0.30231187306420     -0.48807764586611
  N   -1.36116434673187     -1.05997763349815     -0.31417444638635
  H   -2.35127508400476     -0.85701844267257     -0.29395983232199
  H   -1.03864679389973     -1.07038594568967     -1.27300978020802
  N   -0.74023586840159      1.33473652722450     -0.11013863029042
  O   0.19715786129379      2.09628005127959      0.09781579969676
  O   -1.79552589484269      1.61305519885543     -0.66681291383028
