14
Coordinates from ORCA-job run
  C   0.74265635037346     -0.69372942595784      0.18909043068515
  C   -0.57783268031287      0.04481809992473      0.32291638978244
  Br  1.01127213028450     -1.88071906222330      1.67615802023805
  H   -0.62530114682584      0.58413712709654      1.26684270373299
  H   0.81248437906809     -1.26704133753376     -0.73238189885994
  N   1.88506014867204      0.28446964259123      0.15758798671683
  O   2.85429711409840     -0.03200644517447     -0.51992124733347
  O   1.75423206941974      1.30478843339682      0.82777981253429
  N   -1.67411910786778     -0.84702209540973      0.18560820656659
  H   -2.54933989115879     -0.40196704613904      0.42594275402168
  H   -1.72861130878785     -1.24228651041067     -0.74485021550890
  N   -0.60200500018316      1.13352600314590     -0.74800387511593
  O   -0.10341909914508      0.84569273906880     -1.83697805130347
  O   -1.20037395763487      2.16633987762478     -0.47079101615630
