14
Coordinates from ORCA-job run
  C   0.77857419281004     -0.66132388152119      0.15740894540007
  C   -0.59062820624525     -0.01987959835740      0.30173966212529
  Br  1.07019510464108     -1.95979126908343      1.54358343833687
  H   -0.70632183262256      0.42828747212883      1.28655645528587
  H   0.91694135367688     -1.14308963196255     -0.80772528280737
  N   1.85622319944858      0.38304075993154      0.25926253019840
  O   2.86780176683565      0.18800881058507     -0.40196088005501
  O   1.63646755926390      1.32863846238235      1.01081768767512
  N   -1.62165197302304     -0.96040819326245      0.04148859225853
  H   -2.53171922885072     -0.59354489293586      0.28427355993248
  H   -1.61767875450820     -1.27354163658699     -0.92121018220653
  N   -0.64650695687184      1.15828370155473     -0.66946036562147
  O   -1.31841051481423      2.12378891402648     -0.32620564384248
  O   -0.09328570974029      1.00053098310087     -1.75856851667977
