14
Coordinates from ORCA-job run
  C   0.83969697445599     -0.31130176264586      0.70769321757136
  C   -0.64198250255257     -0.02612311593338      0.44834272363995
  Br  1.57775365853222      0.67960524231518      2.17053160702525
  H   -1.10469740110431      0.26672759647674      1.39341655745991
  H   0.92949012363105     -1.36905663555059      0.95727415598708
  N   1.65057594694113     -0.14719097996380     -0.56819824174063
  O   1.06795036582173     -0.55988080229191     -1.56970905912118
  O   2.78478622380039      0.28869399483348     -0.51714120097904
  N   -1.32196330381419     -1.15038090926046     -0.07921624264220
  H   -0.98227085462352     -1.36567442191694     -1.00757118577503
  H   -2.31801902525863     -0.98168554799185     -0.11641731811333
  N   -0.77923894955670      1.24877716694115     -0.41488938557864
  O   0.12628561832453      2.07314389367989     -0.36642001477590
  O   -1.82836687459714      1.35434628130835     -1.03869561295759
