14
Coordinates from ORCA-job run
  C   0.74911655591577     -0.65757992968205     -0.01089331236087
  C   -0.57278436460417      0.04489817517282      0.21772903405971
  Br  0.91314497543349     -2.17379489677318      1.17508190373458
  H   -0.61813968899146      0.44942033720870      1.23345633713310
  H   0.85538351119465     -1.00603727549138     -1.03457659842852
  N   1.90639172914100      0.26259457610295      0.26691347833873
  O   2.92832006087830      0.04625747692155     -0.36926603752403
  O   1.73484672618848      1.13045369062630      1.11654444989421
  N   -1.67372041381135     -0.78656335381205     -0.20004544591770
  H   -1.66731143828335     -1.65787984054076      0.31473301179300
  H   -2.54291673112429     -0.30500867281179     -0.00114077724164
  N   -0.63740951065555      1.26006452066342     -0.68198075577363
  O   0.21888215922045      1.39562303477324     -1.54989044793172
  O   -1.59380357050198      1.99855215764222     -0.47766483977523
