14
Coordinates from ORCA-job run
  C   0.87171471366362     -0.28527479630467      0.54650411042211
  C   -0.64295707828873      0.00796723206550      0.49926089311868
  Br  1.78558624415590      0.90449560644499      1.73934798468518
  H   -0.99585837860258      0.04405165240603      1.52988840421386
  H   1.01170298409787     -1.30446082048919      0.90529323111137
  N   1.48798868426309     -0.27523974475101     -0.84115207681318
  O   1.13719940106156     -1.23464333610066     -1.52784217313614
  O   2.23606098308367      0.62518131127581     -1.17595814320910
  N   -1.46008821538114     -0.86738543914062     -0.27066074117598
  H   -1.01552411213742     -1.14806512956994     -1.13425649636816
  H   -1.73821966387301     -1.67912479226658      0.26125153045774
  N   -0.83978571978697      1.40501039335780     -0.03674991104682
  O   -1.30446846041942      2.24913473454992      0.72005503758530
  O   -0.53435138183643      1.55935312852261     -1.21598164984487
