14
Coordinates from ORCA-job run
  C   0.84928217304398      0.08800068619304      0.37782857293064
  C   -0.65254773711018     -0.06955358793508      0.05565172784102
  Br  1.68624241248009      1.46999938155338     -0.65982498047714
  H   -0.99487660798140     -0.95294626297354      0.60322386514855
  H   1.00666452892842      0.30668582363120      1.43186655988341
  N   1.54498601787163     -1.22138180584937      0.12647741784145
  O   1.34931808942698     -1.76904693952204     -0.95470257883592
  O   2.24103412741396     -1.64781677717545      1.04249278642012
  N   -1.10180026679472     -0.12765597184268     -1.28658064276534
  H   -0.84169380529400      0.70508947484450     -1.79892286026265
  H   -0.71547277649755     -0.94343186860794     -1.74246827739136
  N   -1.31172602679773      1.10189846825288      0.75771518878934
  O   -1.77809243702019      1.99350084054392      0.06124213357901
  O   -1.28331769166930      1.06765853888717      1.98500108729887
