14
Coordinates from ORCA-job run
  C   0.71394837646583     -0.45275511577059      0.65235090558053
  C   -0.73293073503214     -0.00497311217706      0.35409722102120
  Br  1.42722804095679      0.44130039522225      2.19042331178677
  H   -1.29504852997450     -0.09431326870513      1.28362292924342
  H   0.70625678058166     -1.52393820969167      0.85128231518548
  N   1.61223643584660     -0.29072323290948     -0.56072679021551
  O   2.47339887426777      0.56982818433747     -0.57879079451175
  O   1.35271379634020     -1.09171300938552     -1.45866457242980
  N   -1.42212730324448     -0.66303425742155     -0.70355360176766
  H   -1.85906868540870     -1.51652570105664     -0.38769620028137
  H   -0.82319774086769     -0.84681771777262     -1.49707088467443
  N   -0.71827034074305      1.47090534377370      0.03955901047507
  O   -1.28091126907807      2.22840951562924      0.82115589825461
  O   -0.15522770011022      1.77635018592758     -1.00798874766657
