14
Coordinates from ORCA-job run
  C   0.84443408380218     -0.46836356779134     -0.25019446405993
  C   -0.56809809232874     -0.13810407478980      0.18474760246758
  Br  1.26335373641961     -2.30403178270145      0.18212562228464
  H   -0.65892848301170     -0.21544914124772      1.27258865063784
  H   0.98829056106426     -0.32261630193913     -1.31730689498846
  N   1.84705898622646      0.40310465198171      0.45590695862864
  O   1.55262885550658      0.78962334155907      1.58212933564484
  O   2.88292480765154      0.63095409022423     -0.15316883931706
  N   -1.53004650206820     -0.87115930222327     -0.60074176036513
  H   -2.46153946183542     -0.64009419708422     -0.27495953942870
  H   -1.38945884267442     -1.86624869543681     -0.48047095148799
  N   -0.84158844130615      1.31815966812493     -0.12117336544868
  O   -1.90664609107462      1.74217379907753      0.31213770262570
  O   -0.02538511637137      1.94205151224627     -0.79162005719328
