14
Coordinates from ORCA-job run
  C   0.92379440313686      0.20769195112248      0.35810881753641
  C   -0.53992711167218     -0.14621458898009      0.12805143475225
  Br  1.48505247423813      1.70875284235410     -0.69189498136275
  H   -0.79312063793039     -0.95641355895813      0.81542590980811
  H   1.10748494743268      0.43326822513908      1.40610391180750
  N   1.71604478327576     -1.04910696349435      0.04743280749983
  O   1.49069631065689     -1.95516361387907      0.84455649110408
  O   2.45915030578019     -1.08573879982451     -0.91712315997277
  N   -0.79948608768638     -0.51367207491541     -1.20235385279237
  H   -1.72920288914880     -0.89062821950980     -1.31838122715744
  H   -0.66265169425850      0.25404543008902     -1.84637334101730
  N   -1.35694025628104      1.05119228783709      0.65912963270159
  O   -2.13427020806327      1.59375486965619     -0.11615626216597
  O   -1.16662433947996      1.34723221336340      1.83447381925885
