14
Coordinates from ORCA-job run
  C   0.91298497075123      0.12725885950149      0.41879213861916
  C   -0.54964648904268     -0.14014187399161      0.08656742897343
  Br  1.56853720766147      1.72468252520943     -0.41102733542787
  H   -0.85953761847654     -1.01921310363542      0.65589654294918
  H   1.05647552679349      0.21388901397102      1.49343330190437
  N   1.67755324060994     -1.11012394987749     -0.01454538280555
  O   2.46501010718723     -1.05376777687200     -0.94217291465661
  O   1.38514666594438     -2.09956353610044      0.65089987671484
  N   -0.75980206011164     -0.33073964875160     -1.28919728246510
  H   -0.57328983277028      0.50642640492992     -1.82523832841166
  H   -1.69409286933626     -0.65821494427794     -1.48888088057012
  N   -1.35085136311020      1.01191408094620      0.72870674654476
  O   -2.07291400866936      1.67624587899840     -0.00410105912737
  O   -1.20557347743078      1.15234806995005      1.93886714775855
