14
Coordinates from ORCA-job run
  C   0.84653757605047     -0.33055379583566      0.69079845044899
  C   -0.63601118500226     -0.03000170269029      0.45537701905886
  Br  1.61036454451386      0.63152803564775      2.15954515062628
  H   -1.08534346377980      0.24566401176158      1.41202012876797
  H   0.93096490504211     -1.39281934472828      0.92247113367997
  N   1.64270790258320     -0.15205896364947     -0.59236843736122
  O   1.04363733906508     -0.54039464614599     -1.59382552556056
  O   2.78223419233517      0.27048680491070     -0.54759232354785
  N   -1.33110299607455     -1.13745376742462     -0.08715007441140
  H   -2.32663912302751     -0.96314881840091     -0.10406355091932
  H   -1.00681866846690     -1.33588816570030     -1.02459202538317
  N   -0.77517600828046      1.26421656353669     -0.37867048467249
  O   0.14191796787589      2.07595643719271     -0.33578031227265
  O   -1.83727298283430      1.39546735152609     -0.97516914845342
