14
Coordinates from ORCA-job run
  C   0.92381618043487      0.19616865134184      0.27288409084987
  C   -0.57307298103995      0.00153535738088      0.06567928091668
  Br  1.74230591256209      1.29632386060575     -1.07060883224389
  H   -0.90066405199413     -0.73002825483516      0.82459121998783
  H   1.11300505569694      0.65322156522159      1.23949724166370
  N   1.62120114575694     -1.13833301633056      0.30825722460098
  O   1.26706696770825     -1.99063120325744     -0.50340207417905
  O   2.50043057107669     -1.26511302021616      1.15250586763908
  N   -0.94587197637586     -0.26341305366867     -1.28001641872098
  H   -0.44557406532932     -1.07674742080810     -1.61333449424468
  H   -1.94303819149913     -0.40991548479516     -1.35495424578923
  N   -1.26968233842090      1.28226129986681      0.52526915487629
  O   -0.83470485816042      1.81053521503164      1.54341380712387
  O   -2.25321737041608      1.63513550446275     -0.10978182248047
