14
Coordinates from ORCA-job run
  C   0.90879639871078      0.23379984645645      0.38016925526960
  C   -0.54338814562361     -0.14403291753990      0.11645121328217
  Br  1.49660240690039      1.68489885736748     -0.72391930836572
  H   -0.81601503314182     -0.91987079351602      0.83527955987335
  H   1.05311406353755      0.51303413391527      1.42139011370923
  N   1.72028419471936     -1.02993578041770      0.16168539584293
  O   1.47261858933264     -1.89690065645308      0.99489215631153
  O   2.49736767412335     -1.10833078532682     -0.77307452288496
  N   -0.75170930078686     -0.58227413190584     -1.20171128960325
  H   -1.67336952639596     -0.97480760044331     -1.33008819153125
  H   -0.60015904793701      0.15330880154591     -1.87914805211082
  N   -1.38669381335606      1.07216758710193      0.55452209509091
  O   -1.24334932454400      1.42808787469311      1.71985365226358
  O   -2.13609913553874      1.56985556452251     -0.27630207714730
