14
Coordinates from ORCA-job run
  C   0.95325648350884      0.17898943533970      0.28946074989416
  C   -0.53045067393270     -0.14372993325290      0.16591594526682
  Br  1.45420647951925      1.71466977534174     -0.74053505045341
  H   -0.74164258377230     -0.97786740722044      0.83869048755184
  H   1.22536220881957      0.35723582532108      1.32728280089228
  N   1.69506776085826     -1.07470919072097     -0.13628484472237
  O   1.51903207367696     -2.01029800206784      0.63898369340893
  O   2.35654313635860     -1.08139955528127     -1.15910585591210
  N   -0.90349684212764     -0.45180253392166     -1.15256323827684
  H   -0.80399264329846      0.33966155768963     -1.77436386922243
  H   -1.84688690014699     -0.80814239104008     -1.20742605268827
  N   -1.27966921490425      1.04248747797656      0.80990277642539
  O   -2.10623437423734      1.62947804226749      0.12295129957308
  O   -0.99009491032178      1.28542689956896      1.97709115826294
