14
Coordinates from ORCA-job run
  C   0.93083684716015      0.13578866734298      0.37390199863258
  C   -0.54628836401712     -0.13171635312006      0.11526099583152
  Br  1.56318963159298      1.69042646911560     -0.55018536286404
  H   -0.83868086066947     -0.98313397234368      0.73389820237353
  H   1.12014582684415      0.26702196019551      1.43679802696132
  N   1.66724338188510     -1.12577454580245     -0.03760481488836
  O   2.40948395156680     -1.11795429691931     -1.00340305642797
  O   1.40028938731198     -2.08189524147154      0.68479391137240
  N   -0.81712755987621     -0.37770708151012     -1.24072782356812
  H   -1.76314802890722     -0.69968735908246     -1.38686462890094
  H   -0.64235712857293      0.43265459584248     -1.82015676949951
  N   -1.31079686788569      1.05391951574410      0.74231877489068
  O   -2.06171912181290      1.69099727581892      0.01436741476757
  O   -1.11107109461963      1.24506036619002      1.93760313131934
