14
Coordinates from ORCA-job run
  C   0.86257408395079      0.21352128316778      0.24189697042952
  C   -0.64561450446252     -0.07994477940807      0.14968810023959
  Br  1.49027229436473      1.31255912527816     -1.20591701315650
  H   -0.87420671680840     -0.79560269899002      0.94344394380115
  H   1.11214826182639      0.71763077006298      1.17452103895073
  N   1.65384509826766     -1.07122303023909      0.25190517947221
  O   2.76995499446941     -1.00818195449835      0.75048833235284
  O   1.12651593089505     -2.07239506531717     -0.22776902237990
  N   -1.22478004349767     -0.51182686398040     -1.06793074160063
  H   -1.03908581553724      0.13314159416925     -1.82415034729056
  H   -0.88554244768141     -1.43473490747390     -1.29974319448845
  N   -1.30368571017917      1.21423018036722      0.59276379243800
  O   -1.90462636322625      1.86618093549273     -0.25023105901711
  O   -1.13676906238137      1.51564541136888      1.77203402024912
