14
Coordinates from ORCA-job run
  C   0.84466651190041      0.03275571605917      0.48742900424829
  C   -0.63669841443502     -0.02132919595769      0.07150298954914
  Br  1.73467285582344      1.58983174620632     -0.17636636275616
  H   -1.06980234963906     -0.89588004447643      0.56157619222547
  H   0.95042837722313     -0.00071994326740      1.56981966584358
  N   1.45257435300079     -1.24698389608233     -0.04157522772830
  O   2.14559323821934     -1.22687165483030     -1.04736218060594
  O   1.10794912343081     -2.24045495495081      0.59489969409947
  N   -0.93633915238377     -0.02800195240141     -1.30446180017351
  H   -0.92284530319626     -0.95251568606513     -1.70625640107447
  H   -0.38963210829098      0.62471406513561     -1.84746180159470
  N   -1.28488771053603      1.17005502998370      0.76731101011493
  O   -1.72664555093804      2.07489982371943      0.07600456399687
  O   -1.27103387017875      1.11850094692726      1.99494065385532
