14
Coordinates from ORCA-job run
  C   0.73315483995320     -0.34397422851854      0.80782659283908
  C   -0.71403403664991     -0.07835883537502      0.37805595122768
  Br  1.29893090688289      0.75254063354762      2.26970119986615
  H   -1.32346327089992      0.04738356522017      1.27327126683612
  H   0.81042448363882     -1.38955910859028      1.09943323819180
  N   1.65353085251479     -0.19147229933492     -0.39216418943303
  O   2.30022665057997      0.83309831315300     -0.53061729906188
  O   1.61827991188938     -1.15096236859794     -1.16061294576503
  N   -1.20624589893615     -1.12972255797379     -0.42900755746971
  H   -0.66694248569775     -1.24296661724272     -1.27740550595331
  H   -2.18286620606537     -0.99587091642739     -0.65486330988156
  N   -0.76100673122953      1.30296474144490     -0.29605968639134
  O   -0.49280991844391      1.32820814016171     -1.49488895646710
  O   -1.06817909753651      2.25969153853321      0.40733120146212
