14
Coordinates from ORCA-job run
  C   0.76093148529651     -0.30990481161715      0.68165388186647
  C   -0.72604699255722     -0.04220772828236      0.36610215952137
  Br  1.39277968832058      0.80363466696523      2.10807926807350
  H   -1.26928244767836     -0.09163367948819      1.30975878482753
  H   0.86382090572668     -1.35044770521348      0.98790754507631
  N   1.62882349691012     -0.18364800118707     -0.55820055071185
  O   1.44507854984980     -1.09411931004508     -1.36593707885200
  O   2.39819850773350      0.75237453830113     -0.67837087449855
  N   -1.35313537809228     -0.87076381436103     -0.60707618515348
  H   -0.74365285927843     -1.07638597590418     -1.38713648711285
  H   -1.69990724000041     -1.72604721710622     -0.19779199109070
  N   -0.86309615069388      1.38811880290627     -0.09624968802746
  O   -1.49111413360239      2.16288114775596      0.61556636256582
  O   -0.34339743193423      1.63814908727617     -1.18030514648412
