14
Coordinates from ORCA-job run
  C   0.79133765740091     -0.48791633061377     -0.17206126716269
  C   -0.62106362845526     -0.11777974524213      0.27029620655894
  Br  1.24126677611390     -2.24980683806490      0.46190846416572
  H   -0.69466017993042     -0.12399173986012      1.35569280699521
  H   0.90354987358843     -0.46727432479694     -1.25370700740728
  N   1.79840374268986      0.48710833087974      0.37317875794161
  O   2.75013455598425      0.75051359087525     -0.35215420203335
  O   1.58247742660887      0.92697498767972      1.49914223959606
  N   -1.67173877199226     -0.88104155002364     -0.31890162361813
  H   -1.86832343880476     -1.71922135021877      0.20680314823301
  H   -1.49347362612113     -1.10507180024951     -1.28879937640556
  N   -0.84110044242763      1.32121752156744     -0.14528736519694
  O   -0.50734633995340      1.59505125463674     -1.29882850888524
  O   -1.36946360470136      2.07223799343088      0.66171772721865
