14
Coordinates from ORCA-job run
  C   0.78161951290366     -0.28269982925048      0.67106428168580
  C   -0.71618998975888     -0.04014469174015      0.38656545489097
  Br  1.43928383700319      0.87207834281783      2.05186571487156
  H   -1.23500332223580     -0.06562304293794      1.34478192915575
  H   0.90391198014839     -1.31461200582766      0.99845201757121
  N   1.61329330926592     -0.17650987489234     -0.59479019471131
  O   2.35665702072321      0.77291644384835     -0.76436998082046
  O   1.42839623715124     -1.11447458294202     -1.37014270824455
  N   -1.35610253374241     -0.90628221665400     -0.54439269081534
  H   -0.76474475135824     -1.12718567877990     -1.33409180774568
  H   -1.68214811462994     -1.75254319115498     -0.10089308560478
  N   -0.88113793032976      1.37364392412667     -0.11533649289275
  O   -0.41099245040748      1.59120301146099     -1.22850430410236
  O   -1.47884280473309      2.16923339192563      0.59979186676195
