14
Coordinates from ORCA-job run
  C   0.73991263967917     -0.32340784958141      0.81013093640636
  C   -0.71175657007632     -0.07880553105446      0.38253713065777
  Br  1.30175992043497      0.80242478975450      2.25124411572089
  H   -1.31805355764968      0.05584323031421      1.27858550944739
  H   0.82849959522150     -1.36290773272553      1.11967008545631
  N   1.65313888817109     -0.18214413554144     -0.39659242625197
  O   1.62348633685602     -1.15436691740326     -1.14906206328948
  O   2.28974318449590      0.84591892672510     -0.55449861346880
  N   -1.19740399984892     -1.14844742982287     -0.40431548721299
  H   -2.17581379343424     -1.02687977634868     -0.62950362411554
  H   -0.66005907265870     -1.27126931041538     -1.25264199280687
  N   -0.77457537151701      1.29034805184982     -0.31462633246270
  O   -1.08528170798639      2.25633597548402      0.37435601111393
  O   -0.51359649168738      1.29735770876538     -1.51528324919431
