16

C	-0.355053	-0.032558	-1.50681
C	0.0	0.0	0.0
F	-0.016529	1.258057	-1.982661
H	1.097552	0.0	0.0
N	0.443985	-1.041556	-2.087112
H	0.336161	-1.052183	-3.093748
H	1.423806	-0.903832	-1.840561
C	-1.826706	-0.211991	-1.804583
H	-2.178278	-1.172371	-1.427107
H	-1.981819	-0.172625	-2.886196
H	-2.399227	0.59732	-1.347719
C	-0.482208	-1.204786	0.66985
N	-0.900535	-2.16079	1.208727
C	-0.530281	1.191331	0.65396
N	-0.992239	2.137065	1.174434
Cl	3.220103	0.0	0.0
