18

C	-0.606154	-0.016331	-1.408137
C	0.0	0.0	0.0
Cl	0.10056	-1.344488	-2.374271
H	1.095445	0.0	0.0
C	-2.110009	-0.133402	-1.413502
H	-2.534223	0.722928	-0.889314
H	-2.488201	-0.139491	-2.434445
H	-2.389856	-1.050929	-0.899858
N	-0.189569	1.278152	-2.099533
O	0.998559	1.555979	-2.075956
O	-1.075049	1.941511	-2.637586
N	-0.496229	-1.180118	0.732492
H	0.001782	-1.16769	1.619275
H	-0.146888	-2.006779	0.253512
N	-0.454058	1.22398	0.637483
H	-1.233033	1.017789	1.252963
H	0.308639	1.624062	1.16967
Br	3.631302	0.0	0.0
