18

C	-0.428575	-0.01739	-1.470664
C	0.0	0.0	0.0
Cl	-2.199549	0.210899	-1.614705
H	1.096989	0.0	0.0
C	0.309324	1.040232	-2.259706
H	1.383335	0.846944	-2.168713
H	-0.001368	1.017955	-3.303932
H	0.089053	2.00681	-1.811819
N	-0.12073	-1.351422	-2.153808
O	-0.47879	-1.467869	-3.321336
O	0.51157	-2.195512	-1.526664
N	-0.596052	-1.085917	0.776389
H	-0.283651	-0.940811	1.731652
H	-0.171497	-1.955349	0.473275
N	-0.393588	1.28964	0.541759
H	-1.305542	1.198581	0.975778
H	0.289685	1.57084	1.233141
Br	3.576524	0.0	0.0
