18

C	-0.600358	0.029073	-1.413806
C	0.0	0.0	0.0
Cl	0.258894	-1.135098	-2.444185
H	1.094878	0.0	0.0
C	-2.082351	-0.256274	-1.433174
H	-2.592908	0.483298	-0.813594
H	-2.466009	-0.217986	-2.449871
H	-2.230636	-1.252834	-1.021077
N	-0.355158	1.387837	-2.066851
O	0.584175	2.059083	-1.654478
O	-1.0948	1.707358	-2.99504
N	-0.404354	-1.252698	0.61614
H	-1.223171	-1.10507	1.193506
H	0.358003	-1.595906	1.184273
N	-0.546518	1.144391	0.753935
H	-0.272554	0.985513	1.71916
H	-0.028415	1.967696	0.461994
Br	3.598137	0.0	0.0
