18

C	-0.478058	0.067783	-1.452764
C	0.0	0.0	0.0
Cl	-2.244802	0.368151	-1.494432
H	1.093187	0.0	0.0
C	0.249837	1.127723	-2.245871
H	1.322745	0.961836	-2.137564
H	-0.004963	2.098327	-1.825247
H	-0.040088	1.089116	-3.298896
N	-0.206121	-1.29712	-2.08232
O	0.983809	-1.528825	-2.248323
O	-1.129219	-2.048211	-2.364837
N	-0.441268	-1.247433	0.593644
H	0.157764	-1.471199	1.376303
H	-1.399355	-1.180274	0.911999
N	-0.36454	1.251479	0.660432
H	-1.297281	1.193161	1.053137
H	0.298583	1.416681	1.407651
Br	3.570801	0.0	0.0
