18

C	-0.48576	0.058894	-1.450848
C	0.0	0.0	0.0
Cl	-2.253287	0.372713	-1.485634
H	1.093217	0.0	0.0
C	0.24557	1.103568	-2.258406
H	-0.060701	1.071354	-3.306901
H	0.014414	2.078181	-1.832346
H	1.317487	0.917877	-2.165767
N	-0.23941	-1.314252	-2.07397
O	0.944429	-1.560109	-2.272287
O	-1.1793	-2.062584	-2.314821
N	-0.439478	-1.238967	0.611865
H	-1.390404	-1.163819	0.952767
H	0.177805	-1.465459	1.380507
N	-0.3561	1.26222	0.643191
H	-1.277498	1.207833	1.060256
H	0.326075	1.451396	1.366371
Br	3.571987	0.0	0.0
