18

C	-0.409757	-0.018742	-1.477494
C	0.0	0.0	0.0
Cl	-0.251711	1.584256	-2.238045
H	1.095145	0.0	0.0
C	0.406022	-1.023429	-2.257085
H	0.213014	-2.017351	-1.854387
H	0.153302	-0.99	-3.315338
H	1.459881	-0.778356	-2.104607
N	-1.893892	-0.361291	-1.595865
O	-2.624472	-0.059988	-0.651769
O	-2.284538	-0.886924	-2.633224
N	-0.383023	-1.314907	0.537061
H	-1.260893	-1.239332	1.035636
H	0.337404	-1.614077	1.183094
N	-0.430587	1.176763	0.716954
H	-1.387767	1.082995	1.027078
H	0.182625	1.314245	1.508784
Br	3.55725	0.0	0.0
