18

C	-0.418145	-0.050961	-1.478827
C	0.0	0.0	0.0
Cl	0.243205	1.358803	-2.335903
H	1.099866	0.0	0.0
C	0.070127	-1.310367	-2.152155
H	-0.220736	-1.319326	-3.203682
H	-0.33828	-2.172086	-1.632499
H	1.159043	-1.318414	-2.072944
N	-1.941011	0.033399	-1.539548
O	-2.483631	1.120284	-1.69553
O	-2.532446	-1.030297	-1.353233
N	-0.40966	-1.212904	0.67605
H	0.284682	-1.44729	1.373619
H	-1.307036	-1.05965	1.120479
N	-0.586233	1.175302	0.65141
H	-0.376095	2.006144	0.108211
H	-0.087303	1.28578	1.529246
Br	3.557212	0.0	0.0
