13

C	-0.588191	-0.021467	-1.396548
C	0.0	0.0	0.0
F	-0.442211	1.199372	-2.033879
H	1.08975	0.0	0.0
H	-1.65861	-0.245415	-1.341964
H	-0.06638	-0.787688	-1.970924
N	-0.459453	-1.166391	0.691873
H	-1.393778	-1.013956	1.049528
H	0.172556	-1.377494	1.451738
N	-0.498151	1.282593	0.649668
O	-1.662867	1.260151	1.069119
O	0.238514	2.258311	0.680756
Cl	3.389975	0.0	0.0
