13

C	-0.546232	-0.03768	-1.410614
C	0.0	0.0	0.0
F	-0.207505	1.10683	-2.114487
H	1.089408	0.0	0.0
H	-0.119094	-0.903813	-1.923233
H	-1.639907	-0.101629	-1.387234
N	-0.47321	-1.090455	0.807097
H	0.204066	-1.840201	0.810456
H	-1.388614	-1.417338	0.525014
N	-0.5132	1.269221	0.637723
O	-1.741965	1.358141	0.722156
O	0.283837	2.107034	1.037621
Cl	3.365349	0.0	0.0
