13

C	-0.550464	0.028375	-1.418144
C	0.0	0.0	0.0
F	-0.247935	-1.146077	-2.073524
H	1.090799	0.0	0.0
H	-1.643983	0.127284	-1.393797
H	-0.108947	0.859383	-1.967783
N	-0.497345	-1.084751	0.76248
H	0.095265	-1.236829	1.566108
H	-1.443605	-0.912308	1.074262
N	-0.415679	1.367032	0.568351
O	0.068889	2.363993	0.041112
O	-1.250048	1.391504	1.475748
Cl	3.389644	0.0	0.0
