13

C	-0.571435	0.046779	-1.409555
C	0.0	0.0	0.0
F	-0.325177	-1.146755	-2.056494
H	1.090794	0.0	0.0
H	-0.107534	0.851436	-1.97606
H	-1.659602	0.188941	-1.373513
N	-0.474456	-1.103266	0.755374
H	-1.390425	-0.9224	1.142345
H	0.167876	-1.295293	1.511684
N	-0.385476	1.349708	0.623062
O	-0.932589	1.351031	1.727291
O	-0.132974	2.360508	-0.02971
Cl	3.335217	0.0	0.0
