13

C	-0.4416	0.001543	-1.44175
C	0.0	0.0	0.0
F	-1.83121	-0.191285	-1.518462
H	1.091533	0.0	0.0
H	-0.20267	0.940325	-1.936091
H	0.035688	-0.836066	-1.952655
N	-0.468709	-1.101039	0.765123
H	0.274555	-1.758363	0.937731
H	-1.286603	-1.539076	0.371574
N	-0.457205	1.323176	0.613978
O	-1.131819	1.316725	1.638263
O	-0.104789	2.336745	0.010026
Cl	3.327539	0.0	0.0
