13

C	-0.503932	0.105156	-1.411331
C	0.0	0.0	0.0
F	-1.907003	0.082032	-1.412549
H	1.091602	0.0	0.0
H	-0.152661	-0.76239	-1.96842
H	-0.18181	1.031723	-1.88073
N	-0.48403	-1.165883	0.651244
H	-1.46939	-1.081307	0.859772
H	0.02519	-1.315246	1.510378
N	-0.394235	1.296892	0.728969
O	-0.904881	1.199108	1.844791
O	-0.145346	2.357783	0.164541
Cl	3.331547	0.0	0.0
