13

C	-0.495728	-0.006664	-1.417973
C	0.0	0.0	0.0
F	-1.898872	-0.034983	-1.425856
H	1.09289	0.0	0.0
H	-0.173453	0.88198	-1.955389
H	-0.137057	-0.91303	-1.90422
N	-0.486377	-1.111904	0.737222
H	-1.473492	-1.014282	0.928037
H	0.015135	-1.191879	1.609383
N	-0.40488	1.347459	0.61987
O	-0.945915	1.334064	1.72589
O	-0.147834	2.363226	-0.018341
Cl	3.330572	0.0	0.0
