13

C	-0.447157	0.016182	-1.450387
C	0.0	0.0	0.0
F	-0.164594	-1.224487	-2.033434
H	1.093087	0.0	0.0
H	0.176885	0.75024	-1.971689
H	-0.2956	0.950357	0.463372
C	-1.922009	0.282083	-1.678203
H	-2.195312	1.269874	-1.296961
H	-2.158833	0.239663	-2.745219
H	-2.517014	-0.472444	-1.157613
C	-0.611255	-1.084866	0.742177
N	-1.12037	-1.959751	1.341004
F	2.590858	0.0	0.0
