13

C	-0.271121	0.046108	-1.488825
C	0.0	0.0	0.0
F	-1.627553	0.304448	-1.785861
H	1.093913	0.0	0.0
H	-0.050224	-0.936811	-1.917724
H	-0.3432	0.929488	0.466196
C	0.611508	1.100206	-2.119773
H	0.566517	1.064582	-3.209984
H	1.625499	0.910548	-1.750224
H	0.290684	2.093055	-1.788133
C	-0.60165	-1.1376	0.665633
N	-1.090168	-2.061992	1.203062
F	2.639429	0.0	0.0
