13

C	0.0	0.0	0.0
C	-0.506384	-0.050701	-1.434613
Br	1.978536	0.0	0.0
H	-1.616433	-0.092129	-1.283118
H	-0.276652	0.993792	0.359069
H	-0.203393	0.820597	-2.013183
N	-0.520843	-0.961631	0.912661
H	-1.539833	-0.749188	0.88048
H	-0.411253	-1.879031	0.493678
N	-0.062112	-1.223617	-2.199954
O	-0.184184	-2.339826	-1.685805
O	0.386803	-1.035795	-3.335315
H	-2.969578	0.0	0.0
