11
Coordinates from ORCA-job run
  C   -0.80383961980427     -0.00059407952578     -0.27769588848171
  C   0.35360404337179     -0.01839463153741      0.40306663785818
  H   -0.79672705163157     -0.09539635950465     -1.36233973575746
  H   0.32816483561837      0.06840144210984      1.48971180088998
  N   -2.09144089512070      0.02665365197278      0.27545979594806
  H   -2.74303048459798      0.57826893701309     -0.26204264075695
  H   -2.09611441603417      0.31475403101384      1.24357034548922
  C   1.69461338379093     -0.18495148410418     -0.24785080074848
  H   2.36242885718549      0.65043400434561     -0.01584622567029
  H   2.19577694910510     -1.09875278289027      0.08689274267515
  H   1.59656439811700     -0.24142272889287     -1.33492603144570
