11
Coordinates from ORCA-job run
  C   -0.97592534171757     -0.52152421990191      0.18184035324348
  C   0.32377753962480     -0.85601741313255      0.09582988750967
  H   -1.73152501834757     -1.28425509582764      0.34937180310384
  H   0.58656704630627     -1.90369751410122      0.18881185328497
  N   -1.47085626251158      0.78640266505679      0.17441757698864
  H   -2.41072184622234      0.86222464962284     -0.18110939816702
  H   -0.85824314845379      1.45154292388734     -0.27390053590313
  C   1.41453657544613      0.16158031470057     -0.09524052377721
  H   1.30584309122010      0.70833778159095     -1.04018278330297
  H   1.41854779100948      0.90460468778833      0.70997041610490
  H   2.39799957364607     -0.30919877968349     -0.11080864908517
