11
Coordinates from ORCA-job run
  C   -0.93381804599522     -0.53528419225579      0.31401440206839
  C   0.28028317010338     -0.86024106718137     -0.16442643865223
  H   -1.67360770902471     -1.30668341987716      0.50998442909950
  H   0.48770127453856     -1.90723802813524     -0.35459393697326
  N   -1.32860801649034      0.75044481823382      0.69728056858035
  H   -2.31988528330317      0.91181079640264      0.61473102417445
  H   -0.80226501994110      1.48772864255022      0.25223245011418
  C   1.35620794432009      0.15992920032971     -0.41610016302580
  H   1.05521637297363      0.89775562411595     -1.17017201580025
  H   2.27131820543150     -0.31020696167734     -0.77742872531425
  H   1.60845710738736      0.71298458749454      0.49547840572893
