11
Coordinates from ORCA-job run
  C   -0.98982589782128     -0.50702101705908     -0.14280680857148
  C   0.26477681515265     -0.63627199983908     -0.60958662131832
  H   -1.78038411389636     -1.16052972588109     -0.50155010564048
  H   0.45412675505221     -1.40004766286060     -1.35529772492767
  N   -1.38069246913134      0.36163129171142      0.88077594287498
  H   -0.76767117208158      1.15457240495148      0.99908086245897
  H   -2.34355137844303      0.65261465035152      0.82101508058767
  C   1.40610721311683      0.21266078494899     -0.12106333403070
  H   1.54878323294194      0.11336697113852      0.96069587856675
  H   2.34346637379847     -0.06850206926575     -0.60201334631410
  H   1.24486464131149      1.27752637180368     -0.33024982368561
