11
Coordinates from ORCA-job run
  C   -0.97054369331193     -0.51337163827390      0.22661049472926
  C   0.33422566172322     -0.83657680232674      0.18533674133597
  H   -1.71685617964625     -1.26589020866575      0.46635043351236
  H   0.60938159818424     -1.86547430353225      0.38795028690726
  N   -1.48293503130906      0.77968034661237      0.08114529469025
  H   -0.87609426730265      1.40379865052230     -0.42964207970097
  H   -2.42094558522670      0.80453042459228     -0.28635376042044
  C   1.41376091880821      0.17078255587412     -0.10047250880430
  H   2.40277811380570     -0.28689997455479     -0.06371367548722
  H   1.40283177516754      0.99033348558985      0.62661512359155
  H   1.30439668910768      0.61908746416252     -1.09582635035373
