11
Coordinates from ORCA-job run
  C   -0.78283601629147      0.16286735303824     -0.28998585723911
  C   0.35189125878418     -0.02086595621146      0.40426164858103
  H   -0.76503899656423      0.12689620762204     -1.37803080608395
  H   0.31770575859426      0.02616870781687      1.49311109817417
  N   -2.03210925894248      0.51313171919443      0.24036787605081
  H   -2.80442298234895      0.07666123707180     -0.24001370542955
  H   -2.09506328608635      0.35033587553647      1.23524317018726
  C   1.68602409271022     -0.26115595867500     -0.23764570354512
  H   2.13481480866576     -1.19933049806593      0.10290626608077
  H   2.39672732633160      0.53792547789194     -0.00382201561484
  H   1.59230729514745     -0.31163416521940     -1.32539197116147
