11
Coordinates from ORCA-job run
  C   -0.82186972047833     -0.05266168166562     -0.21185279220692
  C   0.38816121005290      0.19428337702926      0.31564407908356
  H   -0.90223427405037     -0.58033978351755     -1.16084735335477
  H   0.45160920513769      0.73160112909164      1.26234747140286
  N   -2.05196775277490      0.39469162609151      0.28850454495618
  H   -2.79753256656306     -0.27428451961918      0.16913625009677
  H   -1.99751293463939      0.69929997668065      1.24996431486283
  C   1.67556083326522     -0.19956765639847     -0.34554967442249
  H   2.28554300611949      0.67427995859709     -0.59577508118351
  H   1.48658999346693     -0.74668176153356     -1.27265710585881
  H   2.28265300046383     -0.83962066475578      0.30208534662431
