11
Coordinates from ORCA-job run
  C   -0.80406554957159      0.01595920881714     -0.27595427824093
  C   0.35419847624494     -0.01716669832810      0.40282013909629
  H   -0.80228604519296     -0.10739380219713     -1.35774584947261
  H   0.33425815911490      0.09913005510491      1.48682151499006
  N   -2.08846430863742      0.09704416214594      0.27845549091336
  H   -2.08265278037355      0.40961236741326      1.23888471505817
  H   -2.72568995595580      0.65224118937335     -0.27231229882365
  C   1.68773257489168     -0.24219336151218     -0.24582677978055
  H   2.16136668217410     -1.16199233879207      0.11186263064729
  H   1.58496049816404     -0.32417113702109     -1.33085599750738
  H   2.38164224914165      0.57793035499597     -0.03714928688004
