19

C	-0.505034	-0.0086	-1.4413
C	0.0	0.0	0.0
Br	0.403684	1.419814	-2.485392
H	1.096065	0.0	0.0
C	-0.148088	-1.259817	-2.111905
N	0.071846	-2.288515	-2.640327
C	-2.008377	0.22081	-1.608389
H	-2.554193	-0.548175	-1.053112
H	-2.298908	0.17059	-2.65968
H	-2.278238	1.202236	-1.215929
C	-0.408463	-1.27393	0.737154
H	-1.494498	-1.395253	0.858651
H	-0.005289	-2.161413	0.244631
H	0.040749	-1.235179	1.733643
C	-0.460773	1.231925	0.767901
H	0.141829	1.296177	1.677329
H	-0.277083	2.148951	0.201955
H	-1.520662	1.201506	1.05696
F	2.635366	0.0	0.0
