16

C	0.0	0.0	0.0
C	-0.548421	-0.050117	-1.408827
F	1.42084	0.0	0.0
H	-1.632829	-0.160322	-1.23971
H	-0.318131	-0.885149	0.555066
N	-0.438524	1.166355	0.685419
H	-0.346114	1.065691	1.685656
H	0.094105	1.96591	0.37121
C	0.008049	-1.23143	-2.185258
H	1.089541	-1.137699	-2.326799
H	-0.189065	-2.170671	-1.657673
H	-0.469247	-1.275628	-3.165634
N	-0.344446	1.191445	-2.16229
H	0.603868	1.526524	-2.016967
H	-0.989306	1.881437	-1.7917
H	-3.639384	0.0	0.0
