16

C	0.0	0.0	0.0
C	-0.499379	0.017747	-1.439716
F	1.412314	0.0	0.0
H	0.263142	-0.531448	-2.012408
H	-0.300552	-0.949306	0.446104
N	-0.5018	1.062281	0.783011
H	-0.134791	1.954076	0.478414
H	-0.322063	0.924083	1.766209
C	-0.576468	1.442894	-1.99923
H	-1.378625	1.99067	-1.500143
H	-0.808402	1.403587	-3.067446
H	0.376144	1.979118	-1.891409
N	-1.738244	-0.742726	-1.483315
H	-2.478583	-0.370379	-0.846847
H	-2.142406	-0.672841	-2.411523
H	-4.085748	0.0	0.0
