15
Coordinates from ORCA-job run
  C   -0.42063915857664     -0.37037512578121     -0.13203898198063
  C   1.07324687295823     -0.11503954353250     -0.29918195906503
  Cl  -1.18128810039401     -0.27001391328773     -1.77213226249263
  H   1.53240034935210     -0.25754584521880      0.68676571189818
  H   1.45760320614115     -0.90002961016602     -0.96263219925652
  N   -0.58536045357471     -1.74494232774158      0.30517454057611
  H   -0.21423109990106     -1.82965735315598      1.24659025045208
  H   -1.57246059318931     -1.97506096435661      0.34213928776904
  C   -1.09603225520499      0.66954168295865      0.74579211678098
  H   -2.16512918765297      0.46011354513867      0.82371009808418
  H   -0.94580082870073      1.67328239629238      0.35270540346963
  H   -0.65596849402017      0.62310378571654      1.74753882526799
  N   1.34337828739669      1.24988926335438     -0.73005361429735
  H   2.33326863831396      1.44285083022727     -0.64750549019885
  H   1.09701281705246      1.34488317955254     -1.70787172700717
