15
Coordinates from ORCA-job run
  C   -0.45340283926896     -0.36229903901906     -0.09445259079025
  C   1.05532007817815     -0.18074545855120     -0.34043208107793
  Cl  -1.25714212942721     -0.32029607184661     -1.71762809261216
  H   1.38752096403709     -1.01760223329864     -0.96403347683791
  H   1.54385062036051     -0.29493960197171      0.63518153792690
  N   -0.77963531167768     -1.64148709890862      0.49570524492216
  H   -0.45297566508982     -1.66190913324963      1.45577514655848
  H   -0.32474775633152     -2.39088152184988     -0.01465066962267
  C   -1.04835103351456      0.74220192797320      0.75520378287846
  H   -0.54905698162629      0.76720137680579      1.73003387198157
  H   -0.93059211598594      1.71452551842340      0.27783468182041
  H   -2.11079558552492      0.55258504736641      0.90746646735492
  N   1.52439848883778      1.04997013671543     -0.94385643221366
  H   1.06481530131601      1.19869432369884     -1.83312598758832
  H   1.32879396571736      1.84398182771227     -0.34902140270001
