16

C	-0.470744	0.145674	-1.457722
C	0.0	0.0	0.0
F	-1.801408	0.450473	-1.488937
H	1.095101	0.0	0.0
C	0.334239	1.163625	-2.218076
H	1.395528	0.924425	-2.134685
H	0.017729	1.173505	-3.263252
H	0.151824	2.14714	-1.780633
N	-0.330063	-1.218384	-2.127443
O	0.819339	-1.581575	-2.345077
O	-1.359465	-1.834331	-2.381318
C	-0.522867	-1.206879	0.635176
N	-0.940386	-2.181883	1.139681
C	-0.429571	1.187169	0.740914
N	-0.766318	2.153062	1.317502
Br	3.332259	0.0	0.0
