16

C	-0.473295	0.107957	-1.460291
C	0.0	0.0	0.0
F	-1.798468	0.43205	-1.497976
H	1.095034	0.0	0.0
C	0.344381	1.087791	-2.256121
H	0.021818	1.066886	-3.299587
H	0.179767	2.088456	-1.850759
H	1.402613	0.834903	-2.167692
N	-0.354686	-1.27443	-2.093112
O	-1.391507	-1.83991	-2.419785
O	0.786371	-1.697085	-2.221624
C	-0.524117	-1.190814	0.664439
N	-0.943509	-2.153111	1.191196
C	-0.429166	1.205791	0.710872
N	-0.765307	2.185735	1.263767
Br	3.334214	0.0	0.0
