16

C	-0.471511	0.092838	-1.459115
C	0.0	0.0	0.0
F	-1.821299	0.313856	-1.492935
H	1.095073	0.0	0.0
C	0.261228	1.150675	-2.243023
H	-0.056365	1.104944	-3.286389
H	1.339199	0.989891	-2.159367
H	0.002635	2.133288	-1.835906
N	-0.245509	-1.269349	-2.115727
O	0.91487	-1.534762	-2.40603
O	-1.230347	-1.982481	-2.291095
C	-0.518064	-1.190829	0.669426
N	-0.934354	-2.149114	1.206037
C	-0.436716	1.206415	0.70385
N	-0.778849	2.187507	1.250633
Br	3.323044	0.0	0.0
