16

C	-0.323583	0.145453	-1.489038
C	0.0	0.0	0.0
F	0.190674	1.331471	-1.904501
H	1.106961	0.0	0.0
C	0.225445	-0.983731	-2.319318
H	-0.246835	-1.92859	-2.046654
H	0.044137	-0.765304	-3.373491
H	1.300389	-1.036895	-2.126606
N	-1.831922	0.247689	-1.728487
O	-2.549708	-0.45669	-1.025425
O	-2.201822	0.979489	-2.638324
C	-0.42065	-1.276271	0.569572
N	-0.697032	-2.313685	1.045255
C	-0.514067	1.127943	0.768859
N	-0.938919	2.038873	1.375919
Br	3.312009	0.0	0.0
