16

C	-0.456004	0.067531	-1.464852
C	0.0	0.0	0.0
F	-1.811171	0.24911	-1.5244
H	1.106712	0.0	0.0
C	0.261813	1.142047	-2.232884
H	-0.040239	2.111883	-1.832531
H	-0.015106	1.086624	-3.28688
H	1.339051	1.017934	-2.116724
N	-0.194811	-1.297346	-2.1018
O	-1.106873	-2.116226	-2.040522
O	0.907677	-1.464091	-2.609105
C	-0.508069	-1.169504	0.712012
N	-0.895196	-2.101654	1.31242
C	-0.436204	1.222104	0.67511
N	-0.7802	2.212416	1.203948
Br	3.311947	0.0	0.0
