16

C	-0.45428	0.0683	-1.467851
C	0.0	0.0	0.0
F	-1.776984	0.39887	-1.539848
H	1.106641	0.0	0.0
C	0.383713	1.01862	-2.279275
H	0.057811	0.984961	-3.320926
H	0.245824	2.027996	-1.892004
H	1.435812	0.745085	-2.18185
N	-0.330017	-1.317861	-2.086637
O	0.674051	-1.951587	-1.787812
O	-1.209095	-1.654465	-2.871723
C	-0.54153	-1.162157	0.698458
N	-1.007469	-2.085744	1.253637
C	-0.430248	1.230758	0.664574
N	-0.769469	2.229952	1.18086
Br	3.339726	0.0	0.0
