16

C	-0.45945	0.140565	-1.461452
C	0.0	0.0	0.0
F	-1.80222	0.390897	-1.50601
H	1.106719	0.0	0.0
C	0.310362	1.201555	-2.200288
H	1.380776	1.012376	-2.100847
H	0.07009	2.172252	-1.761489
H	0.014745	1.202324	-3.251496
N	-0.259358	-1.211571	-2.142758
O	0.88622	-1.470931	-2.490645
O	-1.249005	-1.924408	-2.274333
C	-0.527064	-1.202676	0.639997
N	-0.967712	-2.165881	1.148458
C	-0.43484	1.188875	0.731143
N	-0.784874	2.159635	1.292579
Br	3.323612	0.0	0.0
