19

C	-0.176354	0.02139	-1.519621
C	0.0	0.0	0.0
F	-1.544057	0.08173	-1.889536
H	1.097256	0.0	0.0
C	0.532296	1.245334	-2.073037
H	0.009286	2.162213	-1.792679
H	1.539351	1.23517	-1.644401
H	0.578141	1.197089	-3.164372
C	0.434485	-1.23903	-2.100385
H	-0.111475	-2.124296	-1.765273
H	0.417735	-1.205142	-3.193804
H	1.463663	-1.278898	-1.730635
C	-0.546502	-1.211829	0.58472
N	-1.004653	-2.173213	1.085084
C	-0.533847	1.235376	0.723395
H	-1.574922	1.447798	0.456406
H	0.085823	2.100618	0.480061
H	-0.476069	1.088699	1.805162
F	2.650471	0.0	0.0
