18

C	0.0	0.0	0.0
C	-0.399025	-0.130154	-1.522401
Br	1.974163	0.0	0.0
H	0.521176	-0.003683	-2.097999
C	-0.396408	1.351934	0.586697
H	0.009004	2.185056	0.008452
H	-1.488673	1.398102	0.589923
H	-0.023884	1.425022	1.612631
N	-0.482165	-1.127766	0.746822
H	-0.264518	-0.974031	1.727017
H	-1.505857	-1.081918	0.661229
C	-1.245837	0.968499	-2.007311
N	-1.782762	1.845073	-2.576692
C	-0.980976	-1.491815	-1.912653
H	-1.094458	-1.527374	-2.999962
H	-1.958533	-1.631573	-1.454524
H	-0.301583	-2.283233	-1.593901
Cl	-3.577555	0.0	0.0
