18

C	0.0	0.0	0.0
C	-0.376173	-0.233683	-1.481096
Br	2.036464	0.0	0.0
H	0.186571	-1.113704	-1.818404
C	-0.471476	1.328463	0.550855
H	-1.565134	1.328576	0.560384
H	-0.109005	1.459212	1.573113
H	-0.101429	2.157382	-0.052173
N	-0.49632	-1.061526	0.773528
H	-0.148892	-1.967034	0.491629
H	-0.376627	-0.921898	1.766118
C	0.078342	0.88787	-2.306779
N	0.402376	1.781327	-2.996995
C	-1.875507	-0.491707	-1.680537
H	-2.519906	0.256904	-1.225047
H	-2.085376	-0.529619	-2.752758
H	-2.160573	-1.435349	-1.222317
Cl	-4.823315	0.0	0.0
