18

C	0.0	0.0	0.0
C	-0.272569	0.146984	-1.54437
Br	1.981082	0.0	0.0
H	0.309865	-0.656783	-2.009927
C	-0.540192	1.165368	0.796905
H	-0.279356	1.04021	1.849154
H	-1.632437	1.167777	0.700092
H	-0.141936	2.113428	0.434621
N	-0.482967	-1.226147	0.551084
H	-1.483015	-1.140522	0.728904
H	-0.331976	-2.001823	-0.083886
C	0.286788	1.399961	-2.058072
N	0.675486	2.411157	-2.513676
C	-1.748181	0.017441	-1.963351
H	-1.880448	-0.84092	-2.623815
H	-2.431914	-0.108476	-1.123063
H	-2.094735	0.905721	-2.492325
Cl	-4.427126	0.0	0.0
