18

C	0.0	0.0	0.0
C	-0.359861	-0.360514	-1.517672
Br	1.97814	0.0	0.0
H	0.576939	-0.51496	-2.057428
C	-0.434509	1.404797	0.386572
H	-0.007665	2.154944	-0.279317
H	-1.526729	1.447874	0.333688
H	-0.109575	1.597926	1.410171
N	-0.485519	-0.902929	0.994975
H	-1.500068	-0.760453	1.038126
H	-0.314692	-1.86512	0.729734
C	-0.996042	0.757379	-2.219187
N	-1.423983	1.633643	-2.874854
C	-1.191821	-1.635934	-1.681403
H	-1.386991	-1.800025	-2.744844
H	-0.639279	-2.501794	-1.3076
H	-2.144086	-1.532696	-1.163508
Cl	-3.705672	0.0	0.0
