18

C	0.0	0.0	0.0
C	-0.260549	-0.258885	-1.530981
Br	1.967681	0.0	0.0
H	0.343058	-1.141038	-1.766728
C	-0.521072	1.340784	0.477888
H	-1.615029	1.306483	0.412246
H	-0.135111	2.171101	-0.116729
H	-0.237946	1.496692	1.523189
N	-0.500187	-1.137642	0.730108
H	-0.337224	-0.983086	1.720067
H	-1.515298	-1.126811	0.604375
C	0.273333	0.85154	-2.328346
N	0.660859	1.738851	-2.993603
C	-1.6941	-0.531652	-1.991818
H	-2.368171	0.2962	-1.79404
H	-1.671985	-0.729934	-3.067836
H	-2.115652	-1.399353	-1.489599
Cl	-4.167934	0.0	0.0
