19

C	0.0	0.0	0.0
C	-0.422683	-0.063312	-1.489316
F	1.371907	0.0	0.0
H	0.064582	-1.000377	-1.795364
N	-0.34991	1.331259	0.672685
O	0.071772	2.346467	0.122108
O	-0.957345	1.308723	1.738285
C	-0.550651	-1.128274	0.823676
H	-0.106394	-1.121405	1.819398
H	-0.309339	-2.069674	0.325229
H	-1.633663	-1.021361	0.913166
C	0.159925	1.047475	-2.360449
H	-0.40939	1.969465	-2.23981
H	1.20577	1.253455	-2.132321
H	0.067122	0.725784	-3.400051
N	-1.827389	-0.196197	-1.773867
H	-2.244264	-1.013356	-1.346632
H	-2.382571	0.567699	-1.402895
Cl	-4.454991	0.0	0.0
