19
Coordinates from ORCA-job run
  C   -0.81751662086840     -0.12879290776167     -0.18445021552440
  C   0.70663606619595     -0.09829111363315      0.00934974216736
  Br  -1.70392761794463     -0.72606035913384      1.48682717143700
  H   1.08946999994058      0.13931484717411     -0.99732336123771
  C   -1.39948144991760      1.24457233436587     -0.50384411509567
  H   -0.89635674046605      1.64310564763934     -1.39289227356704
  H   -1.28018044742742      1.95265695141261      0.31590097950169
  H   -2.46599859245340      1.15451699789400     -0.72144656930217
  N   -1.13569664580932     -1.13786376884424     -1.17826882551549
  H   -2.13673875488765     -1.16457867827341     -1.33895498486787
  H   -0.68187803612844     -0.88594447345830     -2.05189634268949
  C   1.28264760128956     -1.45222213198826      0.41916017505616
  H   2.36760503960336     -1.44829080627619      0.28212378591137
  H   0.85313064581368     -2.25929380721425     -0.17323014849443
  H   1.07741075364057     -1.65188603436607      1.47292126599997
  C   1.18443140066408      1.00095470377662      0.95431966523592
  H   0.95896088492085      2.00258776764332      0.58413964819693
  H   2.26833862852391      0.93227192000449      1.07660170785794
  H   0.72914388531035      0.88424291103901      1.94096269492992
