19
Coordinates from ORCA-job run
  C   -0.98128442367571     -0.11139532610300      0.08433309297794
  C   0.46487141390643     -0.34988272504879      0.57463222087138
  Br  -2.10292892404379      0.16998227981017      1.71282709172364
  H   0.40124943295743     -1.16150152498324      1.31150662272701
  C   -1.14544824746862      1.12281268159455     -0.78558709169647
  H   -2.18784472137653      1.20467206851992     -1.09464475541848
  H   -0.86418371398910      2.03073565947929     -0.25448611972950
  H   -0.52246826623649      1.03465364045174     -1.68213516579294
  N   -1.57899076625578     -1.23520728802586     -0.59475687212774
  H   -1.37784248475659     -2.10326987976893     -0.11141960866221
  H   -1.23046394126010     -1.29452024569729     -1.54435391746818
  C   1.10080567353249      0.86312705079103      1.25071281766314
  H   1.31818675074114      1.64907050946574      0.52231602441828
  H   0.46076372775009      1.27773809167037      2.02971103771330
  H   2.04912544867147      0.57517872635004      1.71223614561521
  C   1.36467516201508     -0.82812943639544     -0.56953099199820
  H   1.45474078543838     -0.07154687370071     -1.35399029723829
  H   1.00654114250704     -1.75489832716597     -1.02063325027010
  H   2.37049595154315     -1.01861908124362     -0.18673698330777
