19
Coordinates from ORCA-job run
  C   -0.93250544003075     -0.14369377370867      0.08964362767002
  C   0.49118777300319     -0.35120676025911      0.63339005716518
  Br  -2.13904773778820      0.16554924361312      1.63262581021450
  H   0.39371882692810     -1.10857001873858      1.41840514239418
  C   -1.07928591227593      1.07041356800674     -0.82154495689530
  H   -2.10660892836899      1.13736899542282     -1.18532491850176
  H   -0.41749120912573      0.95754782256339     -1.68699729941651
  H   -0.83514835619909      2.00436344631195     -0.31455594086411
  N   -1.39874354130163     -1.38796017527340     -0.50783994040231
  H   -2.39595833762545     -1.32506883304035     -0.68339721584519
  H   -0.94231821115675     -1.50300754569370     -1.40809455747163
  C   1.10182569691635      0.91384349786367      1.23101364823045
  H   0.43157592900642      1.39185814395404      1.94721093792097
  H   2.02742927307937      0.66310078939634      1.75557324516090
  H   1.35450420254034      1.63926859662531      0.45277332551114
  C   1.42117732244159     -0.92262987657091     -0.44211409336941
  H   1.49776462125432     -0.26155889837458     -1.31082154309822
  H   2.42794140772327     -1.02865420925209     -0.03013812548638
  H   1.09998262097957     -1.91196401284599     -0.77080720291650
