19
Coordinates from ORCA-job run
  C   -0.94379001124202     -0.10462870824981     -0.09193942697157
  C   0.40747418862629     -0.08036195630496      0.66029324937084
  Br  -2.21529285538184     -1.13167186564702      1.05280396577747
  H   0.19308185683887      0.26932877015192      1.67686898337428
  C   -1.54807277638605      1.28057236262493     -0.25445240345401
  H   -0.95595048418996      1.86689792371727     -0.96352668467333
  H   -1.57479704280899      1.80980481024791      0.69958720109755
  H   -2.56137806869741      1.19295892350267     -0.64540120166029
  N   -0.94794492649611     -0.75740560575255     -1.37784442726258
  H   -0.51455467944872     -1.67098057207024     -1.33616006412660
  H   -0.46625955781527     -0.18592882349825     -2.06226382395037
  C   1.38015590425510      0.90800367854443      0.00936255791528
  H   1.04462870625442      1.94259851616365      0.09340963579071
  H   1.53079794116975      0.67686081721747     -1.04988191453865
  H   2.35611752919887      0.83886178558830      0.49639624782371
  C   1.06674045264422     -1.45478245581374      0.75264006911691
  H   0.38456097051798     -2.21227642804975      1.14054100114584
  H   1.43690572833962     -1.78120169374320     -0.22394016523847
  H   1.92957712462125     -1.40664947862905      1.42150720046326
