13
Coordinates from ORCA-job run
  C   -0.00730342360407      0.00311922977845     -0.27870016014160
  C   -1.14687579670578     -0.64891114255453      0.47972410837325
  Cl  0.14248763963242     -0.93440910008582     -1.88542174503782
  H   -1.25815576892103     -0.14994625904483      1.44516821400483
  H   -0.94965057012138     -1.70920860084819      0.63732597115092
  H   -2.08265109264071     -0.55566183433154     -0.07563067017813
  N   -0.28841029362163      1.37787766556305     -0.50013366071035
  H   0.44833535796760      1.82311053473370     -1.03317282479289
  H   -1.16343914446995      1.49973059690683     -0.99473807547500
  C   1.32899736522067     -0.15216443332634      0.42069000541958
  H   1.56324805896353     -1.20503450610125      0.57740745378584
  H   2.12998310723213      0.28950971140742     -0.17608304747081
  H   1.28343456106820      0.35998813790304      1.38456443107217
