12

C	-0.498398	0.012455	-1.409632
C	0.0	0.0	0.0
F	-0.141092	-1.113854	-2.078518
H	1.090419	0.0	0.0
H	-0.362608	0.885071	0.52629
H	-0.373335	-0.907824	0.482175
N	-2.041887	0.033166	-1.405933
O	-2.562936	1.104551	-1.111919
O	-2.621448	-1.022678	-1.625169
C	-0.089914	1.189257	-2.195305
N	0.20304	2.131176	-2.831527
H	2.856946	0.0	0.0
