12

C	-0.556358	-0.111207	-1.378303
C	0.0	0.0	0.0
F	-1.936374	-0.152351	-1.392272
H	1.089041	0.0	0.0
H	-0.343953	-0.856813	0.584056
H	-0.385043	0.919237	0.448322
N	-0.181163	1.14922	-2.172958
O	-0.911448	2.119987	-2.011602
O	0.826923	1.089569	-2.86128
C	-0.077758	-1.271734	-2.143468
N	0.270036	-2.237046	-2.714848
H	2.868068	0.0	0.0
