12

C	-0.514016	0.027432	-1.395619
C	0.0	0.0	0.0
F	-1.893299	0.159096	-1.457403
H	1.090366	0.0	0.0
H	-0.361655	-0.905664	0.492316
H	-0.373175	0.88523	0.518216
N	0.007757	1.274055	-2.119595
O	0.681399	1.121203	-3.131555
O	-0.326898	2.338482	-1.617444
C	-0.161608	-1.15628	-2.1934
N	0.015285	-2.151511	-2.791884
H	2.870158	0.0	0.0
