12

C	-0.531738	-0.074318	-1.388443
C	0.0	0.0	0.0
F	-1.914965	0.000845	-1.432826
H	1.088976	0.0	0.0
H	-0.377331	0.916406	0.457906
H	-0.355822	-0.870285	0.556525
N	-0.062129	1.146975	-2.186345
O	-0.504197	2.219241	-1.794639
O	0.697047	0.966782	-3.129874
C	-0.143382	-1.286185	-2.123329
N	0.103047	-2.301794	-2.657897
H	2.870143	0.0	0.0
