16

C	0.0	0.0	0.0
C	-0.434091	0.012792	-1.48633
F	1.388784	0.0	0.0
H	0.370818	-0.524102	-2.006836
C	-0.551872	1.12408	0.841647
H	-0.195115	1.017772	1.868802
H	-1.647198	1.052881	0.812809
H	-0.22329	2.083879	0.438773
C	-0.363698	-1.311608	0.585466
N	-0.481517	-2.345988	1.128752
C	-0.373228	1.405005	-2.001878
N	-0.327964	2.476803	-2.484119
N	-1.682573	-0.68284	-1.665067
H	-2.026855	-0.53818	-2.608662
H	-2.448303	-0.352169	-0.983174
H	-3.500588	0.0	0.0
