16

C	0.0	0.0	0.0
C	-0.661111	-0.14412	-1.366452
F	1.391026	0.0	0.0
H	-1.743199	-0.340408	-1.032647
C	-0.478275	1.246436	0.70997
H	-0.131719	2.130337	0.170439
H	-1.576467	1.20012	0.722993
H	-0.074917	1.266242	1.724787
C	-0.349891	-1.198749	0.805905
N	-0.510647	-2.164808	1.455422
C	-0.097827	-1.272127	-2.103448
N	0.351163	-2.184285	-2.694697
N	-0.719845	1.043872	-2.196623
H	-1.518193	1.587334	-1.881255
H	0.119993	1.602247	-2.113927
H	-3.054057	0.0	0.0
