16

C	0.0	0.0	0.0
C	-0.407979	0.169206	-1.500754
F	1.38791	0.0	0.0
H	0.327751	-0.447431	-2.034298
C	-0.56026	1.031906	0.943341
H	-0.244357	2.028192	0.627555
H	-1.655006	0.947744	0.910266
H	-0.197025	0.83944	1.956201
C	-0.38228	-1.369572	0.406724
N	-0.52936	-2.493475	0.715627
C	-0.113494	1.561872	-1.894163
N	0.156248	2.661161	-2.208859
N	-1.736683	-0.215674	-1.900475
H	-1.759007	-1.227369	-1.974708
H	-2.467406	0.007487	-1.154882
H	-3.4725	0.0	0.0
