16

C	0.0	0.0	0.0
C	-0.559226	-0.060817	-1.422576
F	1.390801	0.0	0.0
H	-1.66577	-0.155712	-1.221815
C	-0.488467	1.220393	0.745025
H	-0.119886	2.122143	0.251382
H	-0.111526	1.197495	1.769951
H	-1.587605	1.172917	0.728513
C	-0.37595	-1.233686	0.726646
N	-0.528646	-2.244705	1.304554
C	-0.048952	-1.243286	-2.120815
N	0.36797	-2.18157	-2.692326
N	-0.305381	1.122769	-2.231578
H	0.637316	1.459127	-2.066744
H	-0.964238	1.843358	-1.962329
H	-3.075016	0.0	0.0
