16

C	0.0	0.0	0.0
C	-0.588391	-0.040272	-1.398965
F	1.392358	0.0	0.0
H	-1.702047	-0.065774	-1.152027
C	-0.486466	1.214759	0.755707
H	-1.583524	1.149527	0.774583
H	-0.074777	1.201018	1.767687
H	-0.163854	2.109119	0.223946
C	-0.373406	-1.242857	0.715312
N	-0.520108	-2.252337	1.297481
C	-0.195224	-1.259034	-2.116947
N	0.132085	-2.184203	-2.766457
N	-0.253299	1.172728	-2.136783
H	0.675936	1.089288	-2.533071
H	-0.913608	1.289169	-2.895777
H	-3.081973	0.0	0.0
