15
Coordinates from ORCA-job run
  C   0.81797438309257      0.69835419253832      0.03721577298708
  C   -0.44125086024787     -0.08722100285443     -0.33268688783295
  Cl  0.80114413893860      1.12588385103381      1.76867009903491
  H   -0.37385743824547     -0.28877878663025     -1.40757295602656
  H   0.79732512641141      1.65448201495290     -0.49357834093375
  N   1.97715007471127     -0.12752443424590     -0.22819702241806
  H   2.80659501183214      0.32057921932758      0.14252047480221
  H   2.09463788132518     -0.21480881590408     -1.23270638959450
  N   -1.60970508333524      0.85769140723082     -0.22587427635712
  O   -2.49577980246232      0.60955747552013      0.58518546209284
  O   -1.57658560799689      1.83374844601610     -0.97395251876563
  C   -0.66226316032269     -1.35874122151280      0.44893538584052
  H   0.22585517971410     -1.98245568675885      0.34939112128324
  H   -1.52931162224850     -1.89521364652428      0.06250721848330
  H   -0.83192822116629     -1.14655301218907      1.50214285740447
