15
Coordinates from ORCA-job run
  C   1.06761220029820      0.11184529298977     -0.01021819150148
  C   -0.40216517966612     -0.02316449136998     -0.38783944132148
  Cl  2.02803808620734     -0.45033532462415     -1.40796688590695
  H   -0.58347896113952      0.55868613174676     -1.29210047614858
  H   1.30736809025004     -0.57191387115558      0.81016556651350
  N   1.38615502701800      1.50246740436510      0.23886752166320
  H   2.38546525335808      1.64486789339479      0.16264210577199
  H   1.11046094713929      1.72993921957865      1.18767864716783
  N   -1.22566470273440      0.64034385507003      0.67706665786967
  O   -2.25741380925893      1.19813187111511      0.32143292312294
  O   -0.83680567173569      0.52575801169481      1.84114949918455
  C   -0.90077729750015     -1.45256571720766     -0.51100071535937
  H   -0.36836676380210     -1.96832080340042     -1.30950825570117
  H   -1.96644301488746     -1.45598549142269     -0.74585086283095
  H   -0.74298420354657     -1.99075398077454      0.42648190747630
