17

C	0.0	0.0	0.0
C	-0.478049	0.080272	-1.44885
F	1.368665	0.0	0.0
H	0.194335	0.86445	-1.844434
C	-0.407745	1.194406	0.829414
H	0.144971	1.171111	1.77077
H	-0.127181	2.095475	0.275823
H	-1.482711	1.150667	0.97769
N	-0.325366	-1.297865	0.725366
O	-0.904122	-1.250936	1.802415
O	0.140471	-2.318064	0.220235
C	-1.856944	0.596039	-1.670135
N	-2.517547	1.159213	-2.480753
N	-0.337236	-1.17337	-2.189217
H	0.613738	-1.512447	-2.098934
H	-0.517212	-0.954476	-3.163014
F	-2.605687	0.0	0.0
