17

C	0.0	0.0	0.0
C	-0.478247	0.097718	-1.447035
F	1.368652	0.0	0.0
H	0.174765	0.905987	-1.826437
C	-0.410699	1.180254	0.847503
H	0.140791	1.143357	1.788922
H	-1.485567	1.131554	0.993773
H	-0.13116	2.090674	0.309026
N	-0.322998	-1.310093	0.706849
O	-0.918496	-1.281026	1.775727
O	0.159134	-2.319766	0.195474
C	-1.870676	0.578747	-1.668035
N	-2.537606	1.115406	-2.49236
N	-0.300274	-1.139427	-2.208089
H	-0.484731	-0.908817	-3.178054
H	0.66018	-1.451552	-2.121713
F	-2.612779	0.0	0.0
