17

C	0.0	0.0	0.0
C	-0.671038	-0.028803	-1.358436
F	1.362937	0.0	0.0
H	-1.745874	-0.242958	-1.018176
C	-0.49623	1.137242	0.848827
H	-0.066964	1.043849	1.845991
H	-1.588444	1.059236	0.854527
H	-0.17507	2.066596	0.379643
N	-0.321258	-1.32227	0.719131
O	-0.793455	-2.249767	0.071772
O	-0.003571	-1.383476	1.903875
C	-0.11408	-1.028072	-2.260577
N	0.350705	-1.74439	-3.07034
N	-0.652948	1.307381	-1.967417
H	-1.59868	1.52128	-2.256095
H	-0.055306	1.326071	-2.780736
F	-2.922497	0.0	0.0
