17

C	0.0	0.0	0.0
C	-0.488158	0.200425	-1.433296
F	1.368717	0.0	0.0
H	0.173059	1.021384	-1.767615
C	-0.410989	1.106552	0.941388
H	-0.135148	2.058717	0.47811
H	-1.484941	1.044112	1.089137
H	0.145443	0.994096	1.874061
N	-0.316951	-1.364688	0.600221
O	0.207326	-2.324104	0.035127
O	-0.946373	-1.428185	1.647694
C	-1.878396	0.708316	-1.60736
N	-2.547753	1.272892	-2.411644
N	-0.339613	-0.990384	-2.269846
H	0.619858	-1.315037	-2.226827
H	-0.550673	-0.704126	-3.219327
F	-2.618525	0.0	0.0
