15

C	-0.324238	-0.179372	-1.469766
C	0.0	0.0	0.0
F	-1.602578	-0.666003	-1.674212
H	1.09101	0.0	0.0
H	-0.310646	-0.922532	0.502211
N	-0.304113	1.192776	-2.142238
O	-1.380641	1.753759	-2.330947
O	0.800358	1.64359	-2.421982
C	0.712238	-1.067454	-2.119773
H	0.532654	-2.091966	-1.776419
H	0.641841	-1.038642	-3.209991
H	1.694011	-0.732382	-1.752504
C	-0.634062	1.13216	0.640441
N	-1.130874	2.045211	1.188926
F	2.592646	0.0	0.0
