15

C	-0.249079	0.040154	-1.493818
C	0.0	0.0	0.0
F	-0.088431	-1.207743	-2.025411
H	1.09347	0.0	0.0
H	-0.333605	0.940023	0.444985
N	-1.693977	0.436108	-1.808507
O	-2.407902	-0.351818	-2.419957
O	-2.037562	1.549086	-1.413543
C	0.706867	0.998169	-2.163001
H	0.462048	2.023733	-1.885315
H	0.65383	0.882445	-3.248275
H	1.696103	0.740643	-1.760266
C	-0.626669	-1.127632	0.655497
N	-1.13408	-2.033627	1.20587
F	2.599805	0.0	0.0
