15

C	-0.437297	-0.093056	-1.443202
C	0.0	0.0	0.0
F	0.030078	0.977607	-2.146747
H	1.093432	0.0	0.0
H	-0.324789	-0.898362	0.529816
N	0.221373	-1.334154	-2.038556
O	0.883974	-1.210802	-3.05784
O	-0.034017	-2.390687	-1.465473
C	-1.921899	-0.219825	-1.711755
H	-2.420019	0.670532	-1.324665
H	-2.09868	-0.28889	-2.788533
H	-2.319884	-1.10498	-1.216516
C	-0.576174	1.173527	0.618428
N	-1.049825	2.127061	1.118657
F	2.52286	0.0	0.0
