15

C	-0.253908	0.071237	-1.492553
C	0.0	0.0	0.0
F	-0.11987	-1.168995	-2.047458
H	1.094185	0.0	0.0
H	-0.330415	0.931507	0.464781
N	-1.693925	0.498865	-1.792274
O	-2.017984	1.607194	-1.369181
O	-2.423219	-0.26157	-2.419369
C	0.71571	1.024233	-2.149215
H	1.701981	0.74677	-1.753285
H	0.65645	0.926718	-3.235718
H	0.489532	2.048918	-1.853366
C	-0.627914	-1.1383	0.635599
N	-1.136883	-2.049967	1.175118
F	2.6009	0.0	0.0
