14

C	-0.508103	-0.109909	-1.549805
C	0.106044	-0.157703	-0.159169
F	0.007838	0.886813	-2.302447
H	1.195282	-0.216292	-0.289644
H	-0.243335	-1.083342	0.31148
C	-0.38715	-1.379784	-2.289078
N	-0.256224	-2.396767	-2.861897
N	-2.008549	0.156789	-1.409345
O	-2.464314	1.171555	-1.907818
O	-2.625539	-0.700483	-0.785512
N	-0.214599	1.058703	0.539364
H	-0.700048	0.831436	1.398929
H	0.747304	1.437015	0.812262
H	2.279824	1.436183	1.005424
