14

C	-0.54319	0.061358	-1.513711
C	0.101596	0.143103	-0.13471
F	-0.003241	-0.925356	-2.262247
H	1.180893	0.224996	-0.288855
H	-0.26337	1.065924	0.332515
C	-2.00124	-0.116224	-1.454533
N	-3.16674	-0.251791	-1.410839
N	-0.289087	1.377265	-2.258034
O	-0.921285	2.345977	-1.846353
O	0.556201	1.379596	-3.141755
N	-0.173619	-1.076387	0.574654
H	-0.700988	-0.868726	1.414321
H	0.801189	-1.40877	0.881059
H	2.290475	-1.390745	1.131129
