14

C	-0.619801	0.021424	-1.462502
C	0.131629	-0.075638	-0.148291
F	-1.967692	0.055518	-1.250561
H	1.197404	-0.205664	-0.341928
H	-0.241579	-0.997743	0.326542
C	-0.243858	1.173116	-2.288559
N	0.006739	2.099192	-2.964933
N	-0.345253	-1.241773	-2.281018
O	0.732602	-1.27564	-2.865197
O	-1.172421	-2.143126	-2.22013
N	-0.046394	1.144468	0.586446
H	-0.755795	1.017813	1.298776
H	0.903874	1.276154	1.077348
H	2.301759	1.030193	1.542073
