14

C	-0.513246	-0.126189	-1.545844
C	0.106171	-0.158644	-0.156886
F	-0.000277	0.86247	-2.311167
H	1.195183	-0.216344	-0.291097
H	-0.240585	-1.079726	0.324547
C	-0.39458	-1.403943	-2.271875
N	-0.264019	-2.426411	-2.834873
N	-2.013304	0.141397	-1.403152
O	-2.471185	1.15041	-1.911286
O	-2.627638	-0.708904	-0.76733
N	-0.21385	1.06427	0.530377
H	0.747859	1.447191	0.796741
H	-0.696739	0.84492	1.393444
H	2.28426	1.454302	0.980605
