14

C	-0.55156	0.175937	-1.501264
C	0.10141	0.152605	-0.123764
F	-0.016095	-0.750508	-2.326095
H	1.181327	0.247115	-0.278076
H	-0.261128	1.036888	0.41446
C	-2.009232	-0.006368	-1.446839
N	-3.174731	-0.142908	-1.406295
N	-0.301934	1.544894	-2.144294
O	-0.931099	2.479186	-1.655629
O	0.537584	1.61493	-3.030747
N	-0.168382	-1.117713	0.491753
H	0.809022	-1.471004	0.765328
H	-0.69023	-0.975847	1.3484
H	2.299251	-1.466554	1.007061
