14

C	-0.534094	-0.484784	-1.451855
C	0.049351	-0.190312	-0.078603
F	0.064918	0.233817	-2.426961
H	1.135537	-0.353009	-0.147182
H	-0.375144	-0.927382	0.611969
C	-0.489946	-1.913435	-1.813802
N	-0.416861	-3.055298	-2.078893
N	-2.014321	-0.095471	-1.444976
O	-2.387454	0.771181	-2.216771
O	-2.702216	-0.708864	-0.635499
N	-0.194629	1.188702	0.251338
H	-0.709685	1.236946	1.122319
H	0.787249	1.563776	0.446443
H	2.312193	1.514619	0.686402
