14

C	-0.614308	-0.02543	-1.538121
C	0.090864	-0.122186	-0.202924
F	-0.2978	-1.080354	-2.363534
H	1.168587	-0.159629	-0.390657
H	-0.209126	-1.088749	0.229667
C	-2.076366	0.030543	-1.404451
N	-3.24023	-0.050553	-1.26975
N	-0.147471	1.22737	-2.269316
O	1.008486	1.189626	-2.66688
O	-0.942631	2.148955	-2.404629
N	-0.203742	1.05896	0.56459
H	0.735854	1.283083	1.043703
H	-0.867142	0.838283	1.298546
H	2.146459	1.175028	1.517485
