15

C	-0.504463	-0.010335	-1.463825
C	0.0	0.0	0.0
Br	0.000292	1.640461	-2.392963
H	1.090572	0.0	0.0
C	0.10937	-1.13911	-2.16245
N	0.542218	-2.069543	-2.735362
C	-1.960048	-0.154316	-1.555244
N	-3.123017	-0.310346	-1.628698
N	-0.497759	-1.162044	0.648026
H	0.134658	-1.449405	1.386933
H	-1.44227	-1.029383	0.993101
N	-0.495906	1.285784	0.637877
O	0.315869	2.160033	0.914932
O	-1.713715	1.342614	0.840615
Cl	3.263938	0.0	0.0
