15

C	-0.434385	0.003112	-1.493173
C	0.0	0.0	0.0
Br	-2.404448	0.127249	-1.718004
H	1.092635	0.0	0.0
C	0.166441	1.081848	-2.274209
N	0.664781	1.929246	-2.920508
C	-0.030567	-1.288576	-2.047888
N	0.321669	-2.342241	-2.434781
N	-0.510411	-1.037641	0.805512
H	-1.51873	-1.121528	0.782213
H	-0.050995	-1.918625	0.618827
N	-0.431224	1.327525	0.551881
O	-1.432007	1.352252	1.272245
O	0.307902	2.280918	0.312353
Cl	2.684653	0.0	0.0
