15

C	-0.456151	0.013325	-1.481898
C	0.0	0.0	0.0
Br	-2.441608	0.187409	-1.557069
H	1.092733	0.0	0.0
C	0.101394	1.051839	-2.34391
N	0.553464	1.810628	-3.120453
C	-0.152309	-1.296046	-2.060642
N	0.041552	-2.356898	-2.529235
N	-0.430345	-1.113724	0.741152
H	-1.346565	-1.47041	0.515384
H	0.279299	-1.830225	0.777293
N	-0.453655	1.303358	0.634044
O	-0.263866	2.315598	-0.03808
O	-0.948464	1.272532	1.752166
Cl	3.154667	0.0	0.0
