14

C	-0.486156	-0.03384	-1.40742
C	0.0	0.0	0.0
Br	0.245144	1.397735	-2.459764
H	1.090952	0.0	0.0
H	-0.31393	-0.914165	0.509023
N	-0.127312	-1.362567	-2.072162
O	-0.512306	-1.496216	-3.229276
O	0.505001	-2.173656	-1.408313
N	-2.022472	-0.019554	-1.475048
O	-2.607049	1.014435	-1.762614
O	-2.538758	-1.080681	-1.124832
C	-0.497607	1.165525	0.701035
N	-0.859187	2.105963	1.307563
H	2.5438	0.0	0.0
