14

C	-0.458535	-0.01582	-1.418826
C	0.0	0.0	0.0
Br	0.32652	-1.493811	-2.359699
H	1.093601	0.0	0.0
H	-0.291445	-0.940898	0.471275
N	-1.983365	-0.152138	-1.622678
O	-2.650466	-0.402829	-0.626873
O	-2.395031	-0.018371	-2.767583
N	-0.10651	1.308771	-2.092142
O	0.948789	1.39876	-2.691961
O	-0.915238	2.206921	-1.866496
C	-0.507163	1.11727	0.767451
N	-0.839686	2.038672	1.418272
H	2.56619	0.0	0.0
