14

C	-0.46015	0.037127	-1.421657
C	0.0	0.0	0.0
Br	0.209165	1.613221	-2.288545
H	1.093579	0.0	0.0
H	-0.29123	0.939798	0.474513
N	-0.032858	-1.232021	-2.160218
O	0.83993	-1.17614	-3.008565
O	-0.62521	-2.231224	-1.768853
N	-1.988545	0.077497	-1.608751
O	-2.64783	0.479179	-0.659534
O	-2.414776	-0.256492	-2.705411
C	-0.520476	-1.107742	0.77527
N	-0.878594	-2.007104	1.442462
H	2.601041	0.0	0.0
