8
Coordinates from ORCA-job run
  C   -0.42444473317585      0.34995488175568      0.07430899503542
  C   0.42433545952542     -0.35157280709287     -0.70745991941012
  H   -0.05178065637239      1.02408106034208      0.83999947025009
  H   0.05188165268042     -1.02536296665003     -1.47349517759822
  C   -1.83929964713641      0.23393720653191     -0.07379964108564
  N   -3.00717154657271      0.14618807257299     -0.18723212490773
  C   1.83919630463391     -0.23416701207535     -0.56099242164432
  N   3.00728316641761     -0.14405843538441     -0.45132918063946
