8
Coordinates from ORCA-job run
  C   0.43951387581367     -0.40346615001805     -0.63352678981857
  C   -0.43896159441355      0.40569266695186     -0.00323377053299
  H   0.09601276043711     -1.20006708016645     -1.28703420190996
  H   -0.09641840083710      1.20238336752612      0.65059456921212
  C   1.84803996885061     -0.24641388853453     -0.46598482195665
  N   3.01135102842648     -0.12782443657893     -0.33491234661000
  C   -1.84765660934177      0.24592161560607     -0.16928366319543
  N   -3.01088102893543      0.12377390521390     -0.29761897518852
