8
Coordinates from ORCA-job run
  C   0.65068984822859      0.00808916382455     -0.13729369780221
  C   -0.65078953473560     -0.00811349897733     -0.49756284193320
  H   0.95528385844760      0.36297461297262      0.84293417350973
  H   -0.95547918098104     -0.36283818143465     -1.47784006410367
  C   1.67399248206415     -0.43871406116075     -1.02634229222563
  N   2.52680726471635     -0.80365167026295     -1.75025584409517
  C   -1.67414303485999      0.43864895942734      0.39146346481851
  N   -2.52736170288006      0.80360467561117      1.11489710183163
