8
Coordinates from ORCA-job run
  C   0.58904089193798     -0.68802146439256     -0.25914906837945
  C   -0.65870206389257     -0.39359519739754      0.16682052565358
  H   1.03113338741162     -1.64673804992991     -0.00706044536494
  H   -1.21008196762619     -1.11786938132826      0.75800947436718
  C   1.37631773896811      0.21030097068854     -1.03998493940282
  N   2.04249656708744      0.93584421100213     -1.68405736412943
  C   -1.30807178680402      0.84354554743627     -0.12340126268315
  N   -1.86213276708237      1.85653336392133     -0.35117692006097
