8
Coordinates from ORCA-job run
  C   0.56031323932604     -0.71322629410051     -0.32345582313678
  C   -0.67157525231961     -0.40557654369889      0.13795582642088
  H   0.96447848492537     -1.70654303293990     -0.15578908265227
  H   -1.24755600815024     -1.15395256509312      0.67295623273040
  C   1.37944705130907      0.21442597273229     -1.03414232288918
  N   2.07261387329159      0.96284588023671     -1.62096468660192
  C   -1.27199236942982      0.87656108935495     -0.04077715102826
  N   -1.78672901895241      1.92646549350847     -0.17478299284287
