8
Coordinates from ORCA-job run
  C   0.55843947473375     -0.71456086262660     -0.32849521959713
  C   -0.68156465060819     -0.41314791320091      0.11478337130325
  H   0.95499512624706     -1.71370114525479     -0.17794796888638
  H   -1.27186160387631     -1.17258014439221      0.61773058350710
  C   1.39550918677209      0.22651601190541     -0.99940447417293
  N   2.10232287836637      0.98556915932102     -1.55547534045464
  C   -1.27417384271019      0.87496795692110     -0.04575965299356
  N   -1.78366656892457      1.92893693732697     -0.16743129870571
