8
Coordinates from ORCA-job run
  C   -0.44414532733635      0.30371895943339      0.09193284315054
  C   0.44397597178822     -0.30247932002181     -0.72519428495778
  H   -0.11291478599795      0.85914700246624      0.96447903709695
  H   0.11210404997891     -0.85798038674677     -1.59748879336341
  C   -1.84788841444033      0.23890078948704     -0.15803330343773
  N   -3.00728673480944      0.19163584471181     -0.35307544709287
  C   1.84801730171339     -0.23868486939289     -0.47709863019192
  N   3.00813793910354     -0.19525801993701     -0.28552142120377
