8
Coordinates from ORCA-job run
  C   0.52349937168627     -0.73032067398906     -0.44405591523772
  C   -0.74071096684593     -0.45602785540293     -0.05440145979779
  H   0.85939530257664     -1.76120028765996     -0.49458063839370
  H   -1.41203608479194     -1.26845692296118      0.20517319653110
  C   1.46358786528847      0.28202383553257     -0.80192247562622
  N   2.25380759166935      1.10123085176709     -1.10108353060280
  C   -1.25416972841879      0.87242352450438      0.03532110526286
  N   -1.69337335116407      1.96132752820910      0.11454971786427
