8
Coordinates from ORCA-job run
  C   -0.49010344239832      0.21234659502784      0.09814447061396
  C   0.48929458886166     -0.21175075419996     -0.72938586357662
  H   -0.26085780130346      0.58361709368941      1.09264277495813
  H   0.25892358928838     -0.58293461877859     -1.72388622097934
  C   -1.86032066079336      0.18910706642161     -0.30085402724439
  N   -2.99279706334384      0.17284176599310     -0.62019931645431
  C   1.86054466196942     -0.18901424726461     -0.33401501868354
  N   2.99531612771951     -0.17521290088881     -0.02344679863388
