8
Coordinates from ORCA-job run
  C   -0.65883214435572      0.00715197953937     -0.46424276634450
  C   0.65924965595087     -0.00744535921783     -0.17056997878498
  H   -1.02046727763416     -0.33411761216467     -1.42988191950794
  H   1.02090259529194      0.33389403336326      0.79495552839977
  C   -1.62574061396035      0.46970498645364      0.47828976791176
  N   -2.43284969045928      0.84842367773208      1.24617512083250
  C   1.62600453087168     -0.46996046829541     -1.11320269934161
  N   2.43273294429501     -0.84865123741044     -1.88152305316502
