8
Coordinates from ORCA-job run
  C   -0.67360503384940     -0.41404342767241      0.12696012222387
  C   0.56499683025789     -0.71063365630391     -0.32332489177189
  H   -1.25105773712857     -1.16976508517160      0.64950232565422
  H   0.97337656875840     -1.70264345851975     -0.15990419472209
  C   -1.27851885262325      0.86676317679037     -0.04684292750131
  N   -1.79663871671987      1.91547399684216     -0.17568012427286
  C   1.38476903117862      0.22808810619822     -1.01879290160323
  N   2.07667791012616      0.98676034783692     -1.59391740800672
