8
Coordinates from ORCA-job run
  C   0.51490890668385     -0.73244995751382     -0.46398019009633
  C   -0.71822391317468     -0.44821840884494      0.00895573358131
  H   0.84721388995862     -1.76471187896620     -0.51188507586846
  H   -1.36681756822649     -1.25440011943317      0.33678444573324
  C   1.42604861846308      0.26951663919418     -0.91369701932822
  N   2.19211809303582      1.07997898239524     -1.28969489406640
  C   -1.22815961556490      0.88111079546973      0.10318012510869
  N   -1.66808841117531      1.96917394769899      0.19033687493618
