16

C	0.0	0.0	0.0
C	-0.427663	-0.174604	-1.466834
F	1.401944	0.0	0.0
H	-0.030796	-1.124323	-1.832493
N	-0.569971	1.129262	0.586293
H	-0.39318	1.974773	0.065491
H	-0.413536	1.21016	1.578575
C	-0.379102	-1.21554	0.750844
N	-0.586958	-2.205983	1.345616
N	0.418076	0.840658	-2.282103
O	1.071432	0.391285	-3.219974
O	0.341483	2.029696	-1.981753
N	-1.786519	0.01955	-1.70119
H	-2.387553	0.305296	-0.921996
H	-2.237928	-0.734022	-2.192878
Cl	-4.451238	0.0	0.0
