16

C	0.0	0.0	0.0
C	-0.109215	-0.086315	-1.557197
F	1.416536	0.0	0.0
H	0.587936	0.693913	-1.879532
N	-0.486747	1.169213	0.611182
H	-1.156759	0.924159	1.331977
H	-1.025421	1.6964	-0.065611
C	-0.379604	-1.245443	0.680716
N	-0.547412	-2.202714	1.337272
N	-1.374048	0.366383	-2.239497
O	-1.967807	-0.421216	-2.964595
O	-1.614345	1.564361	-2.125034
N	0.265135	-1.410655	-1.983674
H	1.253903	-1.439785	-2.194035
H	-0.281469	-1.677769	-2.792403
Cl	-3.414619	0.0	0.0
