16

C	0.0	0.0	0.0
C	-0.536665	-0.097014	-1.437134
F	1.414224	0.0	0.0
H	-1.610664	-0.330939	-1.356971
N	-0.375962	1.215968	0.609355
H	-0.835832	1.139609	1.503474
H	-0.875564	1.837871	-0.003778
C	-0.387146	-1.177948	0.802863
N	-0.567551	-2.139288	1.441238
N	0.147187	-1.277224	-2.107984
O	-0.213228	-2.402909	-1.798744
O	1.037781	-1.015336	-2.919532
N	-0.342255	1.112778	-2.153566
H	-1.015092	1.180764	-2.908223
H	0.601165	1.148523	-2.534328
Cl	-3.54428	0.0	0.0
