16

C	0.0	0.0	0.0
C	-0.42532	0.044249	-1.478409
F	1.422285	0.0	0.0
H	-1.507068	-0.128529	-1.486482
N	-0.476121	1.101653	0.747808
H	-0.43447	1.911312	0.13569
H	-1.466879	0.9217	0.935338
C	-0.363499	-1.263051	0.674374
N	-0.520534	-2.244445	1.298293
N	0.221632	-1.12139	-2.217588
O	1.162222	-0.873986	-2.974026
O	-0.233614	-2.239081	-1.995358
N	-0.073077	1.30337	-2.040488
H	0.902842	1.297868	-2.30778
H	-0.640214	1.496154	-2.853748
Cl	-3.461569	0.0	0.0
