16

C	0.0	0.0	0.0
C	-0.378551	-0.082611	-1.499673
F	1.402243	0.0	0.0
H	0.032177	-1.007972	-1.911346
N	-0.488582	1.087665	0.755886
H	-1.417349	0.914433	1.122451
H	-0.469778	1.94036	0.210437
C	-0.406088	-1.274534	0.623338
N	-0.633024	-2.325394	1.092358
N	0.423679	0.989851	-2.24928
O	0.474786	2.120967	-1.769321
O	0.90215	0.660839	-3.329543
N	-1.73869	0.092653	-1.781828
H	-2.374327	0.32147	-1.008727
H	-2.150729	-0.689921	-2.263309
Cl	-4.268605	0.0	0.0
