16

C	0.0	0.0	0.0
C	-0.329304	0.190364	-1.528861
F	1.410292	0.0	0.0
H	0.605952	0.009085	-2.064388
N	-0.504797	0.895722	0.968634
H	-1.510557	0.729796	1.052928
H	-0.34481	1.848424	0.66759
C	-0.363224	-1.383024	0.388546
N	-0.511295	-2.494214	0.73576
N	-0.535767	1.706063	-1.813857
O	0.256091	2.488704	-1.284077
O	-1.403356	2.020432	-2.618992
N	-1.352298	-0.636498	-2.003159
H	-2.220176	-0.509189	-1.468662
H	-1.526423	-0.478994	-2.985514
Cl	-3.654892	0.0	0.0
