15

C	0.0	0.0	0.0
C	-0.536384	-0.021523	-1.436075
Cl	1.789088	0.0	0.0
H	-1.639571	-0.031271	-1.221944
H	-0.310755	0.955479	0.428461
N	-0.516729	-1.038622	0.838299
H	-0.363769	-1.933076	0.379994
H	-1.540356	-0.854953	0.81547
C	-0.176349	-1.258616	-2.112157
N	0.106694	-2.255559	-2.668532
C	-0.175746	1.206401	-2.26482
H	0.901259	1.280281	-2.435575
H	-0.511361	2.101952	-1.732543
H	-0.685544	1.178746	-3.231339
H	-2.99697	0.0	0.0
