15

C	0.0	0.0	0.0
C	-0.22805	0.041541	-1.572315
Cl	1.793785	0.0	0.0
H	0.453405	-0.727021	-1.959524
H	-0.325185	0.94173	0.440393
N	-0.615802	-1.067837	0.691002
H	-1.637376	-0.811987	0.663417
H	-0.50025	-1.929484	0.168399
C	0.267605	1.316809	-2.100018
N	0.629835	2.346913	-2.534882
C	-1.602041	-0.245619	-2.180086
H	-2.01388	-1.16677	-1.774169
H	-2.333082	0.519105	-1.93837
H	-1.461583	-0.342714	-3.266689
H	-3.1559	0.0	0.0
