15

C	0.0	0.0	0.0
C	-0.397383	0.120852	-1.483985
Cl	1.789193	0.0	0.0
H	0.337977	0.794634	-1.940082
H	-0.275572	0.934086	0.503294
N	-0.533235	-1.182875	0.599277
H	-1.562914	-0.98483	0.4729
H	-0.357666	-1.132023	1.600452
C	-1.701234	0.777808	-1.759785
N	-2.351342	1.454834	-2.485843
C	-0.315575	-1.222749	-2.207323
H	-0.447852	-1.066724	-3.281556
H	0.656967	-1.686961	-2.029065
H	-1.091202	-1.894256	-1.842749
H	-2.731733	0.0	0.0
