14

C	0.0	0.0	0.0
C	-0.472494	0.344044	-1.400447
F	1.351876	0.0	0.0
H	-1.562635	0.468529	-1.305928
H	-0.378855	0.765229	0.696407
N	-0.584772	-1.253496	0.455848
O	-0.333309	-1.55531	1.648309
O	-1.741212	-1.434274	-0.130114
C	-0.188809	-0.749175	-2.348222
N	0.061065	-1.499313	-3.218479
N	0.147084	1.608063	-1.799257
H	1.145796	1.467231	-1.896531
H	-0.214014	1.879608	-2.705754
H	-2.795223	0.0	0.0
