14

C	0.0	0.0	0.0
C	-0.46948	0.430997	-1.377496
F	1.351846	0.0	0.0
H	-1.559533	0.549672	-1.279848
H	-0.379645	0.720383	0.742466
N	-0.586167	-1.278563	0.374798
O	-1.740021	-1.423019	-0.224423
O	-0.335808	-1.657471	1.545386
C	-0.180431	-0.603626	-2.388269
N	0.089717	-1.301812	-3.294829
N	0.150997	1.716718	-1.697613
H	-0.210396	2.042806	-2.586118
H	1.149541	1.581623	-1.804757
H	-2.795672	0.0	0.0
