14

C	0.0	0.0	0.0
C	-0.435211	0.029041	-1.533784
F	1.359959	0.0	0.0
H	0.09603	-0.822344	-1.968942
H	-0.239143	0.892157	0.578855
N	-0.859858	-1.058611	0.569788
O	-0.769922	-1.153515	1.87543
O	-0.692246	-2.170805	-0.1498
C	-0.069623	1.294977	-2.159066
N	0.174649	2.328177	-2.662081
N	-1.885397	-0.134312	-1.692878
H	-2.358926	0.413927	-2.399147
H	-2.138991	-1.11138	-1.627463
H	-1.875707	0.0	0.0
