14

C	0.0	0.0	0.0
C	-0.277213	-0.118822	-1.530559
F	1.356655	0.0	0.0
H	0.493428	-0.838495	-1.838899
H	-0.414914	0.852201	0.524865
N	-0.361543	-1.232756	0.775469
O	-0.442892	-1.098906	1.995099
O	-0.368782	-2.298237	0.166891
C	0.153326	1.195958	-2.062717
N	0.470914	2.230401	-2.523173
N	-1.574331	-0.549292	-1.994397
H	-1.842628	-0.008751	-2.80868
H	-2.252809	-0.334037	-1.188139
H	-2.808466	0.0	0.0
