14

C	0.0	0.0	0.0
C	-0.468008	0.313604	-1.418365
F	1.352078	0.0	0.0
H	-1.564952	0.350512	-1.360761
H	-0.383998	0.783904	0.677485
N	-0.581011	-1.233888	0.510441
O	-1.73484	-1.443275	-0.067185
O	-0.32622	-1.485263	1.713259
C	-0.06323	-0.749323	-2.343575
N	0.292491	-1.555772	-3.11947
N	0.036097	1.599384	-1.909536
H	-0.459825	2.329113	-1.409137
H	1.018216	1.678216	-1.669301
H	-2.784518	0.0	0.0
