14

C	0.0	0.0	0.0
C	-0.352085	-0.134162	-1.499265
F	1.356743	0.0	0.0
H	0.379044	-0.881027	-1.842913
H	-0.412345	0.856522	0.524979
N	-0.373388	-1.223556	0.790584
O	-0.66608	-1.048121	1.969283
O	-0.224033	-2.3071	0.234028
C	0.071579	1.155048	-2.091523
N	0.371108	2.167845	-2.608746
N	-1.694911	-0.527488	-1.843825
H	-2.385559	-0.295003	-1.027692
H	-2.007851	0.013204	-2.642588
H	-3.20836	0.0	0.0
