15
Coordinates from ORCA-job run
  C   -0.42797499162452      0.31363502389210     -0.42945151915370
  C   0.62374542556167     -0.08169204894709      0.62136301175044
  F   0.25065730365087      0.47199642330839     -1.63486459053440
  H   0.11908307195610     -0.12668436629838      1.59257282783319
  C   -1.52111019857328     -0.71632848046723     -0.62508477944838
  H   -2.21855126375966     -0.36064511417946     -1.38425073967456
  H   -1.08287178378431     -1.65756819551701     -0.95940660348068
  H   -2.06730201875493     -0.87955571419948      0.30628419443024
  C   -0.99454326535092      1.62073448772685     -0.05416004445676
  N   -1.46117819723709      2.66340952184119      0.21542158614380
  N   1.63976611845298      0.94998927324836      0.67848879713845
  H   2.27899291165364      0.78219623732836      1.44480846341125
  H   2.16768854025300      0.96286363091738     -0.18541014420575
  C   1.13571657413983     -1.43370376791255      0.31487925372437
  N   1.55688177341662     -2.50864691074143      0.09781028652249
