15
Coordinates from ORCA-job run
  C   -0.44312993834889     -0.17835320330363     -0.62598194647792
  C   0.90882665917496     -0.31200153839442      0.10885273108668
  F   -0.81941167498491     -1.48629436900049     -0.93487692000896
  H   1.61702562662472     -0.74149549064106     -0.61643156780782
  C   -1.53277125142136      0.46065130242967      0.20525984371592
  H   -2.47524082736957      0.40725510623429     -0.34137308732600
  H   -1.29674082013602      1.50698019440526      0.40539756399571
  H   -1.61719170345010     -0.07836890201566      1.14757723336617
  C   -0.23689628040777      0.53675350958075     -1.89618330619885
  N   -0.06587537956486      1.11643737286789     -2.90296818571112
  N   0.71009548249305     -1.12451051236958      1.30091147484697
  H   1.55166244368396     -1.12800457395797      1.86393261032321
  H   0.51279533429892     -2.07635611288185      1.01590244275032
  C   1.39597360773981      1.01850106136648      0.48156969371539
  N   1.79187872166805      2.07980615568032      0.78941141973029
