15
Coordinates from ORCA-job run
  C   -0.42801505256793     -0.05660404490489     -0.65787931280490
  C   0.69056920408683     -0.52441053349886      0.29373199748004
  F   -0.32999742481326     -0.81912800999582     -1.81224105968050
  H   0.44062678053689     -1.55350369162287      0.57229736154561
  C   -1.80444058203356     -0.24764638634106     -0.05828273666577
  H   -1.95475250837253     -1.31035582558242      0.14385452433597
  H   -2.56166960726793      0.08631190250167     -0.76875768215766
  H   -1.89165607844167      0.31491159997860      0.86963259472803
  C   -0.19075032275762      1.35441905412780     -1.01171944387338
  N   0.00580326509742      2.48991504847131     -1.23809451553123
  N   0.67964034572612      0.29800821039377      1.49107542869166
  H   1.21467716790522     -0.14729311594828      2.22611641526345
  H   1.10567410188287      1.19904580856443      1.30131721753487
  C   1.98229737230802     -0.55045625898264     -0.42011789033295
  N   3.03999333871113     -0.53421375716074     -0.93093289853323
