15
Coordinates from ORCA-job run
  C   -0.37401038204601     -0.07504187016342     -0.63380359191540
  C   0.79373632070198     -0.54796831849629      0.27080175748084
  F   -0.34478182485159     -0.85226979594948     -1.78233122739616
  H   0.57956805182003     -1.59565865015651      0.51286758157903
  C   -1.72806151891170     -0.25548249691200      0.02367245173977
  H   -1.85116165580184     -1.30242447385542      0.31006783377436
  H   -2.51114286470371      0.00765654390942     -0.68855475371786
  H   -1.83296971681047      0.38175512647750      0.90231577595032
  C   -0.15319907586562      1.33222260409746     -1.00731622295910
  N   0.02537541807134      2.46945262934846     -1.24059694118859
  N   0.97775790626971      0.18306404429331      1.50460370179944
  H   0.18668484045365      0.07809303918514      2.12418078182350
  H   1.15802803548545      1.16497708265835      1.33541886291643
  C   2.04087859132744     -0.51809605216160     -0.50612020898121
  N   3.03529787486134     -0.46827941227491     -1.12720580090538
