15
Coordinates from ORCA-job run
  C   -0.39589641674814     -0.26523553090167     -0.62694122034582
  C   0.89993458159930     -0.28347528995669      0.21327724915471
  F   -0.74384086992458     -1.60716262777429     -0.78695774309500
  H   1.66007942012722     -0.79551162257062     -0.39657806736775
  C   -1.54522291009031      0.46274585005858      0.03322846663725
  H   -1.32738313602401      1.52915535799747      0.11161412674777
  H   -2.44497823287470      0.32701020598537     -0.56841461489650
  H   -1.69682967879204      0.04993499204563      1.02947894891789
  C   -0.10165765743892      0.28073779808342     -1.96223583117881
  N   0.13822478023038      0.72715254619880     -3.02150100227608
  N   0.61838799784743     -0.93448734728205      1.48506160854037
  H   0.44493545399743     -1.91796806856542      1.31551727301487
  H   1.41691611250242     -0.85291322003305      2.10225570649755
  C   1.35418256450129      1.09068702984466      0.44110279116602
  N   1.72314799108720      2.18832992686985      0.63309230848353
