15
Coordinates from ORCA-job run
  C   -0.35625834309538      0.32177694734645     -0.52173669174376
  C   0.61747005514421     -0.20608499345119      0.55710923470230
  F   0.33178676096898      0.43785684002870     -1.71104531366690
  H   0.01802943704425     -0.40336353108739      1.46026478875311
  C   -1.54948620622151     -0.58833400247348     -0.73808287522888
  H   -2.13143784251641     -0.69871218022891      0.17871327393842
  H   -2.18909808365637     -0.16568928519709     -1.51347416938302
  H   -1.19871546787304     -1.56765752940937     -1.06819439920430
  C   -0.78747625433726      1.66652633060337     -0.09641707607314
  N   -1.14558473275710      2.71024721318738      0.30461967539497
  N   1.69765774555407      0.74915832665466      0.75675478764638
  H   1.41284266748735      1.46577604653777      1.41313385872157
  H   2.52548188481288      0.29344372645974      1.11666844463938
  C   1.16083910751089     -1.49001530376748      0.10293557004824
  N   1.59394927193443     -2.52492860520317     -0.24124910854437
