15
Coordinates from ORCA-job run
  C   -0.37653780226722     -0.10840153407320     -0.65473607386726
  C   0.98915231990512     -0.35628890702482      0.04621711402847
  F   -0.76693819091967     -1.35495116029625     -1.14309763164551
  H   1.67347873265388     -0.70149451177719     -0.73738392633243
  C   -1.46224669725510      0.40909957661854      0.26288936920181
  H   -1.20096194770898      1.39279637285758      0.65622606949977
  H   -2.39836621496769      0.48486850420272     -0.29142465687501
  H   -1.60678564595417     -0.28950413767566      1.08808458255870
  C   -0.17840981769119      0.78413906766559     -1.80672505507914
  N   -0.00052850028536      1.50311184820466     -2.71839567526340
  N   0.97220735919347     -1.35655367443919      1.09134736310184
  H   0.58283816490050     -2.22004339874658      0.73401154845469
  H   0.43606109993862     -1.05249067667091      1.89364170426733
  C   1.49208169536975      0.91685266232469      0.57113108995879
  N   1.84395544508802      1.94785996883003      1.00821417799135
