15
Coordinates from ORCA-job run
  C   -0.40698603569362     -0.03704044993519     -0.67097653598824
  C   0.68235282227849     -0.53224649223210      0.30070438468853
  F   -0.27438929258502     -0.76571402297003     -1.84342700859530
  H   0.42140147574027     -1.56700961741051      0.54671657884233
  C   -1.80096715062854     -0.24407032066526     -0.11890006522701
  H   -1.95727558684021     -1.31195053255576      0.04812701410504
  H   -2.53638775886359      0.11059984703434     -0.84218885218610
  H   -1.91612557635722      0.29215151727742      0.82144946603495
  C   -0.16101279204218      1.38399267961234     -0.97582004753449
  N   0.03429311184198      2.52744962745154     -1.15798280587538
  N   0.63842061957309      0.26032861091167      1.51722107871996
  H   1.15589124399455     -0.20220427397118      2.25437880124925
  H   1.06653508794700      1.16697487025575      1.36089311711992
  C   1.99318505725069     -0.54793775735895     -0.37741647819188
  N   3.06206477438431     -0.53332368544409     -0.86477864716160
