15
Coordinates from ORCA-job run
  C   -0.38644184742381      0.36248770976581     -0.42912083691913
  C   0.58225374667482     -0.15266466212973      0.64841047712646
  F   0.37111885559347      0.57561574355830     -1.57832934509995
  H   0.01746595321258     -0.24672195638502      1.58221329320806
  C   -1.50610965098338     -0.60119465035203     -0.76362129129299
  H   -2.11724212740240     -0.80197114360656      0.11860108627763
  H   -1.08555379561851     -1.53619879614623     -1.13601284325974
  H   -2.13800200812478     -0.16386183474406     -1.53724245923671
  C   -0.92568875297667      1.66121225016291      0.00945947068219
  N   -1.42874479866517      2.66502750443531      0.35154592393449
  N   1.63122232797064      0.82830104543968      0.84156128255121
  H   2.21449322189716      0.57956568552310      1.63032387830377
  H   2.21264457748006      0.87817086323364      0.01403882709429
  C   1.06457779656628     -1.49737783762389      0.26942827641485
  N   1.49500650179969     -2.55138992113123     -0.02025573978444
