15
Coordinates from ORCA-job run
  C   -0.38000597762752     -0.04927595255947     -0.63309111266204
  C   0.78801922705282     -0.56717874913922      0.24620843207427
  F   -0.37068917039724     -0.78913019746756     -1.80639980723866
  H   0.56022589973386     -1.61863236881088      0.45723684506606
  C   -1.73129444792988     -0.23168592848131      0.02949799306388
  H   -1.86752080689103     -1.28521726262331      0.28390037988703
  H   -2.51588666892931      0.06461047339764     -0.66781112242060
  H   -1.82020545830472      0.37902703092160      0.92843113699996
  C   -0.14170170479592      1.36621316149236     -0.96279660723336
  N   0.05191688003575      2.50776593948167     -1.15991862436962
  N   0.99202805003973      0.12142395792272      1.50088433381299
  H   1.17882613027861      1.10708699441284      1.36238869241305
  H   0.20719289110017      0.00209465414853      2.12580939479832
  C   2.02913003852376     -0.53071761338934     -0.54002594326167
  N   3.01996511811090     -0.47538413930628     -1.16631399092964
