15
Coordinates from ORCA-job run
  C   -0.41262838572904      0.36096411664969     -0.40810526826571
  C   0.61254330184356     -0.14540879496535      0.62002762962852
  F   0.29156030049423      0.61653810736119     -1.58222642124199
  H   0.09006235773356     -0.26636254113823      1.57514446796221
  C   -1.51773055099744     -0.62776643052414     -0.71694467730835
  H   -2.19594304277569     -0.19152723176099     -1.45107441870898
  H   -2.08287389251317     -0.86821304695388      0.18592935050673
  H   -1.08645949756444     -1.54044410566875     -1.13045926738623
  C   -0.96944249920657      1.63500843181134      0.07846865007590
  N   -1.48698610781864      2.61361434823309      0.46840912116379
  N   1.64480419252926      0.85781886167403      0.78427277033991
  H   2.19268741196258      0.93164250218394     -0.06399655998082
  H   2.26317727550027      0.61509147058737      1.54766732598727
  C   1.10880092983435     -1.47426810974807      0.20386441208809
  N   1.54642820670719     -2.51768757774126     -0.11197711486035
