15
Coordinates from ORCA-job run
  C   -0.48651801201237     -0.21912191234000     -0.66047260059851
  C   0.87514764378160     -0.43086721957284      0.04297523805072
  F   -0.93724008708493     -1.47496524673229     -1.03001325283122
  H   1.47650723339736     -1.02932763146274     -0.64876163989635
  C   -1.52330447877240      0.42656489385932      0.23290700545204
  H   -1.67888798518039     -0.21620686154862      1.09957571953503
  H   -1.20083955300512      1.42015547532256      0.55117177561130
  H   -2.46354592204751      0.51800567280995     -0.31171299834028
  C   -0.27848260409916      0.55925562509165     -1.89527751658278
  N   -0.11702816504424      1.18038019828586     -2.87888525150837
  N   0.69011349280189     -1.17953197336695      1.27305162337976
  H   0.57103834342263     -0.56055264400989      2.06482388307510
  H   1.49054154401670     -1.77036383350803      1.45215273289202
  C   1.53870802726925      0.87068450080705      0.23648256290852
  N   2.04479052255668      1.90489095636497      0.47098271885301
