15
Coordinates from ORCA-job run
  C   -0.40458463494337      0.36803367449597     -0.40890251850266
  C   0.59829460875123     -0.15942184186721      0.63090310803631
  F   0.32457854509073      0.64537386422120     -1.56257482503247
  H   0.05428080824979     -0.30215399678859      1.57089573910275
  C   -1.50308732740808     -0.61417563819946     -0.75937301254551
  H   -2.08682783449559     -0.87106547331809      0.12694010985635
  H   -2.16596110216129     -0.16433069086853     -1.49922677834479
  H   -1.06346426160506     -1.51919834071830     -1.18078584894459
  C   -0.97012275204217      1.63379740369441      0.08891597545900
  N   -1.48901572114483      2.61117586245747      0.48019823007719
  N   1.62470220394812      0.84170167413728      0.84048761468333
  H   2.22941933114855      0.58059144993661      1.60876303876898
  H   2.18843204913366      0.93761428654564      0.00481527894046
  C   1.10727234769332     -1.47692748276280      0.19524587600888
  N   1.55608373978502     -2.51101475096560     -0.13530198756324
