15
Coordinates from ORCA-job run
  C   -0.42735664428149     -0.05283742756497     -0.65807437017245
  C   0.69922372333429     -0.51730974085915      0.28579782849662
  F   -0.31847674552490     -0.79535564573270     -1.82432481032490
  H   0.46508537508070     -1.55371334840596      0.55062454616493
  C   -1.80004832640010     -0.27503436959410     -0.06059838581495
  H   -1.89524975078538      0.27127342469610      0.87622407713907
  H   -1.93339434243767     -1.34310112545321      0.12466294499132
  H   -2.56308033331674      0.05816837839449     -0.76519492470320
  C   -0.21305012168909      1.36724800969355     -0.98986244954240
  N   -0.03670944126036      2.50907378340823     -1.20069522417550
  N   0.67769724191981      0.28851918573173      1.49411523680804
  H   1.09246243678227      1.19726788949558      1.31743306241616
  H   1.21739197827691     -0.16032116131935      2.22354457405047
  C   1.99012485768461     -0.51535187233091     -0.43003711899654
  N   3.04638009261714     -0.47952598015934     -0.94261498633668
