15
Coordinates from ORCA-job run
  C   -0.40974898338209     -0.05805731288902     -0.66939484301971
  C   0.69078940172903     -0.51564751545119      0.30796035185534
  F   -0.26933179877161     -0.80937315496237     -1.82665156224200
  H   0.45003710904560     -1.55050316400628      0.57292127842995
  C   -1.79818644466621     -0.27557009501362     -0.10774180624592
  H   -1.93730061664460     -1.34240616050429      0.08029191178101
  H   -1.91788456181670      0.27662757890646      0.82280311195209
  H   -2.54182332048890      0.05386944328398     -0.83453615957009
  C   -0.18540702853797      1.35942466913657     -1.00569129564562
  N   0.00137541757268      2.49927283236674     -1.21802907406935
  N   0.63581342871315      0.29787118186865      1.51015047332533
  H   1.15789394267604     -0.14469359234014      2.25606994018759
  H   1.05283230471905      1.20650000212305      1.33806681453954
  C   2.00090748621777     -0.51631228464255     -0.37206800251448
  N   3.07103366363473     -0.48000242787597     -0.85515113876367
