15
Coordinates from ORCA-job run
  C   -0.52400466626357     -0.20691720806641     -0.54993408047621
  C   0.88244485222831     -0.39091161484168      0.06123595808188
  F   -1.05138591830588     -1.49596113603460     -0.64073363316735
  H   1.46278654123875     -0.98118846071061     -0.66455518453685
  C   -1.45156063491394      0.64284158182040      0.28918558944397
  H   -1.09916103852198      1.67502873958189      0.32214522882327
  H   -2.44928132037969      0.62179568159543     -0.15117420721238
  H   -1.48094844912265      0.23763012308420      1.29943949162269
  C   -0.39502683725834      0.31769476381483     -1.91941293585324
  N   -0.28697576906746      0.74540370046883     -3.00772058896509
  N   0.74159591977024     -1.02210206123725      1.36602745787478
  H   0.43172634958376     -1.97724497708259      1.23329753538914
  H   1.63463394608532     -1.03954736861964      1.84279116549504
  C   1.52983604291159      0.91588834983324      0.20098824362125
  N   2.05532098201554      1.95858988639396      0.32141995985912
