15
Coordinates from ORCA-job run
  C   -0.36614127277212      0.31954358973737     -0.38517043474837
  C   0.66373501526067     -0.26190283463409      0.61782787771980
  F   0.34007358952965      0.66099164947820     -1.53374912930561
  H   0.12849420743425     -0.49023737552961      1.54704763912960
  C   -1.48123408227314     -0.63219097213853     -0.76139669583976
  H   -1.05544505687350     -1.52099589231706     -1.22816290807982
  H   -2.15261490068804     -0.14682969683640     -1.47054661579817
  H   -2.05202677740372     -0.92470158411036      0.12208675301384
  C   -0.89687554269288      1.56278945570141      0.20171545736142
  N   -1.31438162565822      2.53241091440941      0.71597441783087
  N   1.77287341161847      0.61323500445591      0.93289630588235
  H   2.21227915024638      0.93911140416474      0.08067233872393
  H   1.45481376986799      1.41333185408064      1.46602562219384
  C   1.17694338374400     -1.52823337759975      0.07361370550904
  N   1.56850673066020     -2.53732213886188     -0.37983433359296
