15
Coordinates from ORCA-job run
  C   -0.45305689667645     -0.16429255760777     -0.69907208887265
  C   0.90735262431063     -0.35885615040236      0.01182952641359
  F   -0.78623659880874     -1.38914937859393     -1.25182909582449
  H   1.57164930680612     -0.80376567563580     -0.73596143889011
  C   -1.55946445212867      0.26232312446601      0.24101836271994
  H   -1.32932605836286      1.22397744058668      0.70453233470533
  H   -2.49273607820720      0.35285340967379     -0.31567363876122
  H   -1.67742968012787     -0.50685799557378      1.00461672123288
  C   -0.28740226247495      0.79304067820044     -1.80807957336937
  N   -0.15760672714019      1.55534527485048     -2.69190464153653
  N   0.76264181569815     -1.28419340070424      1.12135587593016
  H   1.60839626343675     -1.82393605058024      1.24457108962146
  H   0.57311387804339     -0.79298128334989      1.98552832502933
  C   1.45322352720788      0.95323968080035      0.40184352754849
  N   1.86688133842400      1.98225288387027      0.79022471405319
