15
Coordinates from ORCA-job run
  C   -0.39176874501395      0.29618700990697     -0.37939565657021
  C   0.70842716241073     -0.22428811133496      0.58182575140415
  F   0.22475745351525      0.54003581921352     -1.60205163084334
  H   0.24635262600016     -0.36848875706409      1.56537468944969
  C   -1.54175784389135     -0.66391108445722     -0.59481605773668
  H   -1.16235524295345     -1.58964117418079     -1.02940745477441
  H   -2.26473203758180     -0.22054306804788     -1.28064057406889
  H   -2.04098906965420     -0.88540982077054      0.35080101407155
  C   -0.86204258037659      1.58769268210123      0.15255520073746
  N   -1.22690779670441      2.59883849463082      0.62525026293657
  N   1.84913277544771      0.65294504493357      0.73790246035384
  H   1.58522039117904      1.49420390984065      1.23606314388657
  H   2.21784649025846      0.90974599861471     -0.16972697008884
  C   1.16057009238792     -1.53890100731835      0.10233366587422
  N   1.49824632497649     -2.58946593606763     -0.29706784463169
