15
Coordinates from ORCA-job run
  C   -0.42455431833893     -0.15661970367687     -0.61435025433322
  C   0.96092015273499     -0.42811752081841      0.03647277291095
  F   -0.93793721523351     -1.41788448927507     -0.91659684632552
  H   1.56557790953033     -0.92277547881096     -0.73265847980002
  C   -1.40688779828137      0.55744719620459      0.28783450255614
  H   -2.36849140337042      0.64142219466385     -0.21946285163322
  H   -1.04781887914457      1.55711436164339      0.53744624249211
  H   -1.54933532965338     -0.02008715904211      1.20199530478728
  C   -0.23786737555231      0.56710845825681     -1.88066944066810
  N   -0.07240793310164      1.15239642375418     -2.88558955001310
  N   0.93580923902531     -1.28650373656790      1.20094588995814
  H   0.45549045055852     -2.15016233979460      0.98121711140542
  H   0.48250137580505     -0.83980484178334      1.98740091296684
  C   1.59292297755367      0.85320769514187      0.36547800978013
  N   2.05207814746825      1.89525894010457      0.65053667591617
