15
Coordinates from ORCA-job run
  C   -0.38608179281573      0.32212142483820     -0.36342360345882
  C   0.69054974336557     -0.26255749100501      0.58700786782220
  F   0.27386923502848      0.72287934965800     -1.52048574837791
  H   0.19157377293151     -0.53412530005144      1.52449584425876
  C   -1.48484211296175     -0.64872758961283     -0.73889833310839
  H   -2.01399649415912     -0.99441473162463      0.15164466623515
  H   -2.19614135940150     -0.15770485015464     -1.40417917778508
  H   -1.04847958812377     -1.50445132031637     -1.25579058112955
  C   -0.93246519163715      1.52866973200424      0.28307815340110
  N   -1.36007944241211      2.46634604148935      0.84597614565749
  N   1.78501259482057      0.63299252915833      0.89552742979407
  H   2.18015395805648      1.00776452736308      0.04159920266989
  H   1.46492445847477      1.39955834911230      1.47469770892540
  C   1.21920283264255     -1.49680848635815     -0.01314679711220
  N   1.61979938619118     -2.48154218450042     -0.51010277779210
