15
Coordinates from ORCA-job run
  C   -0.51712048518443     -0.21915844361259     -0.51716749141430
  C   0.90865794136874     -0.53043304255608      0.01943875720683
  F   -1.19053075448410     -1.44029532106043     -0.49061377054223
  H   1.35091407712273     -1.23896220763231     -0.69047714450517
  C   -1.29311297408935      0.77484946725223      0.31850602298103
  H   -2.29992528155383      0.88082100691773     -0.08698249289947
  H   -0.80351061070855      1.75001535537311      0.31454171959390
  H   -1.37133875220767      0.40744209374916      1.34256039588419
  C   -0.42730593424606      0.21440005763742     -1.91947919643379
  N   -0.33578382247694      0.56689226443081     -3.03623482223248
  N   0.95350096073790     -1.13376004673862      1.33363907261369
  H   0.36534552053343     -1.95740946379912      1.35433779026779
  H   0.65520753884094     -0.48875719780846      2.05354829190841
  C   1.70439751608516      0.70060647923275      0.00012583429248
  N   2.30060506026204      1.71174899861440      0.00325703327913
