15
Coordinates from ORCA-job run
  C   -0.39614504709651     -0.19791499535450     -0.72432269593482
  C   0.92731495452027     -0.29507718543161      0.07111137144574
  F   -0.61092702973332     -1.44628003991923     -1.28368045496309
  H   1.66687760107316     -0.69465539585470     -0.63011858212488
  C   -1.58499836268865      0.15797754716316      0.14162233074457
  H   -1.44920487574085      1.13511433792000      0.60960436354289
  H   -2.48600712529995      0.18234129207702     -0.47203898872846
  H   -1.69855887116591     -0.61361298082409      0.90327540616603
  C   -0.22700131115689      0.76123265352680     -1.83137270757439
  N   -0.09356679124928      1.52449662675576     -2.71386740617402
  N   0.77758007109003     -1.22470324757816      1.17643889657009
  H   1.64797403882611     -1.70723608145270      1.35333929672037
  H   0.50446587730233     -0.74476709139928      2.02436437657363
  C   1.35466972106266      1.05322424547905      0.48465028463299
  N   1.66752715025680      2.11086031489247      0.88999450910335
