15
Coordinates from ORCA-job run
  C   -0.36000549126750     -0.04456862918795     -0.64540162322583
  C   0.78952003953491     -0.55756462427644      0.26107492611780
  F   -0.30245195614902     -0.76422577604509     -1.82944698218832
  H   0.57279380949612     -1.61593170682191      0.44886872012163
  C   -1.72723041868937     -0.26101001073129     -0.02726325585730
  H   -1.85504005686239      0.33466994384208      0.87699921147125
  H   -2.49534583327772      0.03124993681551     -0.74435153925449
  H   -1.85154765047217     -1.32037350884257      0.20806359599361
  C   -0.13611157913848      1.38001823491902     -0.94342968654870
  N   0.04540770540027      2.52808308188369     -1.11234879317790
  N   0.94418769617646      0.11439833585575      1.53183589675167
  H   1.12086424084048      1.10466165322599      1.41414452303028
  H   0.14218355040241     -0.02585866049544      2.13018925766789
  C   2.05318583915744     -0.48982514931255     -0.48660013955994
  N   3.06059010484854     -0.41272312082880     -1.08333411134166
