17

C	-0.400364	0.112411	-1.464017
C	0.0	0.0	0.0
Br	-0.302023	-1.735622	-2.416506
H	1.098505	0.0	0.0
H	-1.465687	0.312674	-1.601295
N	0.391675	1.072371	-2.111343
H	0.217111	1.126626	-3.104986
H	1.379503	0.916475	-1.922147
C	-0.535828	-1.221547	0.728153
H	-0.085925	-2.139426	0.353266
H	-0.298473	-1.139094	1.792343
H	-1.624782	-1.301674	0.625279
C	-0.4638	1.283968	0.697314
H	-1.559681	1.34369	0.724767
H	-0.095324	1.292848	1.726452
H	-0.076761	2.166407	0.188216
Br	3.65429	0.0	0.0
