17

C	-0.456669	-0.002086	-1.450258
C	0.0	0.0	0.0
Br	0.11644	1.625397	-2.396142
H	1.096093	0.0	0.0
H	0.087154	-0.790713	-1.985745
N	-1.904963	-0.076879	-1.582124
H	-2.147763	-0.144426	-2.563647
H	-2.219784	-0.927687	-1.126929
C	-0.421022	-1.321614	0.653211
H	0.114459	-1.43543	1.599643
H	-0.153723	-2.18061	0.028612
H	-1.495742	-1.35799	0.871817
C	-0.508986	1.188358	0.804411
H	-1.601038	1.243687	0.785728
H	-0.174709	1.092983	1.841025
H	-0.10558	2.123422	0.413606
Br	3.697754	0.0	0.0
