17

C	-0.487155	-0.00343	-1.448074
C	0.0	0.0	0.0
Br	0.054532	1.647135	-2.377167
H	1.095849	0.0	0.0
H	0.042252	-0.790348	-1.990984
N	-1.910269	-0.177254	-1.677909
H	-2.426775	0.486676	-1.111861
H	-2.169533	-1.111518	-1.380987
C	-0.413537	-1.325413	0.648897
H	-0.123919	-2.17891	0.026971
H	0.10721	-1.434307	1.603025
H	-1.491529	-1.378378	0.840847
C	-0.492743	1.175871	0.832524
H	-0.104828	1.082688	1.850226
H	-1.588153	1.210222	0.89694
H	-0.13614	2.124063	0.429151
Br	3.680734	0.0	0.0
