16

C	-0.332671	0.043575	-1.505783
C	0.0	0.0	0.0
Cl	-0.003762	-1.583069	-2.294881
H	1.092069	0.0	0.0
N	-1.741569	0.272732	-1.735633
H	-1.94291	0.171502	-2.724383
H	-1.934791	1.232242	-1.465473
N	0.537164	1.051957	-2.004113
H	0.537578	1.058383	-3.016986
H	1.489498	0.879353	-1.650774
N	-0.522331	-1.161603	0.747404
O	-1.453386	-0.982256	1.540663
O	0.0521	-2.234518	0.568739
C	-0.481989	1.227419	0.606527
N	-0.822085	2.252343	1.071923
H	2.57333	0.0	0.0
