16

C	-0.330394	0.038419	-1.506866
C	0.0	0.0	0.0
Cl	-0.004631	-1.589515	-2.294738
H	1.092069	0.0	0.0
N	-1.737618	0.271909	-1.739954
H	-1.928639	1.232819	-1.475225
H	-1.938691	0.164997	-2.728014
N	0.542686	1.04247	-2.006161
H	1.495296	0.86582	-1.65547
H	0.539071	1.051369	-3.019532
N	-0.518588	-1.156049	0.757263
O	0.029837	-2.23806	0.555127
O	-1.416338	-0.96437	1.584864
C	-0.481969	1.232522	0.597061
N	-0.828374	2.262208	1.048156
H	2.569594	0.0	0.0
