16

C	-0.2732	-0.102837	-1.49903
C	0.0	0.0	0.0
Cl	-2.067419	-0.849774	-1.730234
H	1.091822	0.0	0.0
N	-0.289854	1.206265	-2.057597
H	-1.071149	1.750446	-1.704769
H	-0.368055	1.147949	-3.065777
N	0.650799	-0.972912	-2.09727
H	1.52479	-0.934505	-1.553924
H	0.825644	-0.717552	-3.060201
N	-0.361227	-1.197309	0.775253
O	0.039228	-2.272471	0.335913
O	-0.946821	-1.041747	1.852936
C	-0.564019	1.186053	0.595926
N	-0.957466	2.196196	1.052619
H	2.482302	0.0	0.0
