16

C	-0.299848	0.093953	-1.497881
C	0.0	0.0	0.0
Cl	0.110299	-1.731374	-2.161937
H	1.089831	0.0	0.0
N	-1.635901	0.377537	-1.842857
H	-2.241217	-0.311465	-1.411923
H	-1.757023	0.352189	-2.849377
N	0.639624	0.986863	-2.003301
H	0.646337	1.026219	-3.014464
H	1.574951	0.765182	-1.623844
N	-0.577912	-1.208021	0.656643
O	0.149762	-1.851522	1.402638
O	-1.765691	-1.456352	0.43291
C	-0.49922	1.164503	0.706351
N	-0.873915	2.090979	1.326128
H	2.634483	0.0	0.0
