16

C	-0.317456	-0.016125	-1.503055
C	0.0	0.0	0.0
Cl	-0.124528	1.762671	-2.065446
H	1.092317	0.0	0.0
N	0.652871	-0.842894	-2.106931
H	1.577057	-0.647958	-1.699743
H	0.665906	-0.730763	-3.112756
N	-1.692162	-0.325328	-1.807349
H	-1.869378	-0.127962	-2.785204
H	-1.793583	-1.321787	-1.642882
N	-0.362221	-1.254816	0.698947
O	-0.155029	-1.259409	1.914372
O	-0.749442	-2.235013	0.054082
C	-0.544778	1.10724	0.750072
N	-0.936322	2.018936	1.380678
H	2.515981	0.0	0.0
