16

C	-0.319967	-0.003247	-1.501455
C	0.0	0.0	0.0
Cl	-0.095933	1.771478	-2.052116
H	1.092284	0.0	0.0
N	0.63751	-0.844594	-2.109317
H	0.645769	-0.730051	-3.114754
H	1.566776	-0.655845	-1.710374
N	-1.699382	-0.28876	-1.806483
H	-1.823043	-1.275847	-1.606583
H	-1.85792	-0.131791	-2.794848
N	-0.356648	-1.25887	0.693938
O	-0.792256	-2.221555	0.053963
O	-0.09848	-1.28339	1.900018
C	-0.545516	1.100115	0.759826
N	-0.960586	1.997866	1.395409
H	2.514531	0.0	0.0
