17

C	0.0	0.0	0.0
C	-0.564082	-0.526281	-1.334044
Cl	1.794768	0.0	0.0
H	-1.656371	-0.386372	-1.223363
C	-0.480941	1.415869	0.289006
H	-0.085333	1.754887	1.249035
H	-0.126465	2.086327	-0.497736
H	-1.574359	1.400534	0.315429
C	-0.385553	-0.913156	1.083361
N	-0.607634	-1.664465	1.959667
C	-0.273205	-2.002566	-1.599826
H	-0.708917	-2.295175	-2.556664
H	-0.736597	-2.604318	-0.817305
H	0.80034	-2.201013	-1.62464
C	-0.091141	0.31007	-2.436053
N	0.291773	0.955839	-3.340714
Cl	-3.63953	0.0	0.0
