17

C	0.0	0.0	0.0
C	-0.292265	-0.353934	-1.516905
Cl	1.796269	0.0	0.0
H	0.48328	0.225014	-2.032145
C	-0.448297	1.419367	0.317262
H	0.140276	1.820377	1.142894
H	-1.506939	1.404339	0.577455
H	-0.269012	2.055786	-0.555376
C	-0.455592	-0.936705	1.01919
N	-0.67689	-1.647338	1.92882
C	-1.613054	0.014369	-2.213642
H	-2.082789	0.907398	-1.799509
H	-2.365036	-0.769371	-2.125432
H	-1.40612	0.204048	-3.27596
C	0.064197	-1.751026	-1.782943
N	0.340022	-2.864534	-2.039978
Cl	-3.820473	0.0	0.0
