17

C	0.0	0.0	0.0
C	-0.405797	-0.038265	-1.497954
Cl	1.79639	0.0	0.0
H	0.040742	0.861243	-1.940939
C	-0.567319	1.213716	0.715031
H	-0.290837	2.121529	0.173638
H	-0.172009	1.26765	1.730789
H	-1.657065	1.122026	0.760286
C	-0.409711	-1.235712	0.672634
N	-0.678582	-2.210366	1.271588
C	-1.914569	-0.053648	-1.735828
H	-2.103789	-0.133818	-2.809095
H	-2.400387	0.845341	-1.364854
H	-2.406342	-0.883492	-1.230239
C	0.21711	-1.187318	-2.166623
N	0.681272	-2.084005	-2.766507
Cl	-4.699387	0.0	0.0
