17

C	-0.55758	-0.311438	-1.388704
C	0.0	0.0	0.0
Cl	0.279524	-1.726002	-2.053574
H	1.105593	0.0	0.0
N	-1.97526	-0.536919	-1.531789
H	-2.463507	0.25859	-1.133902
H	-2.210177	-1.36743	-1.002291
N	-0.236846	0.895338	-2.28839
O	0.860852	0.966648	-2.815903
O	-1.126557	1.743499	-2.348018
C	-0.326272	-1.105662	1.009756
H	0.105589	-2.045555	0.664024
H	0.171109	-0.850465	1.947006
H	-1.397646	-1.235188	1.20468
C	-0.538935	1.25561	0.481069
N	-0.988843	2.250313	0.923031
F	2.510586	0.0	0.0
