17

C	-0.135857	0.169897	-1.527481
C	0.0	0.0	0.0
Cl	-0.338889	1.915741	-1.958993
H	1.106368	0.0	0.0
N	0.971939	-0.375838	-2.207586
H	0.771883	-1.31145	-2.529642
H	1.789532	-0.328206	-1.566924
N	-1.437737	-0.513927	-1.983751
O	-2.491249	-0.014426	-1.611205
O	-1.338292	-1.578174	-2.593262
C	-0.384601	-1.414532	0.437527
H	-0.065929	-1.5576	1.47182
H	-1.460291	-1.607572	0.368966
H	0.156609	-2.137546	-0.176078
C	-0.630797	1.002004	0.825822
N	-1.137789	1.761443	1.567072
F	2.609205	0.0	0.0
