17

C	-0.126714	0.371275	-1.49697
C	0.0	0.0	0.0
Cl	-1.653279	1.197699	-1.927019
H	1.107752	0.0	0.0
N	0.991319	1.119686	-1.970516
H	0.829655	2.098301	-1.771066
H	1.80961	0.797932	-1.409216
N	-0.122304	-0.98298	-2.241047
O	-1.190314	-1.533797	-2.486959
O	0.98823	-1.457106	-2.442054
C	-0.627253	-1.304721	0.463248
H	-0.467569	-1.414661	1.537946
H	-0.133881	-2.145082	-0.027898
H	-1.700892	-1.34901	0.259076
C	-0.421045	1.128466	0.806604
N	-0.748665	2.021158	1.498928
F	2.606809	0.0	0.0
