17

C	-0.084619	-0.031563	-1.52928
C	0.0	0.0	0.0
Cl	-0.151254	1.703829	-2.207735
H	1.098309	0.0	0.0
N	0.982988	-0.781085	-1.989128
H	1.095164	-0.759841	-2.991082
H	1.836652	-0.544332	-1.428216
N	-1.405064	-0.586597	-2.079535
O	-2.421195	-0.364238	-1.429207
O	-1.358047	-1.195165	-3.145459
C	-0.433192	-1.322728	0.636091
H	-0.045475	-1.359036	1.656618
H	0.017817	-2.144784	0.077353
H	-1.518645	-1.441584	0.660763
C	-0.599992	1.140818	0.653129
N	-1.052433	2.040752	1.258915
F	2.637247	0.0	0.0
