15
Coordinates from ORCA-job run
  C   -0.74723620425523      0.22464113745219     -0.51621795309435
  C   0.54482784924347      0.51206439027771      0.25129082867971
  F   -1.03681970741984      1.31034857753641     -1.28139077674311
  H   0.33566382120017      1.31345212816305      0.96360294417575
  N   -1.94621352963493      0.09483628626602      0.42877682214981
  O   -1.97782881608918      0.91976020522531      1.33117902121810
  O   -2.79383992550764     -0.73519691122038      0.14057357328920
  C   -0.63411535117469     -0.96555088601827     -1.35863136833060
  N   -0.44219506130118     -1.87242977537251     -2.08091058714755
  N   1.58805123578009      0.85403485241470     -0.63528742746286
  H   2.36688050582804      1.26730366291642     -0.14225075632784
  H   1.91519186162671      0.05249218724671     -1.16123281152057
  N   0.86548020700260     -0.71029205001675      1.13247868533135
  O   2.03172728296166     -0.82371936802554      1.48360942233041
  O   -0.06957416826004     -1.44374443684506      1.44441038345256
