15
Coordinates from ORCA-job run
  C   -0.74258211795074      0.20814772571512     -0.49716185612628
  C   0.57275258896148      0.42423635088781      0.26573031865355
  F   -0.94467559620406      1.33601589213909     -1.23640578517764
  H   0.38045803278539      1.18698714500928      1.02960846386686
  N   -1.94228917947703      0.14326597472667      0.44818325419244
  O   -2.78064901345986     -0.72243663511651      0.25034230429645
  O   -1.96586218276852      1.03144577407965      1.29051639782675
  C   -0.70258659736515     -0.96865660913011     -1.35850352255999
  N   -0.61475782845173     -1.90833776642361     -2.05775612104138
  N   1.60737647494214      0.71537391469199     -0.67456314719687
  H   1.75711903429348      1.71088608520047     -0.75462875994112
  H   2.46736251556313      0.26162372106881     -0.39235368872735
  N   0.89760956644051     -0.83856550059041      1.02948082729780
  O   2.07713020590943     -1.13573410170472      1.16548435456654
  O   -0.06540590321845     -1.44225197055351      1.49102696007024
