15
Coordinates from ORCA-job run
  C   -0.78963855493517      0.53242888736031     -0.27619108360006
  C   0.72403222676669      0.40736922247280     -0.03564964835034
  F   -1.26099950668736      1.71135833698301      0.17319573012327
  H   1.13267897627012      1.41242878698747     -0.17744450671102
  N   -1.53702089829836     -0.59369771484284      0.45943095132989
  O   -0.99711615949427     -1.69066416948079      0.37282347477897
  O   -2.58089227282365     -0.30679882133446      1.00996789622937
  C   -1.11542548263353      0.38218930320779     -1.69745063775914
  N   -1.43479464147753      0.30044744641846     -2.82517431437658
  N   1.34926522812027     -0.50636431802583     -0.90172009766529
  H   2.35516798362340     -0.42563639660826     -0.86719876164449
  H   1.06838062819314     -1.45809148165729     -0.70609783926346
  N   0.96019975237133      0.12987604808116      1.46906072307026
  O   2.00778337569532     -0.43943117595858      1.74376497910395
  O   0.11837934530959      0.54458604639706      2.25768313473469
