19

C	0.0	0.0	0.0
C	-0.574118	-0.103037	-1.409109
F	1.400679	0.0	0.0
H	-0.383977	-1.101369	-1.815427
C	-0.404929	1.273044	0.726932
H	-1.4788	1.274696	0.934257
H	-0.152699	2.125322	0.098047
H	0.136867	1.312185	1.677126
C	-0.41516	-1.234852	0.788062
H	-1.503223	-1.28349	0.869273
H	-0.046159	-2.137365	0.291722
H	0.01871	-1.190948	1.791366
N	-0.039503	0.839246	-2.388063
O	-0.386585	2.106331	-2.114285
O	-0.028336	0.391134	-3.625213
N	-2.020764	0.112666	-1.247315
H	-2.49976	-0.311245	-2.040891
H	-2.064187	1.13299	-1.400033
H	-3.074409	0.0	0.0
