19

C	0.0	0.0	0.0
C	-0.504812	-0.08445	-1.43647
F	1.40472	0.0	0.0
H	-1.609624	-0.088691	-1.358849
C	-0.491813	1.299893	0.595111
H	-0.142426	1.374543	1.62917
H	-0.127053	2.149788	0.018555
H	-1.590771	1.263667	0.57346
C	-0.478302	-1.172613	0.825145
H	-0.172349	-1.022845	1.864205
H	-1.575344	-1.189467	0.759586
H	-0.05727	-2.114612	0.469394
N	-0.111546	-1.4437	-2.016459
O	0.975106	-1.521211	-2.599743
O	-0.890172	-2.383816	-1.873091
N	0.008582	0.977934	-2.239011
H	1.009897	0.859521	-2.332897
H	-0.409435	0.954216	-3.15993
H	-3.289201	0.0	0.0
