19

C	0.0	0.0	0.0
C	-0.537616	-0.12916	-1.429404
F	1.403786	0.0	0.0
H	-1.62608	-0.277298	-1.310261
C	-0.491257	1.304818	0.586105
H	-0.095147	2.161684	0.03578
H	-0.164415	1.379118	1.627141
H	-1.590823	1.283148	0.541827
C	-0.461806	-1.162117	0.854127
H	-1.559563	-1.170161	0.833722
H	-0.108963	-1.014207	1.878883
H	-0.0698	-2.109757	0.480853
N	0.041212	-1.371344	-2.045491
O	-0.580378	-2.426738	-1.916916
O	1.124169	-1.262498	-2.617762
N	-0.270697	0.95797	-2.328657
H	-0.975596	1.66619	-2.18294
H	0.645991	1.347244	-2.150304
H	-3.27417	0.0	0.0
