19

C	0.0	0.0	0.0
C	-0.509242	-0.063439	-1.434273
F	1.405016	0.0	0.0
H	-1.613254	-0.074577	-1.353015
C	-0.490479	1.292075	0.613985
H	-0.142056	1.35067	1.649455
H	-0.122736	2.149383	0.050601
H	-1.589463	1.25876	0.590545
C	-0.477452	-1.183884	0.809315
H	-0.166737	-1.05011	1.849051
H	-0.059273	-2.121057	0.437917
H	-1.574826	-1.197909	0.747211
N	-0.110429	-1.408563	-2.039751
O	-0.880074	-2.356182	-1.911761
O	0.974141	-1.474662	-2.623957
N	-0.008407	1.013351	-2.22396
H	0.991798	0.903783	-2.333631
H	-0.438834	1.010235	-3.138824
H	-3.288616	0.0	0.0
