11

C	-0.49461	0.071592	-1.405717
C	-0.005353	-0.052544	0.031514
Br	0.099967	-1.451576	-2.493824
H	1.087286	-0.064794	0.020713
H	-1.583431	0.034643	-1.476361
H	-0.270793	0.86344	0.571137
C	-0.057718	1.314226	-2.038521
N	0.147665	2.335768	-2.58194
C	-0.602972	-1.194147	0.699809
N	-1.058529	-2.121789	1.261858
H	2.622536	0.280584	-0.192165
