11

C	-0.508654	0.032056	-1.425071
C	-0.001051	3e-05	0.014523
Br	0.042588	-1.597334	-2.370784
H	1.091403	0.018986	0.018295
H	-1.598925	0.01223	-1.475615
H	-0.320344	-0.934864	0.484596
C	-0.051899	1.199002	-2.175586
N	0.224702	2.150682	-2.806615
C	-0.550298	1.125725	0.751528
N	-0.986165	2.040055	1.349612
H	2.691101	-0.030563	-0.084295
