11

C	-0.512582	0.044083	-1.424848
C	-0.005427	0.004117	0.014558
Br	0.02393	-1.589233	-2.372637
H	1.087177	0.015144	0.015631
H	-1.602998	0.033426	-1.474752
H	-0.33573	-0.928194	0.482285
C	-0.046108	1.207705	-2.174324
N	0.234109	2.158267	-2.805507
C	-0.542767	1.133509	0.754848
N	-0.971071	2.050719	1.353893
H	2.685747	-0.009442	-0.100998
