14

C	-0.393491	-0.099426	-1.45878
C	0.0	0.0	0.0
F	-0.270903	1.193765	-2.042418
H	1.096239	0.0	0.0
H	-1.452233	-0.351496	-1.604631
H	-0.360715	0.950913	0.399333
N	0.421744	-1.057122	-2.114299
H	1.400917	-0.879007	-1.898858
H	0.282754	-1.029252	-3.116048
C	-0.512788	-1.182479	0.812728
H	-1.608342	-1.222524	0.827468
H	-0.160809	-1.118587	1.844978
H	-0.141275	-2.116486	0.38865
Br	3.741139	0.0	0.0
