14

C	-0.488603	0.044449	-1.430064
C	0.0	0.0	0.0
F	-0.172261	-1.184056	-2.060042
H	1.093359	0.0	0.0
H	0.05265	0.803473	-1.999317
H	-0.316761	0.934604	0.47446
N	-1.893722	0.300859	-1.534003
H	-2.399751	-0.415713	-1.027805
H	-2.172478	0.245507	-2.506299
C	-0.515679	-1.201572	0.786363
H	-0.251759	-2.128088	0.275095
H	-0.047102	-1.221909	1.772263
H	-1.601208	-1.181432	0.937433
Br	3.805368	0.0	0.0
