14

C	-0.511849	-0.06485	-1.423945
C	0.0	0.0	0.0
F	-0.149837	-1.297241	-1.955244
H	1.092821	0.0	0.0
H	-0.029418	0.701926	-2.038663
H	-0.344136	-0.901664	0.521231
N	-1.943051	0.064811	-1.594001
H	-2.199922	1.041639	-1.561374
H	-2.417722	-0.405334	-0.830357
C	-0.470024	1.260352	0.72153
H	-0.000676	1.324159	1.704765
H	-1.555454	1.293265	0.858351
H	-0.168088	2.154132	0.166459
Br	3.78252	0.0	0.0
