17
Coordinates from ORCA-job run
  C   0.48988152104300     -0.41757198782037      0.08834551483587
  C   -0.96519965190820     -0.21796386514760     -0.37289211997384
  H   0.56509262081268     -1.47777434626002      0.37067257747863
  H   -1.10825198887901     -0.80682898420413     -1.29373526856315
  C   0.81593986589078      0.43905840151490      1.30648767124584
  H   0.80051156332538      1.50056247956437      1.04332481047505
  H   0.09373123296575      0.27626938090890      2.10640370077836
  H   1.81533095852496      0.20066989849772      1.67974942214933
  C   1.45736778036647     -0.15519406440044     -1.06173622003629
  H   1.41819463513122      0.89366124429213     -1.36922529742766
  H   1.22846734234762     -0.77491960699988     -1.93367176803193
  H   2.48292564762748     -0.37413601405356     -0.75491398467235
  C   -1.19023985777086      1.18783273036633     -0.73875211175178
  N   -1.35953879679441      2.30836525972739     -1.04497003932557
  N   -1.89760506001149     -0.58382619835853      0.69467457012672
  H   -1.79611126962951     -1.57493230573977      0.88434014983159
  H   -2.85249654304188     -0.42527202188743      0.39389839286119
