17
Coordinates from ORCA-job run
  C   0.52363852734806     -0.46132737994311      0.08030498272629
  C   -0.92703310200451     -0.35595406940918     -0.41611576558794
  H   0.64700206184352     -1.51585148679881      0.35320738518106
  H   -1.03148142822624     -1.01900995233788     -1.28215231356559
  C   0.76305374411016      0.39642838593597      1.31905389433818
  H   1.80183281140630      0.30397633301896      1.64577953621309
  H   0.57423168762248      1.45374858737320      1.10828117515804
  H   0.13345651400728      0.08522351945842      2.15570692830579
  C   1.50270120289394     -0.10854024807863     -1.03570377120972
  H   1.41759259451603      0.94486058619872     -1.31675079829028
  H   1.32659920181561     -0.71383671283126     -1.92979665199654
  H   2.53080185639552     -0.28535627536742     -0.71064024260340
  C   -1.20671858569250      1.01940323120239     -0.88573658570925
  N   -1.44714587541895      2.12246812839517     -1.21189089106889
  N   -1.86989694953202     -0.81895153700955      0.59898068144802
  H   -2.79186414790351     -0.91855337735500      0.18976247037890
  H   -1.94777011318117     -0.12872773245200      1.33670996628223
