17

C	0.0	0.0	0.0
C	-0.518024	-0.025169	-1.433982
Br	1.968452	0.0	0.0
H	-1.609603	-0.1384	-1.373311
H	-0.241371	0.884203	-1.964052
C	-0.475729	1.306122	0.621206
H	-1.570523	1.293436	0.618594
H	-0.11658	1.383529	1.649799
H	-0.111376	2.169661	0.058999
C	-0.470081	-1.184635	0.828623
H	-0.093288	-2.128612	0.439167
H	-1.563888	-1.187677	0.801716
H	-0.131267	-1.062805	1.860443
N	0.018102	-1.141318	-2.256907
O	0.751988	-0.847583	-3.20311
O	-0.304749	-2.288896	-1.952611
Cl	-3.797638	0.0	0.0
