17

C	0.0	0.0	0.0
C	-0.195347	0.43821	-1.472111
Br	1.974269	0.0	0.0
H	0.421371	1.315076	-1.663114
H	0.100548	-0.374648	-2.134061
C	-0.519865	1.01957	0.990199
H	-1.61466	1.002931	0.930755
H	-0.160017	2.023771	0.758425
H	-0.210385	0.751254	2.003966
C	-0.545979	-1.384942	0.261768
H	-1.6384	-1.324585	0.167226
H	-0.150487	-2.112434	-0.450977
H	-0.296746	-1.710063	1.274913
N	-1.553541	0.868517	-1.935841
O	-2.135981	0.127741	-2.720771
O	-1.90964	1.990658	-1.590215
Cl	-3.976438	0.0	0.0
