14

C	0.0	0.0	0.0
C	-0.462006	-0.017269	-1.46795
F	1.408416	0.0	0.0
H	0.455092	-0.03814	-2.065074
H	-0.996591	-0.963249	-1.602473
C	-0.318619	1.29276	0.678823
N	-0.42247	2.267085	1.326193
N	-0.514749	-1.127819	0.69845
H	-1.544878	-0.957008	0.573701
H	-0.297515	-1.022804	1.6852
N	-1.257076	1.158062	-1.803681
H	-1.518573	1.085166	-2.781669
H	-2.102931	0.997689	-1.232362
F	-2.770037	0.0	0.0
