14

C	0.0	0.0	0.0
C	-0.289538	-0.500505	-1.463181
F	1.412806	0.0	0.0
H	-0.305097	-1.596691	-1.383725
H	0.600758	-0.229935	-2.040231
C	-0.376941	1.430071	0.109596
N	-0.564634	2.587446	0.149016
N	-0.56851	-0.72424	1.077955
H	-1.593888	-0.528987	0.913581
H	-0.430128	-1.711063	0.874505
N	-1.472712	-0.055982	-2.165561
H	-2.238677	-0.091133	-1.462552
H	-1.349464	0.928078	-2.380084
F	-2.864953	0.0	0.0
