14

C	0.0	0.0	0.0
C	-0.463591	-0.037231	-1.454341
F	1.374427	0.0	0.0
H	-1.533902	0.175361	-1.397394
H	0.082489	0.751716	-1.98456
C	-0.354428	1.329988	0.590823
N	-0.508885	2.368917	1.11649
N	-0.564297	-1.09086	0.717818
H	-1.601645	-0.875859	0.565493
H	-0.352149	-0.979376	1.704224
N	-0.154706	-1.352903	-2.047537
H	-0.11878	-2.005197	-1.268663
H	-0.967796	-1.629348	-2.586333
F	-2.798582	0.0	0.0
