18

C	-0.390605	0.024466	-1.485347
C	0.0	0.0	0.0
Br	-0.105295	-1.831207	-2.324399
H	1.099528	0.0	0.0
N	-1.790397	0.274579	-1.644153
H	-1.975738	1.096643	-1.074214
H	-2.012599	0.451729	-2.617049
N	0.47282	0.961631	-2.116839
H	1.447938	0.748082	-1.899002
H	0.344582	0.961039	-3.122621
C	-0.583151	-1.141923	0.800896
H	-0.188207	-2.097833	0.462955
H	-1.6727	-1.150334	0.713798
H	-0.30522	-1.021299	1.853072
N	-0.498234	1.288154	0.542306
H	0.178776	2.000567	0.28834
H	-0.487329	1.222524	1.555627
Cl	3.547879	0.0	0.0
