18

C	-0.218711	-0.02059	-1.513603
C	0.0	0.0	0.0
Br	-2.216808	-0.053867	-1.885373
H	1.101767	0.0	0.0
N	0.26533	1.167925	-2.171653
H	-0.064399	1.956475	-1.61998
H	1.279057	1.138332	-2.048136
N	0.354699	-1.210231	-2.06252
H	1.285797	-1.31207	-1.657045
H	0.453996	-1.076482	-3.06341
C	-0.515702	-1.222961	0.73979
H	-0.127628	-1.214952	1.762696
H	-0.196124	-2.145361	0.25365
H	-1.609981	-1.216437	0.775678
N	-0.44798	1.275339	0.550935
H	-1.390341	1.177857	0.913198
H	0.164861	1.528764	1.316585
Cl	3.411477	0.0	0.0
