18

C	-0.281575	-0.065545	-1.492676
C	0.0	0.0	0.0
Br	-2.414791	-0.603931	-1.729234
H	1.098961	0.0	0.0
N	-0.131263	1.173424	-2.089971
H	-0.428789	1.2082	-3.053819
H	-0.545408	1.891188	-1.506686
N	0.397932	-1.162735	-2.082848
H	1.373397	-1.09788	-1.779485
H	0.363404	-1.103076	-3.093041
C	-0.445253	-1.228841	0.776141
H	-1.527295	-1.223458	0.931714
H	0.061654	-1.233855	1.7452
H	-0.18139	-2.140738	0.239565
N	-0.474572	1.267263	0.548889
H	-1.329161	1.114985	1.071148
H	0.230577	1.633356	1.176607
Cl	3.406743	0.0	0.0
