16

C	0.0	0.0	0.0
C	-0.364734	-0.078729	-1.53737
Br	1.953826	0.0	0.0
H	0.460974	-0.606236	-2.027964
H	-0.297322	0.967131	0.409378
N	-0.515505	-1.018619	0.862575
H	-1.519872	-0.849861	0.944382
H	-0.389869	-1.92947	0.434249
C	-0.449894	1.337208	-2.090872
H	-1.328807	1.834361	-1.669803
H	-0.56711	1.303746	-3.175657
H	0.441434	1.920126	-1.844291
N	-1.573037	-0.788765	-1.891478
H	-2.394139	-0.399954	-1.423844
H	-1.515267	-1.75845	-1.605356
Cl	-4.035646	0.0	0.0
