16

C	0.0	0.0	0.0
C	-0.492438	0.349102	-1.412849
Br	1.97094	0.0	0.0
H	-1.582181	0.291136	-1.319249
H	-0.236921	0.83702	0.667466
N	-0.508611	-1.271166	0.419641
H	-0.33809	-1.39484	1.411424
H	-1.525521	-1.203608	0.298299
C	-0.032752	-0.644393	-2.466258
H	-0.616584	-0.488438	-3.375754
H	-0.172295	-1.667724	-2.115606
H	1.023211	-0.498429	-2.707951
N	-0.175675	1.711265	-1.833012
H	-0.70333	2.360397	-1.25961
H	0.811458	1.889456	-1.67607
Cl	-3.643329	0.0	0.0
