16

C	0.0	0.0	0.0
C	-0.417305	0.148049	-1.513713
Br	1.956436	0.0	0.0
H	0.468431	-0.103117	-2.103593
H	-0.254406	0.902352	0.56632
N	-0.508032	-1.218302	0.568813
H	-0.279639	-1.245446	1.556647
H	-1.525694	-1.150847	0.497707
C	-0.787991	1.600384	-1.778555
H	-0.978951	1.740908	-2.844472
H	0.017548	2.274327	-1.469033
H	-1.700389	1.847841	-1.229286
N	-1.479204	-0.716214	-1.982791
H	-2.354944	-0.49017	-1.510736
H	-1.250505	-1.677488	-1.760315
Cl	-3.924116	0.0	0.0
