15
Coordinates from ORCA-job run
  C   -0.74975068942984      0.01549086022355     -0.28610685266908
  C   0.75277714659117      0.15350035242504     -0.52268593588077
  F   -1.42965591118156      0.63753584356852     -1.24476335119085
  H   0.86807291039810     -0.09593477136751     -1.58314910563405
  N   -1.14766706655049     -1.45388623503970     -0.30893934898773
  O   -1.49859314732222     -1.97056363286026      0.74261614720831
  O   -1.03805257034251     -1.97223537387624     -1.41224646405843
  N   -1.18016910604346      0.57256814940846      1.05195555682829
  O   -0.32949712811698      0.56008133283177      1.93427590552568
  O   -2.33671707872666      0.95644850346765      1.12628624846010
  C   1.51924298819155     -0.83666138708813      0.25207985202176
  N   2.18613100896581     -1.60235178713238      0.84269236829143
  N   1.11974062465118      1.53748040774010     -0.32087397427756
  H   1.89457196961466      1.79326593731453     -0.91685468836298
  H   1.37056604930126      1.70626180038461      0.64471364272588
