15
Coordinates from ORCA-job run
  C   -0.73800363058518     -0.00068882695881     -0.17520142327315
  C   0.73850884753401      0.10670285405678     -0.54482890341904
  F   -1.45489160532311      0.74289697122528     -1.02879912309011
  H   0.79345347372990     -0.18691751842978     -1.60173432561185
  N   -1.28518097258903     -1.40987139716991     -0.25718275744126
  O   -2.31065282583730     -1.62989175670811      0.37303087356826
  O   -0.68927488338308     -2.16806403337140     -1.01546455249572
  N   -0.98237151706522      0.48551142349391      1.23367980762129
  O   -1.69140804474019      1.46522195642573      1.37616910855640
  O   -0.41348849808398     -0.18155286206267      2.08700928880310
  C   1.58103635528152     -0.82064364204559      0.20998860748852
  N   2.33751529226189     -1.52924252449862      0.76086848590926
  N   1.11818836642478      1.48706998144990     -0.27491106941544
  H   0.89087501113274      2.07811556253888     -1.06366527444236
  H   2.10669463124225      1.56135381205441     -0.07995874275788
