15
Coordinates from ORCA-job run
  C   -0.41765777781967     -0.66396332387585      0.20200895539106
  C   0.87146372079335     -0.07033622472778     -0.35448728930022
  F   -0.24455874919218     -1.93935109949456      0.55209069310282
  H   1.18674323964674     -0.80889885658954     -1.10000193867702
  N   -0.97279443315066      0.08370139575801      1.39613626027161
  O   -0.62497053611107      1.25340386417543      1.51320739662858
  O   -1.72843050038990     -0.55027484847816      2.11582036673882
  N   -1.47472511998914     -0.60110641619865     -0.89166865813008
  O   -2.40102523473649      0.18002140587037     -0.74332461528749
  O   -1.25275031356018     -1.35229087854830     -1.82922051908604
  C   1.88886043267005     -0.03928528056469      0.71225086547655
  N   2.71960466839949      0.02140683810102      1.54054909717438
  N   0.60383900854363      1.17207515997998     -1.03742164576444
  H   1.34093502199250      1.38244257060039     -1.69630813618221
  H   0.50446657290352      1.93345569399233     -0.37963083235632
