15
Coordinates from ORCA-job run
  C   -0.64766304726773      0.12342042635185      0.09441094309120
  C   0.85842579735928     -0.01244932680738     -0.04736831261828
  F   -1.05733724727520      1.36399375369700     -0.14388366049582
  H   1.10601015145401     -1.05481107277913      0.15752755790800
  N   -1.31916400033898     -0.82130630653708     -0.89588068094671
  O   -0.99323632939529     -1.99403127205459     -0.77244466299935
  O   -2.09824586573631     -0.32559685663559     -1.69000656622648
  N   -1.15206891621221     -0.30026121484110      1.46359775705414
  O   -0.45144341847155     -1.09971947672112      2.07297549564570
  O   -2.22900999695849      0.17219028785595      1.79950606286589
  C   1.51295165793241      0.84530887157896      0.95698114389061
  N   2.06376569837114      1.56883174368461      1.70062800736857
  N   1.17140418035607      0.29520421130381     -1.42770196184115
  H   1.14809694052501      1.29360196085510     -1.59457643849943
  H   2.08751439565780     -0.05537572895129     -1.67276468419696
