15
Coordinates from ORCA-job run
  C   -0.64814007056534      0.14216905311470      0.06217895646095
  C   0.85887406830745     -0.03548883453710     -0.00804299634590
  F   -1.01296556400452      1.38945379117093     -0.21049104677253
  H   1.06698557790550     -1.08214908797662      0.21760632175242
  N   -1.29861273715755     -0.79814231844189     -0.94663381338021
  O   -1.00544415905439     -1.97659605502175     -0.79887786846330
  O   -2.03176383215963     -0.29301195081310     -1.77777212382612
  N   -1.22567037908503     -0.24911024206855      1.41200483278662
  O   -2.29593140402824      0.26747571149701      1.70057675576319
  O   -0.57952768534095     -1.06649256497860      2.05700027175082
  C   1.48965013117679      0.81498915443018      1.01697178441717
  N   2.02398563479291      1.52868717695224      1.78183305359447
  N   1.24307021100060      0.24808974493054     -1.37549392348884
  H   1.25869253013830      1.24466489359400     -1.55306393200925
  H   2.15679767807419     -0.13453847185202     -1.57679627223952
