15
Coordinates from ORCA-job run
  C   -0.41309869772682     -0.60728834220162      0.16516626313335
  C   0.96717401024609     -0.11913677329051     -0.32030926840811
  F   -0.35886029112550     -1.89496585684942      0.51665541325149
  H   1.28315672957566     -0.88775260076182     -1.03334939715868
  N   -0.91859958829624      0.20399441994791      1.33607552755422
  O   -1.01676324312542      1.40431358581033      1.10435749533062
  O   -1.15171367903783     -0.38653358969008      2.37663657276137
  N   -1.46330934762405     -0.49887117889446     -0.92671873318850
  O   -1.04989536531950     -0.66415193688761     -2.06965530435121
  O   -2.62214376559876     -0.34595801293761     -0.56549803336778
  C   1.86145838008239     -0.18308410149514      0.84508415791979
  N   2.55179867961361     -0.22494369416077      1.79365429185262
  N   1.05913961482584      1.16176165367937     -0.96349752726265
  H   0.66634704198351      1.89790908101349     -0.39295876037581
  H   0.60830952152697      1.14270734671790     -1.86764269769073
