15
Coordinates from ORCA-job run
  C   -0.50759911274614     -0.55328132382059      0.30441812872497
  C   0.90826549060169     -0.20943176854023     -0.14388545075889
  F   -0.51940572315906     -1.66567840335174      1.04012448885075
  H   1.27460938515564     -1.15273184522612     -0.56416055040949
  N   -1.18492307350127      0.54542660652282      1.09636828188942
  O   -0.75232253745357      1.68030781998926      0.92874773489946
  O   -2.10933343258934      0.19266891671014      1.81176484857834
  N   -1.35111911498014     -0.78738092250917     -0.94100230042419
  O   -1.04476365633532     -1.79804956523669     -1.55524784593597
  O   -2.20995336761855      0.03723300444404     -1.21015408930204
  C   1.72679073152400      0.10702151376370      1.04109426574531
  N   2.40811910723588      0.38486166958506      1.95681483056469
  N   0.88146708407942      0.77324393309093     -1.19960463381593
  H   1.73685976490576      0.74284598059223     -1.73726920849800
  H   0.74330845488102      1.70294438398638     -0.82700850010844
