15
Coordinates from ORCA-job run
  C   -0.38049265234665     -0.61803723650159      0.32444632269648
  C   0.90470375574935     -0.00456826868548     -0.24042951625108
  F   -0.12461594817889     -1.62769488227950      1.15679206880684
  H   1.30816802363114     -0.74589159130268     -0.94610415346078
  N   -1.18409493477063      0.44018304425089      1.06062185709292
  O   -2.13326320979322      0.92928815190119      0.46827416059737
  O   -0.75715424994382      0.70602198169636      2.17374558079482
  N   -1.28025933126490     -1.15099286428849     -0.77723028157121
  O   -2.16559291948978     -1.90662631047419     -0.40782053153411
  O   -1.03977415261665     -0.77960903070793     -1.92119084301146
  C   1.87584706211751      0.14054141945026      0.84854191674442
  N   2.70514858851312      0.26732821829541      1.66923223346641
  N   0.60539666259772      1.29219949911094     -0.81679144210282
  H   0.23732403903194      1.17893126916749     -1.75173302968326
  H   1.42865926676380      1.87792660036739     -0.84135434258454
