15
Coordinates from ORCA-job run
  C   -0.63321281607755      0.07155807000877      0.19355228586150
  C   0.84413957502615      0.04505437653642     -0.15787568511250
  F   -1.11698118409298      1.30832838185103      0.20487201666918
  H   1.15689967578530     -0.99987805726301     -0.14840720176798
  N   -1.39582689684098     -0.75190907414316     -0.83788680496216
  O   -2.29126019597114     -0.18900389076980     -1.44162610083357
  O   -1.01298824897958     -1.90955405849873     -0.93920768492654
  N   -0.93385785824288     -0.57986627764236      1.53294893129964
  O   -0.12461708009160     -1.41364898353595      1.92177006976137
  O   -1.97468901517993     -0.22711452471188      2.06972294662575
  C   1.59531107090369      0.78102103325149      0.87491414968937
  N   2.21475567512735      1.40309911674737      1.65537140178536
  N   0.95615821913346      0.57013959509515     -1.50338052239564
  H   0.87397045860833      1.57928065408840     -1.51023761433907
  H   1.84319862089240      0.31249363898626     -1.91453018735477
