15
Coordinates from ORCA-job run
  C   -0.77371676468675     -0.08752242307603     -0.19654392409574
  C   0.66090102258091      0.23264216373921     -0.61100566145107
  F   -1.63418744493740      0.41805768628233     -1.07532663041374
  H   0.68284497891552     -0.02660527219310     -1.67514594434900
  N   -0.97980595826815     -1.59556583688956     -0.15530189567159
  O   -1.13689711272588     -2.12442940373165      0.93628149862912
  O   -0.93293884661925     -2.12511520302886     -1.25767508977308
  N   -1.11449790036184      0.44601930570979      1.17654554655651
  O   -2.29448885040461      0.68179796191626      1.38258440783126
  O   -0.17292283404876      0.56585020373280      1.95194038463588
  C   1.63310709269458     -0.63248593790684      0.07788776468148
  N   2.45571179869834     -1.28045393853907      0.61016684927143
  N   0.86862421652576      1.65639222905663     -0.46764615742617
  H   1.20807467457356      1.87902660528630      0.45917432358680
  H   1.52819192806401      1.99339185964179     -1.15493547201207
