15
Coordinates from ORCA-job run
  C   -0.50855544484349     -0.57284607690027      0.21404217219291
  C   0.86612597124438     -0.15608079794214     -0.31782177075528
  F   -0.47720059921401     -1.78128160852197      0.77642416558078
  H   1.05003531043445     -0.78236501305933     -1.20331339831432
  N   -1.00062982409476      0.43729940795668      1.23687147797713
  O   -0.48395846012229      0.32625579480618      2.33799254860184
  O   -1.81982074362062      1.25875112216943      0.85569180316770
  N   -1.55152815451481     -0.60864808789331     -0.88896075830285
  O   -1.26845561278119     -0.04594382658665     -1.94145698253378
  O   -2.58156003393717     -1.20416468982470     -0.61395095262709
  C   1.88215363931255     -0.49770787155888      0.68257902797491
  N   2.74768077853464     -0.75676526734996      1.43166401099649
  N   0.87284532956662      1.27382755953584     -0.56545417983879
  H   1.81439814545928      1.64050050591691     -0.53627874397709
  H   0.45846969857646      1.46916884925216     -1.46702842014259
