15
Coordinates from ORCA-job run
  C   -0.77796644470395     -0.06854517119203     -0.18815474327648
  C   0.66244263146643      0.19926760869544     -0.61903850002181
  F   -1.62962389782279      0.44293407062732     -1.07190253513180
  H   0.67015191133707     -0.08620146130924     -1.67665287405269
  N   -1.02783354138873     -1.56861205968864     -0.11174120059126
  O   -1.00703637835235     -2.12336649037113     -1.20251597940375
  O   -1.18921534466743     -2.06866358617441      0.99267477035555
  N   -1.09222337147632      0.50470385113219      1.17509907906161
  O   -2.26328030494236      0.77919064977572      1.38438282420552
  O   -0.14152442661892      0.61392192531672      1.94091818069883
  C   1.61433706452937     -0.67716346003400      0.08360029440674
  N   2.42752527495038     -1.34297413653619      0.60827059175226
  N   0.91232981731237      1.61951176324522     -0.51168203353686
  H   1.57697331115867      1.92038574366728     -1.21073010084205
  H   1.26394369921856      1.85461075284574      0.40747222637624
