15
Coordinates from ORCA-job run
  C   -0.64103407465745      0.08515908296426      0.15838233993084
  C   0.85094954054276      0.03159264736735     -0.12059678293262
  F   -1.11642315814339      1.32217355973736      0.07155314070622
  H   1.15538077624094     -1.01225267668795     -0.03405385132577
  N   -1.36009000656360     -0.79703243398163     -0.85580024372430
  O   -2.22404975316074     -0.26887601512137     -1.53250338357527
  O   -0.97986779770635     -1.95977782251769     -0.86949316362601
  N   -1.00823758946405     -0.48188779445147      1.51943478365412
  O   -2.06867941819316     -0.09019719875746      1.98625486694588
  O   -0.22512080496908     -1.29590244833109      1.99417185195118
  C   1.55741436341796      0.82565596463308      0.90061467067957
  N   2.14210482090552      1.49483388981061      1.66883572207377
  N   1.02966347022813      0.47425688131572     -1.48843802931888
  H   0.95394649294456      1.48145346781837     -1.55947888270030
  H   1.93404313857800      0.18980089620196     -1.83988303873842
