15
Coordinates from ORCA-job run
  C   -0.65509142442718      0.02510576806690      0.09952256518609
  C   0.85239068081409      0.11796979492578     -0.06251329141513
  F   -1.25357861344762      1.17993108866851     -0.16807476796308
  H   1.25982396118209     -0.86730229502755      0.16770518786865
  N   -1.18431324027987     -1.04176977564384     -0.85274192438259
  O   -0.67672371309204     -2.14504309464651     -0.70487229348549
  O   -2.04375602469941     -0.69726020162808     -1.64402478653632
  N   -1.07230188559212     -0.42880150937131      1.48828474538591
  O   -2.19998551401576     -0.10548941090817      1.83421934104514
  O   -0.25239048642265     -1.09845251427007      2.10524569268593
  C   1.37463498800696      1.09656601986501      0.90804876757947
  N   1.77675084213326      1.91948986916951      1.64356423582890
  N   1.09801127938745      0.42759952303716     -1.45624976533786
  H   2.05344591175160      0.21181664351590     -1.70685871941663
  H   0.92208323870116      1.40564009424675     -1.65025498704302
