15
Coordinates from ORCA-job run
  C   -0.78372594490683     -0.05849390359989     -0.16770732085220
  C   0.64979762268028      0.17863504393951     -0.63778703652933
  F   -1.64863052969707      0.45289541722596     -1.03854590571895
  H   0.62648854235590     -0.12249113990276     -1.69082596065907
  N   -1.05623658262708     -1.55275683195084     -0.06081021370040
  O   -1.07004589454105     -2.12524884345455     -1.14246596584834
  O   -1.20054145960540     -2.03207583089959      1.05511625995168
  N   -1.05422186110328      0.54179795967014      1.19335461341612
  O   -2.21395017556749      0.84381380364309      1.42604843493973
  O   -0.08317522998270      0.64288023017423      1.93435945486566
  C   1.60439955301865     -0.70350598100366      0.05408695113323
  N   2.42244454685095     -1.37668249390870      0.56154034671478
  N   0.92558934911597      1.59584068327902     -0.55766851905637
  H   1.30444127943706      1.83809019789794      0.34874388958837
  H   1.57736678457211      1.87530168889014     -1.27743902824494
