15
Coordinates from ORCA-job run
  C   -0.41713136109564     -0.58636794365274      0.33968540702727
  C   0.90015896580450     -0.06857595953559     -0.24645525405304
  F   -0.21879534848609     -1.59396933962728      1.18998790807520
  H   1.24917155633396     -0.84901578038026     -0.93888885360043
  N   -1.14437612723839      0.53542184595995      1.06099792375428
  O   -2.06251465628308      1.07556164277765      0.46389693267634
  O   -0.69460129574291      0.79279766234772      2.16703101891467
  N   -1.35907224111309     -1.08097463312885     -0.74370059516325
  O   -1.10533550981439     -0.74835501301536     -1.89674878636096
  O   -2.28814341178408     -1.77049383685877     -0.35282636794059
  C   1.88713103891830      0.03652193775582      0.83294316157627
  N   2.73165131665763      0.13666200879744      1.64172350932064
  N   0.68146608401377      1.23350575582640     -0.84740256288817
  H   1.54298834802359      1.76025208532057     -0.89227379464566
  H   0.29840264180594      1.12502956741329     -1.77696964669256
