15
Coordinates from ORCA-job run
  C   -0.43943474007019     -0.64635474266323      0.21201092334677
  C   0.87273008351827     -0.10402892544924     -0.34304635587685
  F   -0.30772454528322     -1.91808788760108      0.59213089740011
  H   1.17444705925462     -0.86875557653564     -1.06748779366746
  N   -0.98439462774628      0.14426762695796      1.38278206152948
  O   -1.76471827542021     -0.45089946322878      2.10917914430734
  O   -0.60476899517759      1.30619595783166      1.47565239663545
  N   -1.48246441247365     -0.57684854646350     -0.89455792008320
  O   -1.27416728019719     -1.35604053657571     -1.81207093726230
  O   -2.38511641104858      0.23629553519450     -0.77488905193886
  C   1.87820101511359     -0.07882664620690      0.73530314559801
  N   2.69948241956444     -0.02703719130923      1.57355417641168
  N   0.65050442865500      1.12931951174811     -1.05771713531889
  H   1.40164749883127      1.30213633778289     -1.71163904544575
  H   0.56577678247967      1.90866454651827     -0.41920450563552
