12

C	0.0	0.0	0.0
C	-0.485181	-0.053833	-1.431277
F	1.377616	0.0	0.0
H	-1.577815	-0.167952	-1.431931
H	-0.369444	0.92636	0.444855
H	-0.198234	0.852652	-1.962393
C	-0.425805	-1.127741	0.848187
N	-0.603165	-2.008266	1.603173
N	0.121341	-1.176325	-2.198372
O	0.412767	-2.207611	-1.599771
O	0.25517	-0.998891	-3.408793
Br	-3.529128	0.0	0.0
