13
Coordinates from ORCA-job run
  C   0.61345365152402     -0.10618016527190      0.42478457150476
  C   -0.65472271430019     -0.59731628603778     -0.30028840739145
  F   1.14053267526361     -1.14525772448394      1.10903695623059
  H   -0.33190669991265     -1.44430677928260     -0.91946716225844
  N   1.62550461727995      0.27292361219118     -0.67190396087676
  O   1.96047472237156      1.44533635853789     -0.75363309234319
  O   1.97597466477527     -0.66994629117939     -1.36710271236462
  C   0.37213724897973      1.03274733567812      1.30343488682918
  N   0.13902215166681      1.92061661009844      2.03786064540171
  C   -1.18724614621345      0.46209317905961     -1.15899039603101
  N   -1.59006592354570      1.31862373706008     -1.85432414401138
  C   -1.64104940124634     -1.05543987569995      0.67934425407759
  N   -2.42110884664262     -1.43389371066976      1.47124856123301
