14

C	0.0	0.0	0.0
C	-0.400145	0.062266	-1.495357
F	1.381405	0.0	0.0
H	0.540999	0.271396	-2.025036
H	-0.363187	-0.91379	0.458508
C	-0.438862	1.149955	0.800354
N	-0.528492	2.095399	1.493062
C	-1.309678	1.152777	-1.854268
N	-1.879401	2.049132	-2.357956
C	-0.958807	-1.279413	-1.970841
H	-0.241475	-2.077326	-1.749914
H	-1.14183	-1.268091	-3.048892
H	-1.885374	-1.415314	-1.414778
F	-2.364257	0.0	0.0
