14

C	0.0	0.0	0.0
C	-0.399792	0.263657	-1.473115
F	1.381244	0.0	0.0
H	0.532709	0.579844	-1.962237
H	-0.368796	-0.963314	0.333127
C	-0.430355	1.043024	0.939153
N	-0.509575	1.901553	1.737873
C	-1.358857	1.350316	-1.692138
N	-1.959522	2.265993	-2.123925
C	-0.903849	-1.023266	-2.127882
H	-1.81818	-1.28055	-1.595393
H	-1.099794	-0.869543	-3.192289
H	-0.14968	-1.810894	-2.022864
F	-2.362459	0.0	0.0
