14

C	0.0	0.0	0.0
C	-0.204825	0.069606	-1.559969
F	1.377988	0.0	0.0
H	0.48568	-0.715233	-1.9015
H	-0.387504	-0.926211	0.407101
C	-0.499145	1.147389	0.755547
N	-0.597401	2.109803	1.425048
C	0.400361	1.327018	-2.026128
N	0.854857	2.338264	-2.413992
C	-1.525062	-0.148396	-2.294681
H	-1.973267	-1.083659	-1.974135
H	-2.236141	0.628534	-2.041893
H	-1.30246	-0.173362	-3.370079
F	-2.360606	0.0	0.0
