13
Coordinates from ORCA-job run
  C   0.54323569425468     -0.60394921776624      0.34918549485940
  C   -0.51307780942205      0.21036517153264     -0.38651927538915
  H   0.43262508980390     -1.66596146364100      0.11829442718344
  H   -0.43887045901573      0.06613651671068     -1.46340019040088
  H   0.49960367683063     -0.44535143974451      1.42570638294522
  N   1.91661868993012     -0.21086447746029     -0.10196821042554
  O   2.02166889065710      0.28474177690174     -1.22058662685298
  O   2.82826692532338     -0.46181579965750      0.67559016998186
  C   -0.44742644388532      1.62564435474500     -0.04643403878826
  N   -0.36669002122173      2.76444655427927      0.22720795421833
  N   -1.84945833865079     -0.36554516548903      0.03481883511983
  O   -2.30339842150524      0.00884857867722      1.10887187900779
  O   -2.32309747309892     -1.20669538908799     -0.72076680145905
