13
Coordinates from ORCA-job run
  C   0.94691246023203      0.20042958539541      0.06715011826772
  C   -0.47031492318328      0.31004013060033     -0.44750469689486
  H   1.64194750840696      0.69695945612328     -0.61309593438482
  H   -0.60697350627032     -0.25958579378006     -1.36787452633795
  H   1.05451134787443      0.61102100828055      1.06822178910958
  N   1.37493756168683     -1.23443088039385      0.14143773136056
  O   2.37509150931576     -1.45573021185550      0.81023175190949
  O   0.72132578264316     -2.05850803510945     -0.49178035443870
  C   -0.84441687682560      1.70524842387791     -0.65026183996725
  N   -1.10600158145674      2.83871947144722     -0.81107610065160
  N   -1.45689355478956     -0.30817781711529      0.53561510624847
  O   -1.03517191150942     -0.60112338061628      1.64677765893411
  O   -2.59495381612424     -0.44586195685426      0.11215929684523
