13
Coordinates from ORCA-job run
  C   0.54192464473812     -0.73583884903740      0.11471588306136
  C   -0.47615118572275      0.32555733620401     -0.27357093659603
  H   0.49284940110384     -1.57868765581748     -0.57359284837168
  H   -0.27518486324868      0.68248572626405     -1.28711625407796
  H   0.41484613584203     -1.07712975792862      1.14041952062162
  N   1.92058263022755     -0.16231888360348      0.00558748337139
  O   2.74201226509725     -0.54486061013694      0.82957104555967
  O   2.12683022112768      0.60819479237685     -0.92901370647828
  C   -0.47304860008468      1.44888828994757      0.65498756006344
  N   -0.41133728840873      2.33644182406963      1.42140245117597
  N   -1.86844633433737     -0.28996338305421     -0.33190632843523
  O   -2.81128814070092      0.45613824442289     -0.11248735277018
  O   -1.92258888563333     -1.46990707370688     -0.65799651712408
