13
Coordinates from ORCA-job run
  C   0.92486815685362      0.28776606818872     -0.07895029748051
  C   -0.52699611269958      0.14037559597220     -0.47462852268920
  H   1.52274366269678      0.63664319318892     -0.92313873279793
  H   -0.66775140868446     -0.65259195571463     -1.20998790419469
  H   1.05302050466343      0.96116707337398      0.76537157966260
  N   1.49802723759517     -1.03467560890487      0.33403347454474
  O   0.84394657485320     -2.04431878871749      0.08778804430418
  O   2.59872615208203     -0.99056130317065      0.86626795984118
  C   -1.05613805286414      1.40421816674348     -0.97646754434188
  N   -1.44999555156229      2.43341064925620     -1.38254239988458
  N   -1.37312303989952     -0.28416413260926      0.71856021467663
  O   -2.46671166954896     -0.75363833783836      0.44164422365511
  O   -0.90061645348528     -0.10263061976823      1.83304990470437
