14

C	-0.539642	0.13482	-1.424099
C	0.0	0.0	0.0
F	-0.004221	1.225535	-2.007334
H	1.091855	0.0	0.0
H	-0.335759	-0.955454	0.409438
N	-0.078167	-1.102699	-2.194115
O	-0.607834	-2.149875	-1.825607
O	0.740909	-0.972764	-3.085695
N	-1.955885	0.182982	-1.616822
H	-2.331966	0.961609	-1.086231
H	-2.366312	-0.680287	-1.285626
C	-0.539436	1.084723	0.808181
N	-1.03925	1.94538	1.430561
Br	3.45302	0.0	0.0
