14

C	-0.311044	-0.187444	-1.486813
C	0.0	0.0	0.0
F	-0.254575	-1.507374	-1.791232
H	1.092261	0.0	0.0
H	-0.313083	1.003754	0.298705
N	-1.748811	0.26121	-1.759495
O	-2.618207	-0.593638	-1.847632
O	-1.922406	1.476905	-1.823615
N	0.528009	0.538301	-2.368409
H	0.308138	1.524762	-2.299218
H	1.495783	0.397224	-2.071632
C	-0.598776	-1.001087	0.867059
N	-1.110204	-1.788111	1.575127
Br	3.441028	0.0	0.0
