14

C	-0.471161	-0.12201	-1.430751
C	0.0	0.0	0.0
F	-0.263963	-1.431568	-1.838258
H	1.092374	0.0	0.0
H	-0.350396	-0.860274	0.571412
N	-2.027381	-0.048704	-1.46319
O	-2.560769	0.643435	-2.326213
O	-2.618672	-0.731989	-0.637027
N	0.068753	0.803966	-2.302101
H	-0.588244	1.266846	-2.906567
H	0.808843	1.371293	-1.92514
C	-0.501424	1.231173	0.599284
N	-0.913296	2.228639	1.061857
Br	3.443508	0.0	0.0
