14

C	-0.551038	0.033555	-1.408221
C	0.0	0.0	0.0
F	-0.04612	1.10767	-2.072202
H	1.089489	0.0	0.0
H	-0.316695	0.941622	0.45918
N	-0.040666	-1.17446	-2.232353
O	-0.430433	-1.197587	-3.401602
O	0.648945	-2.02143	-1.676823
N	-1.962058	0.097659	-1.465644
H	-2.38142	-0.604416	-0.869396
H	-2.269333	-0.026035	-2.423408
C	-0.56192	-1.107342	0.759254
N	-1.079549	-1.99469	1.327877
Br	3.477539	0.0	0.0
