14

C	-0.515416	-0.041964	-1.422541
C	0.0	0.0	0.0
F	0.106495	0.933493	-2.163495
H	1.090279	0.0	0.0
H	-0.341699	-0.88523	0.536526
N	-0.129918	-1.35887	-2.097543
O	-0.255348	-1.368598	-3.318732
O	0.196309	-2.302571	-1.392028
N	-1.924172	0.014355	-1.532581
H	-2.278773	0.814605	-1.023531
H	-2.178893	0.09148	-2.510356
C	-0.517408	1.198825	0.648135
N	-0.99526	2.156882	1.130421
Br	3.465543	0.0	0.0
