12

C	-0.493877	0.010938	-1.457717
C	0.0	0.0	0.0
Cl	0.190315	-1.417375	-2.29422
H	1.093191	0.0	0.0
H	-0.337425	-0.931189	0.46413
C	-1.95833	-0.086574	-1.521616
N	-3.130015	-0.175841	-1.536939
C	-0.073428	1.225041	-2.164554
N	0.238339	2.187026	-2.761858
C	-0.539763	1.13956	0.72921
N	-0.990584	2.053678	1.313141
Cl	3.234503	0.0	0.0
