12

C	-0.495108	-0.037401	-1.456663
C	0.0	0.0	0.0
Cl	0.190799	-1.492262	-2.245496
H	1.093201	0.0	0.0
H	-0.337291	-0.915057	0.495065
C	-1.959513	-0.139367	-1.516772
N	-3.13136	-0.227977	-1.536824
C	-0.077937	1.153084	-2.204774
N	0.221904	2.096982	-2.836689
C	-0.540088	1.163085	0.690797
N	-0.997111	2.095794	1.239027
Cl	3.233591	0.0	0.0
