12

C	-0.486699	-0.051176	-1.459148
C	0.0	0.0	0.0
Cl	0.150551	-1.517492	-2.265169
H	1.093104	0.0	0.0
H	-0.335695	0.944755	0.440173
C	-1.953518	-0.089463	-1.533904
N	-3.128024	-0.107787	-1.57281
C	-0.021111	1.134627	-2.186058
N	0.323572	2.078199	-2.794124
C	-0.541223	-1.112053	0.766654
N	-0.993941	-1.998604	1.38877
Cl	3.225571	0.0	0.0
