15
Coordinates from ORCA-job run
  C   -0.54375165680072     -0.03315591458542     -0.40888017975245
  C   0.79737244015203     -0.73679597941923     -0.44688644545162
  F   -1.27986892713867     -0.45885857681509     -1.49282682775778
  H   0.61260329321353     -1.81604430406797     -0.49501041712802
  H   1.25528184535480     -0.43649303587551     -1.39326899040977
  C   -0.48453828090869      1.46743303417524     -0.38867009739599
  H   0.05450812661921      1.80629502440426     -1.27515896809902
  H   0.04991244807495      1.80496626887328      0.49765243849467
  H   -1.49498687660081      1.87281555149973     -0.40245723291438
  N   -1.35190983036032     -0.50905199897033      0.79908042391980
  O   -0.85936859443127     -1.37161148301630      1.52567474221076
  O   -2.46188247734746     -0.00836986174165      0.93818397116251
  N   1.63855089992128     -0.30371919886594      0.65849525804663
  H   2.61473910797001     -0.39761971625091      0.41600703012360
  H   1.45333848228215     -0.87978980934414      1.46806529495106
