15
Coordinates from ORCA-job run
  C   -0.45428215104926      0.05376103923324     -0.26346753793036
  C   0.75006485231481     -0.78585259733008      0.12775644665583
  F   -0.52784401881003      0.08212322701190     -1.63021934884327
  H   0.80184816522190     -0.82542392434060      1.21605615930158
  H   0.57308977511069     -1.80713169470649     -0.24126054479183
  C   -0.47825981291411      1.45968629637372      0.27284434583393
  H   -1.35609889035089      1.98077863543390     -0.11398122005853
  H   0.42694491934553      1.96543344791637     -0.05883465417125
  H   -0.51275418724335      1.44769291013104      1.36149041034720
  N   -1.69244593040274     -0.67944196006397      0.22716809676498
  O   -1.74660307974472     -0.84572533891819      1.44359196680901
  O   -2.52090112561104     -1.04548928303066     -0.59486244045734
  N   1.94751842807501     -0.14862575528827     -0.39886374001941
  H   2.77004623373439     -0.53125489266373      0.04711305306587
  H   2.02067682232382     -0.32353010975818     -1.39253099250640
