15
Coordinates from ORCA-job run
  C   -0.34704972845083      0.17821442509872     -0.30579481410518
  C   1.05862458558648     -0.21595204347971      0.09334241372280
  F   -0.57983960086336     -0.27786207896912     -1.57679455272598
  H   1.22913774301825      0.12582629730670      1.11481268183605
  H   1.74311025530393      0.32982087317138     -0.57347975554037
  C   -0.66148589672842      1.65030852988967     -0.23722450502148
  H   -1.68841343694786      1.81849867272279     -0.56681044715406
  H   -0.54438302852020      2.01860745277734      0.78087367139006
  H   0.01140489509403      2.19233608579919     -0.90362451673559
  N   -1.30394287681167     -0.56568810369936      0.61189307409685
  O   -1.19030535585220     -0.28721224305001      1.80162477545423
  O   -2.09967049681697     -1.34684231855408      0.11548219300877
  N   1.16902486851244     -1.66337096355100      0.04878604186317
  H   2.01488557453612     -1.97139170635016      0.50744100268573
  H   1.18890249894024     -1.98529287911235     -0.90952726277500
