15
Coordinates from ORCA-job run
  C   -0.45388825724456     -0.08346190931919     -0.25602133674124
  C   0.80220518789603     -0.62178015896182      0.40808834770100
  F   -0.51348004605367     -0.58931527557868     -1.52690104532806
  H   0.70107152341112     -1.71594526886220      0.46413686827451
  H   0.84448519932101     -0.23501284176943      1.42652344494563
  C   -0.58328766068666      1.41520759011672     -0.30257146679267
  H   0.29000215954965      1.81598494728284     -0.81442427339597
  H   -1.48906317862145      1.68404758861146     -0.84941730161356
  H   -0.63377360413234      1.82111523641495      0.70701616133499
  N   -1.64307748148915     -0.65481058643416      0.49942504287211
  O   -2.43675925117771     -1.36194310485974     -0.10559512632497
  O   -1.69718779114723     -0.34577423926370      1.68764548165862
  N   1.95741695405846     -0.15625626854807     -0.34368692805732
  H   2.05416554831188     -0.69490380939752     -1.19437403339532
  H   2.80017069800463     -0.27715189943144      0.20115616486225
