8
Coordinates from ORCA-job run
  C   0.44050244659962     -0.43293317436069     -0.58995137314895
  C   -0.44009644964571      0.43236854263338     -0.04266371288524
  H   0.10136433381932     -1.34432155406433     -1.07368699927235
  H   -0.10192018401914      1.34406830130008      0.44105088298108
  C   1.84557291337459     -0.18527001683956     -0.55645781726728
  N   3.00601937724175      0.00837618689961     -0.53640067980074
  C   -1.84545135786101      0.18507306170109     -0.07923626502716
  N   -3.00599107950940     -0.00736134726958     -0.10365403557937
