8
Coordinates from ORCA-job run
  C   0.42138309628406     -0.39062444506453     -0.67151023391145
  C   -0.42161726040120      0.39315314673045      0.03473721350710
  H   0.04446865912981     -1.10938012632789     -1.39323016691644
  H   -0.04456602324184      1.11146569540771      0.75678163156625
  C   1.83557915341088     -0.30749479046083     -0.49747588857674
  N   3.00305802268843     -0.25092685546250     -0.36118571155359
  C   -1.83594237551620      0.30780755799370     -0.13724486131406
  N   -3.00336327235394      0.24599981718390     -0.27087198280107
