8
Coordinates from ORCA-job run
  C   0.50986717758614     -0.74021589608618     -0.44345906464391
  C   -0.72015861491869     -0.43404188176530      0.02383423303856
  H   0.83617910288022     -1.77521992381429     -0.46086854520956
  H   -1.37320345238478     -1.22534239968782      0.37805448145898
  C   1.42558156768274      0.24242240432566     -0.92549414256206
  N   2.19604992243438      1.03606044416351     -1.32754992563821
  C   -1.22103303588275      0.90105767238268      0.07985509115622
  N   -1.65328266739727      1.99427958048174      0.13562787239998
