8
Coordinates from ORCA-job run
  C   0.58904079668655     -0.68802144140025     -0.25914913504724
  C   -0.65870210510576     -0.39359525442423      0.16682045347694
  H   1.03113338693595     -1.64673801159610     -0.00706040321911
  H   -1.21008187598518     -1.11786939695968      0.75800965161777
  C   1.37631761538048      0.21030099051894     -1.03998503993039
  N   2.04249658127102      0.93584418411068     -1.68405733715858
  C   -1.30807177443968      0.84354551042625     -0.12340137301102
  N   -1.86213262474338      1.85653341932440     -0.35117681672838
