8
Coordinates from ORCA-job run
  C   0.47346164152891     -0.21477029244550     -0.74813994417324
  C   -0.47352721826059      0.21481197709936      0.11362632553098
  H   0.20703026308576     -0.57679169246765     -1.73691502963334
  H   -0.20724666291384      0.57660194318490      1.10234268335348
  C   1.85668430315649     -0.21011008655601     -0.39614157597355
  N   3.00008423300779     -0.21172968734100     -0.11840646354844
  C   -1.85668154224930      0.21016677507317     -0.23873901350244
  N   -2.99980501735522      0.21182106345274     -0.51762698205344
