8
Coordinates from ORCA-job run
  C   -0.65713814551900     -0.40242391568341      0.16211462804405
  C   0.54872721718183     -0.72138719968683     -0.35671174979918
  H   -1.22125049725147     -1.15002313733724      0.71075902274774
  H   0.94459437316855     -1.72291849669716     -0.22115512981446
  C   -1.24491110718890      0.89082783491344      0.02620566347598
  N   -1.74790000329918      1.95003316732785     -0.07449926783110
  C   1.34993612038056      0.20455990717427     -1.08960173633634
  N   2.02694204252762      0.95133183998908     -1.69711143048668
