8
Coordinates from ORCA-job run
  C   -0.67341884398512      0.01640182905729     -0.36685196286180
  C   0.67302138679156     -0.01684150584711     -0.26750993862765
  H   -1.18274822949394     -0.43241600547311     -1.21472795062028
  H   1.18276725927258      0.43172200358629      0.58015674187254
  C   -1.47791723044410      0.63921702171985      0.63396672110873
  N   -2.15213844672569      1.15034966276339      1.45167556726789
  C   1.47729910839386     -0.63934755621356     -1.26895310339567
  N   2.15213499619084     -1.14808544959304     -2.08775607474377
