13
Coordinates from ORCA-job run
  C   -0.82113060986560      0.27950102792473     -0.12019269185323
  C   0.45579295208885     -0.48078377582104      0.18478917485507
  Br  -1.09234692527751      1.72531850136464      1.18734874590751
  H   0.35584628634352     -0.91764328820034      1.18188643860958
  H   -0.72279685612674      0.82326828233369     -1.06790849617253
  H   0.49981327181884     -1.31465479969585     -0.52924714654394
  N   -1.96134648064012     -0.59970028581640     -0.03740212779884
  H   -1.80908595241651     -1.40438625683562     -0.63494359608718
  H   -2.80468640542073     -0.12695394042929     -0.33785767231499
  C   1.72870751466690      0.34724675843984      0.06696319512746
  H   1.75419136798598      1.13999233732261      0.81503714727138
  H   1.80837507112967      0.80973335294156     -0.92056891975933
  H   2.60866676571343     -0.28293791352855      0.21209594875904
