13
Coordinates from ORCA-job run
  C   -0.87499284259689      0.15871089357394     -0.47469466270413
  C   0.57379024004931      0.59393120688727     -0.35721416035011
  Br  -1.91242944786356      1.57337735218611     -1.35385283302551
  H   0.60259006431787      1.51541340499735      0.22994761656815
  H   -0.96016283685761     -0.68421723598896     -1.17298621520627
  H   0.94571793471335      0.82603243752878     -1.35852263390461
  N   -1.46152355306106     -0.07195707189164      0.82650206855988
  H   -2.43423049838076     -0.33770316348258      0.73041055106243
  H   -0.97358670323458     -0.83659206865039      1.27950660366407
  C   1.44845568635547     -0.48067578505075      0.28891125331286
  H   1.33434049135018     -1.44526145564716     -0.21471736038459
  H   1.21310588280979     -0.61074894232949      1.34730599571591
  H   2.50192558239849     -0.20030957213247      0.22740377669193
