18

C	-0.548654	0.00129	-1.420983
C	0.0	0.0	0.0
F	0.180563	0.880322	-2.184716
H	1.086733	0.0	0.0
N	-0.231331	-1.351152	-2.069143
O	-0.96463	-1.71123	-2.987327
O	0.797188	-1.90733	-1.707056
C	-2.006481	0.339535	-1.558455
H	-2.608684	-0.35863	-0.981765
H	-2.291808	0.29752	-2.608139
H	-2.15227	1.354649	-1.185891
N	-0.468066	-1.106043	0.784241
O	-1.215003	-1.961785	0.261365
O	0.015128	-1.191698	1.924885
N	-0.360683	1.271758	0.644327
O	-1.184271	1.289263	1.564694
O	0.194827	2.266562	0.172972
H	2.349872	0.0	0.0
