18

C	-0.609333	0.047566	-1.395762
C	0.0	0.0	0.0
F	-0.359707	1.309746	-1.892169
H	1.089198	0.0	0.0
N	0.18102	-0.878912	-2.326743
O	-0.373402	-1.893257	-2.742074
O	1.324335	-0.515892	-2.582762
C	-2.085124	-0.223765	-1.501168
H	-2.309979	-1.232285	-1.167304
H	-2.39169	-0.102538	-2.542262
H	-2.60531	0.503199	-0.876332
N	-0.362108	-1.129373	0.771157
O	-0.572526	-2.196219	0.142264
O	-0.155058	-1.05746	2.001879
N	-0.375551	1.259475	0.70999
O	-1.499296	1.314641	1.216307
O	0.449239	2.171198	0.700733
H	2.338209	0.0	0.0
