18

C	-0.488328	-0.057016	-1.434262
C	0.0	0.0	0.0
F	-1.800363	-0.446237	-1.515363
H	1.086304	0.0	0.0
N	-0.413484	1.345281	-2.032868
O	-1.287711	1.655293	-2.829773
O	0.579383	2.000206	-1.743118
C	0.376499	-0.918207	-2.32202
H	0.117398	-0.720266	-3.364432
H	1.42536	-0.68413	-2.116256
H	0.195524	-1.963724	-2.084902
N	-0.377162	-1.221983	0.714035
O	0.072831	-2.267684	0.231354
O	-1.045302	-1.150374	1.750748
N	-0.500867	1.156401	0.752993
O	0.092181	1.39867	1.804433
O	-1.439797	1.815233	0.288996
H	2.440052	0.0	0.0
