18

C	-0.599388	0.034254	-1.398708
C	0.0	0.0	0.0
F	-0.274651	1.262701	-1.9336
H	1.089139	0.0	0.0
N	0.142901	-0.964536	-2.293156
O	-0.477841	-1.928159	-2.730681
O	1.320218	-0.694843	-2.51166
C	-2.086155	-0.157999	-1.508973
H	-2.368027	-1.138604	-1.138958
H	-2.379952	-0.06212	-2.555784
H	-2.569952	0.618397	-0.91665
N	-0.396673	-1.103404	0.784537
O	-0.646935	-2.173989	0.173999
O	-0.19722	-1.015647	2.016805
N	-0.35757	1.280956	0.687605
O	0.492035	2.166886	0.699854
O	-1.492707	1.374178	1.159371
H	2.337264	0.0	0.0
