18

C	-0.550555	-0.028218	-1.406521
C	0.0	0.0	0.0
F	-1.89865	-0.285327	-1.41857
H	1.086326	0.0	0.0
N	-0.365652	1.341833	-2.051055
O	-1.253712	1.727466	-2.798407
O	0.701712	1.896957	-1.829603
C	0.170084	-1.003536	-2.301015
H	-0.066165	-2.019428	-1.992871
H	-0.164597	-0.842827	-3.328373
H	1.24645	-0.844799	-2.199893
N	-0.382309	-1.250688	0.684796
O	-1.261245	-1.227802	1.548682
O	0.233909	-2.256981	0.321741
N	-0.464069	1.126601	0.803702
O	-1.227347	1.963025	0.303429
O	0.027414	1.193247	1.933537
H	2.439258	0.0	0.0
