18

C	-0.484611	-0.059046	-1.436206
C	0.0	0.0	0.0
F	-1.796155	-0.449284	-1.520373
H	1.086306	0.0	0.0
N	-0.406953	1.343274	-2.034931
O	-1.28837	1.663593	-2.8217
O	0.596526	1.98793	-1.754474
C	0.385616	-0.920808	-2.318548
H	0.143784	-0.717128	-3.363767
H	0.195354	-1.965956	-2.089576
H	1.43351	-0.695038	-2.096121
N	-0.379797	-1.223132	0.709198
O	-1.065219	-1.154846	1.73364
O	0.081888	-2.267228	0.230358
N	-0.502184	1.152469	0.757657
O	-1.430496	1.823094	0.288698
O	0.078956	1.380488	1.818492
H	2.442166	0.0	0.0
