18

C	-0.479379	-0.003698	-1.433497
C	0.0	0.0	0.0
F	-0.056098	-1.178074	-1.983598
H	1.089862	0.0	0.0
N	-2.009938	-0.010025	-1.53757
O	-2.540137	-0.818823	-2.284205
O	-2.575171	0.871221	-0.898031
C	0.021331	1.14198	-2.269817
H	1.109135	1.164302	-2.180942
H	-0.391671	2.084617	-1.922352
H	-0.278397	0.950503	-3.30351
N	-0.451048	-1.216569	0.714533
O	-1.484643	-1.776944	0.335624
O	0.267861	-1.594244	1.637214
N	-0.392069	1.164879	0.787754
O	-1.049676	0.999481	1.820549
O	0.054944	2.245119	0.390854
H	2.477427	0.0	0.0
