18

C	-0.513103	-0.049848	-1.423537
C	0.0	0.0	0.0
F	-1.843427	-0.37884	-1.475938
H	1.086325	0.0	0.0
N	-0.384097	1.339465	-2.04137
O	0.654355	1.937988	-1.792455
O	-1.267388	1.691042	-2.810343
C	0.290878	-0.964138	-2.313744
H	0.024768	-0.763873	-3.353787
H	1.353635	-0.783809	-2.130804
H	0.060006	-1.996695	-2.064889
N	-0.372888	-1.23074	0.707837
O	0.13626	-2.262877	0.25709
O	-1.110438	-1.177616	1.69474
N	-0.479925	1.149901	0.767845
O	0.07784	1.324392	1.85215
O	-1.347577	1.885767	0.281336
H	2.429824	0.0	0.0
