18

C	-0.553398	-0.000796	-1.4193
C	0.0	0.0	0.0
F	0.179903	0.871016	-2.186986
H	1.086744	0.0	0.0
N	-0.242967	-1.357388	-2.061705
O	0.785296	-1.913616	-1.699963
O	-0.979784	-1.720666	-2.975991
C	-2.009807	0.344648	-1.556733
H	-2.294778	0.3015	-2.606779
H	-2.615543	-0.350661	-0.979765
H	-2.152077	1.361278	-1.186391
N	-0.468924	-1.104455	0.786419
O	-1.234824	-1.947975	0.273368
O	0.026718	-1.196963	1.920054
N	-0.359103	1.271537	0.64768
O	0.185794	2.268168	0.164029
O	-1.170599	1.286655	1.579724
H	2.351382	0.0	0.0
