11
Coordinates from ORCA-job run
  C   -0.66988520415699      0.10898226128957     -0.26225961841375
  C   0.70964176315193      0.70550783741967      0.00132436959123
  Cl  -1.88325881809023      1.42847246190318      0.16197899168018
  H   0.81514858757248      0.92160550548670      1.06900750678743
  H   -0.81919556854720     -0.05703097316310     -1.32848637751995
  H   0.81372578916944      1.65316773768859     -0.53062159218301
  N   -0.84927431195693     -1.10120829940472      0.43863221598737
  H   -0.79414080371664     -0.97362359611544      1.44103763150610
  H   -1.72168671352932     -1.55508473403323      0.20533098191108
  C   1.77042878947006     -0.20780203065743     -0.42047023679907
  N   2.62849649063340     -0.92398617041380     -0.77647387254762
