11
Coordinates from ORCA-job run
  C   -0.73014858308398      0.25273887187703     -0.05739614603917
  C   0.65443591161121      0.35148833143797     -0.68947567424888
  Cl  -0.97412173530351      1.61766441012105      1.06802859806662
  H   0.75622431574402      1.31436910543560     -1.19529550478179
  H   -1.47571972282392      0.40376733603951     -0.84820026428969
  H   0.75297117225917     -0.43112952712807     -1.45047996078865
  N   -0.85087194187690     -0.97822841300820      0.67887349500873
  H   -0.72545078106244     -1.76892551916896      0.05707285641976
  H   -1.76280449939754     -1.04777507015954      1.11271870130857
  C   1.73133303199375      0.20089534880660      0.28654816090277
  N   2.62515283194013      0.08513512574701      1.03660573844173
