11
Coordinates from ORCA-job run
  C   -0.65503190664966      0.23759859296667     -0.13077554709033
  C   0.81892752305025     -0.14082643684582      0.08715041363108
  Cl  -0.98839355650624      1.71660696108479      0.81912041955628
  H   1.00901840010767     -1.09608337294172     -0.41284961172084
  H   -0.81585291484192      0.50026712895436     -1.17773492897288
  H   0.99902029835660     -0.27808976003926      1.15729444896494
  N   -1.59918806308327     -0.77942141663807      0.23310854931088
  H   -1.57135325041057     -1.54823993663386     -0.42452350031764
  H   -1.42992660631620     -1.12359216782082      1.16991108414435
  C   1.74876374319991      0.85644485449098     -0.43695827128930
  N   2.48301633309342      1.65433555342275     -0.88474305621654
