11
Coordinates from ORCA-job run
  C   -0.59645753895341     -0.03614293159671     -0.17330755414704
  C   0.91184335443268      0.00054811556335      0.05367526354666
  Cl  -1.28043779369815      1.58144958609875      0.34421526319550
  H   1.31122856288598     -0.98717299296225     -0.19148994369093
  H   -0.82075639019094     -0.09858017717244     -1.23766861802741
  H   1.11777695784928      0.20031433437531      1.10936353757689
  N   -1.15956662698669     -1.15121467803466      0.49814400476902
  H   -2.14528030965381     -1.24692982848974      0.29227454266160
  H   -1.04666162880306     -1.07225408185208      1.50156162388867
  C   1.58191873620423      1.00841867116542     -0.76244524598146
  N   2.12539267691391      1.80056398290504     -1.43532287379150
