11
Coordinates from ORCA-job run
  C   -0.68284998890335      0.07865389285875     -0.23964723817394
  C   0.71276766444208      0.68826168864833     -0.14281124072973
  Cl  -1.86266286220171      1.46437012278983      0.04763141006095
  H   0.87700614396703      1.06229246641363      0.87245074685467
  H   -0.89220555224152     -0.24160538946136     -1.25959454850369
  H   0.79405660807304      1.54265992867127     -0.81755734481133
  N   -0.83038339139307     -1.01100356906802      0.64238951479733
  H   -1.71564330069080     -1.48431627140461      0.52588536299572
  H   -0.71881452209010     -0.73776462747570      1.61031445214381
  C   1.74318332460265     -0.29368375808753     -0.47636550104236
  N   2.57654587643574     -1.06786448388457     -0.76269561359143
