11
Coordinates from ORCA-job run
  C   -0.80863417675144      0.27018031796637     -0.14173231591444
  C   0.62854004007408      0.37531075434472     -0.68260138711300
  Cl  -1.10282522822700      1.68691569251234      0.91271558669830
  H   0.79909701988788      1.35291321700955     -1.13970976152853
  H   -1.49716172777507      0.36613679218229     -0.98353216165972
  H   0.76673103190336     -0.38905479689197     -1.45499392108024
  N   -1.13154489092205     -0.92599618920936      0.57703703217228
  H   -0.47770205014428     -1.09068835411120      1.33313905978734
  H   -1.14690878869130     -1.72593333220967     -0.04281251740773
  C   1.60867300291053      0.14836979399911      0.37571523757502
  N   2.36373576773530     -0.07015389559219      1.24677514847073
