11
Coordinates from ORCA-job run
  C   -0.67973777383272      0.19943757983298      0.03984747765381
  C   0.82819527253533     -0.07692187881588     -0.07146705529624
  Cl  -0.94008765100296      1.26395036678497      1.45444569471140
  H   1.17890434840762     -0.52781118941757      0.86138434612898
  H   -1.01658314795449      0.75973465751547     -0.83400006547482
  H   0.98895090078503     -0.80043679257275     -0.87727625435627
  N   -1.49819610875112     -0.97128753786050      0.17265400619012
  H   -1.53828402754369     -1.48379397361771     -0.69900159723954
  H   -1.16257132563694     -1.57654995307278      0.91152428280801
  C   1.61221783969209      1.12233991975493     -0.35451750802269
  N   2.22719167330186      2.08933880146883     -0.60559332710276
