11
Coordinates from ORCA-job run
  C   -0.78369830967668      0.20772605011915     -0.19586255552476
  C   0.67539709991543      0.69609249931017     -0.17665846911195
  Cl  -1.80303111174116      1.63555187868446      0.17763602564684
  H   0.91116809467583      1.09226447266811      0.81548581831268
  H   -1.04864552120281     -0.10236387445595     -1.20794895162375
  H   0.82410231501017      1.50210959449319     -0.89965729358230
  N   -1.10301846287565     -0.85966140121510      0.70076406068143
  H   -0.72291510826797     -1.73657243291134      0.36812312106897
  H   -0.76844201923860     -0.67522857711970      1.63806881993191
  C   1.57243900916126     -0.41583801573260     -0.48382669764755
  N   2.24364401424017     -1.34508019384039     -0.73512387815152
