18

C	-0.291252	-0.003986	-1.51208
C	0.0	0.0	0.0
Br	-2.265433	0.057126	-1.809648
H	1.100112	0.0	0.0
N	0.268577	1.145731	-2.186897
H	-0.049107	1.99475	-1.728551
H	1.279941	1.092521	-2.050328
C	0.24874	-1.260652	-2.168803
H	0.113644	-1.177237	-3.248031
H	-0.25936	-2.156686	-1.813047
H	1.316637	-1.330907	-1.932252
C	-0.488947	-1.199376	0.807287
H	-0.171037	-1.086231	1.846162
H	-0.035668	-2.115354	0.42657
H	-1.57745	-1.289207	0.775216
C	-0.455596	1.249324	0.601149
N	-0.830262	2.25225	1.086445
Cl	3.32172	0.0	0.0
