18

C	-0.344658	-0.045507	-1.490437
C	0.0	0.0	0.0
Br	-2.430092	-0.495083	-1.65337
H	1.09838	0.0	0.0
N	-0.080039	1.170364	-2.108782
H	-0.265197	1.16556	-3.101206
H	-0.499798	1.970913	-1.655976
C	0.349511	-1.185622	-2.204467
H	0.013158	-2.153199	-1.835626
H	1.42394	-1.070041	-2.024134
H	0.141052	-1.141061	-3.276336
C	-0.429746	-1.204491	0.837218
H	0.009134	-1.10584	1.832505
H	-0.035883	-2.122178	0.398736
H	-1.514283	-1.27888	0.921798
C	-0.487743	1.237667	0.59802
N	-0.907113	2.235905	1.055735
Cl	3.327895	0.0	0.0
