18

C	-0.380087	-0.05746	-1.490678
C	0.0	0.0	0.0
Br	0.0122	1.804151	-2.282358
H	1.097008	0.0	0.0
N	0.42987	-1.046709	-2.089014
H	1.411757	-0.898717	-1.852485
H	0.314091	-1.068134	-3.095036
C	-1.853624	-0.276905	-1.768175
H	-2.453784	0.495171	-1.283827
H	-2.146943	-1.260678	-1.392972
H	-2.047979	-0.239783	-2.842721
C	-0.434958	-1.274537	0.742
H	-0.096135	-2.146432	0.182669
H	-1.518113	-1.322812	0.88161
H	0.043432	-1.285661	1.723149
C	-0.548721	1.161807	0.68395
N	-1.046959	2.027984	1.302445
Cl	3.344519	0.0	0.0
