16

C	-0.493411	0.039515	-1.447471
C	0.0	0.0	0.0
Br	-0.050155	-1.685058	-2.3156
H	1.093485	0.0	0.0
H	-0.286953	0.955143	0.462853
C	-1.999896	0.209971	-1.564032
H	-2.285644	1.159044	-1.09551
H	-2.311623	0.229477	-2.611861
H	-2.526179	-0.6013	-1.05672
C	0.280877	1.127518	-2.175294
H	0.038803	1.136237	-3.241096
H	0.010967	2.099823	-1.745678
H	1.352656	0.972503	-2.023759
C	-0.57449	-1.072341	0.792907
N	-1.061973	-1.925769	1.437609
H	2.830099	0.0	0.0
