16

C	-0.322007	-0.005964	-1.483221
C	0.0	0.0	0.0
Br	-2.311103	-0.151737	-1.790386
H	1.096849	0.0	0.0
H	-0.335793	-0.923112	0.481268
C	0.157838	1.276725	-2.133055
H	-0.001087	1.252431	-3.214551
H	1.2312	1.356678	-1.91433
H	-0.353275	2.14836	-1.719463
C	0.334582	-1.222803	-2.105483
H	0.178205	-1.244934	-3.186857
H	1.406683	-1.155265	-1.874812
H	-0.059195	-2.146693	-1.673107
C	-0.517308	1.147169	0.722426
N	-0.921083	2.083118	1.30775
H	2.779892	0.0	0.0
