13

C	-0.382916	0.008363	-1.483313
C	0.0	0.0	0.0
F	-0.368365	-1.322894	-1.932442
H	1.094101	0.0	0.0
H	-0.30424	0.953628	0.439062
C	-1.778658	0.462697	-1.696544
N	-2.884464	0.817365	-1.869052
N	0.504711	0.802602	-2.211678
H	1.426687	0.914252	-1.811017
H	0.143895	1.550185	-2.772263
C	-0.580518	-1.094929	0.756256
N	-1.088483	-1.946488	1.383381
Cl	3.311411	0.0	0.0
