13

C	-0.331224	0.049908	-1.492565
C	0.0	0.0	0.0
F	-0.186354	-1.253428	-2.009447
H	1.094649	0.0	0.0
H	-0.325669	0.929214	0.473639
C	-1.743855	0.409105	-1.766212
N	-2.863795	0.696096	-1.970991
N	0.536051	0.983196	-2.095022
H	0.470462	0.95245	-3.104038
H	1.495963	0.81948	-1.787184
C	-0.581028	-1.144589	0.67938
N	-1.072025	-2.048958	1.243925
Cl	3.31183	0.0	0.0
