13

C	-0.543268	-0.029615	-1.425411
C	0.0	0.0	0.0
F	0.006525	1.049224	-2.124772
H	1.091974	0.0	0.0
H	-0.33728	-0.900272	0.520563
C	-0.114564	-1.257917	-2.129716
N	0.151256	-2.236217	-2.720182
N	-1.968246	0.010625	-1.446428
H	-2.300044	0.045502	-2.403026
H	-2.288541	0.837116	-0.953523
C	-0.523034	1.174172	0.688633
N	-0.998423	2.116115	1.204066
Cl	3.307543	0.0	0.0
