13

C	-0.533408	-0.029452	-1.426267
C	0.0	0.0	0.0
F	0.040014	1.065774	-2.085793
H	1.092192	0.0	0.0
H	-0.311137	0.955559	0.438007
C	-0.118619	-1.236995	-2.172427
N	0.143057	-2.187618	-2.809412
N	-1.955381	0.03666	-1.452942
H	-2.269434	0.846556	-0.932016
H	-2.29168	0.095671	-2.406322
C	-0.534119	-1.095694	0.797882
N	-0.96682	-1.96625	1.455799
Cl	3.316083	0.0	0.0
