13

C	-0.481285	-0.160687	-1.444245
C	0.0	0.0	0.0
F	-1.677071	-0.928224	-1.42255
H	1.092023	0.0	0.0
H	-0.300359	-0.924468	0.503328
C	-0.896438	1.112016	-2.088642
N	-1.232644	2.093395	-2.638098
N	0.52011	-0.782308	-2.20901
H	0.172904	-1.342542	-2.969823
H	1.286636	-1.182564	-1.685669
C	-0.573627	1.129137	0.712356
N	-1.046499	2.025247	1.305747
Cl	3.299865	0.0	0.0
