13

C	-0.542336	-0.031983	-1.425656
C	0.0	0.0	0.0
F	0.008111	1.0442	-2.127245
H	1.09192	0.0	0.0
H	-0.338004	-0.899076	0.522176
C	-0.115019	-1.26248	-2.126811
N	0.149223	-2.242429	-2.715487
N	-1.96775	0.009484	-1.446726
H	-2.286239	0.836798	-0.954159
H	-2.298803	0.046305	-2.403398
C	-0.52288	1.175869	0.685554
N	-0.995669	2.118964	1.201337
Cl	3.31087	0.0	0.0
