13

C	-0.562462	-0.037572	-1.426611
C	0.0	0.0	0.0
F	-0.039512	1.036571	-2.110336
H	1.092865	0.0	0.0
H	-0.324821	-0.901181	0.53081
C	-0.142071	-1.291044	-2.093955
N	0.109963	-2.316653	-2.604088
N	-1.998647	0.054567	-1.557445
H	-2.324167	0.837817	-0.999352
H	-2.434284	-0.792698	-1.213488
C	-0.533893	1.167885	0.689073
N	-1.038053	2.089672	1.213625
Cl	3.301807	0.0	0.0
