13

C	-0.365796	-0.127214	-1.473928
C	0.0	0.0	0.0
F	-1.693637	-0.54956	-1.608711
H	1.093995	0.0	0.0
H	-0.323339	-0.929102	0.477109
C	-0.32026	1.182248	-2.176532
N	-0.241056	2.200003	-2.757648
N	0.490222	-1.113506	-2.043845
H	1.442375	-0.99992	-1.693338
H	0.494821	-1.05954	-3.053541
C	-0.599065	1.140888	0.668105
N	-1.105541	2.046328	1.217654
Cl	3.288094	0.0	0.0
