13

C	-0.563987	0.052292	-1.42554
C	0.0	0.0	0.0
F	-0.050818	1.173396	-2.036821
H	1.092873	0.0	0.0
H	-0.324719	-0.932866	0.473012
C	-0.134911	-1.150127	-2.177113
N	0.121962	-2.129414	-2.76949
N	-2.001295	0.140138	-1.547184
H	-2.428221	-0.736383	-1.273125
H	-2.335243	0.873541	-0.929842
C	-0.534262	1.122388	0.76123
N	-1.039876	2.010425	1.339938
Cl	3.300374	0.0	0.0
