17
Coordinates from ORCA-job run
  C   -0.76858267141150      0.04085104271530      0.18854153766946
  C   0.69977260931130     -0.36171517242609      0.45946661452646
  Br  -1.72690166616582      0.05423277555798      1.88455054468801
  H   0.63430596778595     -1.27719210553267      1.06517963637581
  N   -0.74405676450112      1.45630926485478     -0.38535761582733
  O   -0.28012133637182      1.51175205388544     -1.52249677848979
  O   -1.12812415567592      2.40525154845290      0.27760634029191
  C   -1.48479427507498     -0.87369756998516     -0.78031522768735
  H   -2.51987331180475     -0.55213683241683     -0.90833562623127
  H   -1.47674571143615     -1.88979185877199     -0.38345286693701
  H   -0.96255222556982     -0.86631375711146     -1.73362001205522
  N   1.36198218164839      0.75081274491293      1.12999231465324
  H   2.32343490611636      0.49705216962475      1.32250845388876
  H   0.91255061214223      0.96662661003061      2.01334888458565
  N   1.35822058627983     -0.72872527688708     -0.77168709149825
  H   1.59715492160956      0.10972665264842     -1.28857535626311
  H   2.20533033311827     -1.24404228955183     -0.56835375169001
