17
Coordinates from ORCA-job run
  C   -0.73461899023256      0.15922701878566      0.27897301756809
  C   0.69608233519995     -0.40646391030918      0.41631176332864
  Br  -1.47591989627277      0.67773410860222      1.99973203382558
  H   0.54503233821074     -1.41572065166368      0.81362529448381
  N   -0.69221895461455      1.43928654826779     -0.54917597953029
  O   -1.67748110060102      1.72167908110920     -1.21699733763974
  O   0.32999004332250      2.12141737219871     -0.47436968584879
  C   -1.66774193756678     -0.82711142192820     -0.38931467076419
  H   -1.26931288194532     -1.07749514312427     -1.37242045958959
  H   -1.72183864314220     -1.72840153913866      0.22349411995069
  H   -2.66595037160336     -0.40758028599294     -0.48915109964928
  N   1.51214084965434      0.29696746437820      1.37816004679620
  H   2.38075517043202     -0.20402679289438      1.51471703119961
  H   1.71500204217513      1.23127447548772      1.04874407908141
  N   1.19610380565259     -0.56301768265454     -0.95306825703417
  H   1.87703332401580     -1.31112711931057     -0.98638060189345
  H   1.65494286731549      0.29235847818691     -1.24387929428454
