17
Coordinates from ORCA-job run
  C   -0.74429935646179      0.07736068333039      0.26118181680695
  C   0.72606430450450     -0.38150546964847      0.39863770074993
  Br  -1.53054907080410      0.16787233235177      2.04107787131995
  H   0.68321958946663     -1.28007171213819      1.03113077349719
  N   -0.71868420568975      1.47800377737447     -0.34807983017536
  O   -0.99758200173668      2.45657478137866      0.32429444393021
  O   -0.36566064982344      1.48901265662914     -1.52567687760067
  C   -1.58841822571117     -0.82590372054650     -0.61045553554643
  H   -2.61723457761041     -0.46322146795047     -0.64517261183215
  H   -1.58256445872859     -1.83295690344955     -0.19118164737345
  H   -1.16228054077077     -0.86032127181822     -1.60984251252535
  N   1.49490347292072      0.71611238286892      0.97296754309215
  H   1.14385670087390      0.96937479700317      1.89030719035721
  H   2.45989404161483      0.42652722478782      1.07671403347309
  N   1.24548807213422     -0.80293025548651     -0.88074915140301
  H   2.08831530605205     -1.34725606230747     -0.74689947628587
  H   1.46453159976985      0.01332822762103     -1.44025373048441
