17
Coordinates from ORCA-job run
  C   -0.72534613360688      0.04226322636329      0.19712485421576
  C   0.75797416251978     -0.30736606757918      0.53728759049858
  Br  -1.75101938703312      0.04943936144266      1.85153848195777
  H   0.68886653665851     -1.21963241360578      1.15094523471318
  N   -0.72767665943349      1.43747510056187     -0.40773652151102
  O   -0.25810743150411      1.47623123954692     -1.54577983618387
  O   -1.12026693095606      2.39645813565728      0.23484933235681
  C   -1.37098682170149     -0.92458004849934     -0.77276467747527
  H   -1.32644673974071     -1.93425265923176     -0.35979067706246
  H   -0.84982305436579     -0.89410160929177     -1.72823001897589
  H   -2.41798891032026     -0.66355576683133     -0.93371018468809
  N   1.34773106081458      0.83447696836587      1.20061573469071
  H   0.89244965191334      1.02912343639298      2.08342374971120
  H   2.32485110152810      0.62981220302954      1.36598679943765
  N   1.60782997787621     -0.61421829882176     -0.58353399912101
  H   1.34269018222806     -1.47967703167660     -1.03303751486764
  H   1.58626939512331      0.14210422417710     -1.25718834769645
