17
Coordinates from ORCA-job run
  C   -0.68429823432203      0.13943381388793      0.13245863714763
  C   0.84667294804127      0.00434718565432      0.09038657605871
  Br  -1.34453294811670     -0.26477445578196      1.90848195413376
  H   1.15098528103467      0.43201624060380     -0.87060507520969
  N   -1.05788857431672      1.58408092130719     -0.21400923164727
  O   -0.30053286476063      2.16731639790754     -0.98482537146397
  O   -2.12259334168041      2.01859908282904      0.20110929992151
  C   -1.40340446783531     -0.73162142131997     -0.88004643964078
  H   -1.01776147613887     -0.51963368534257     -1.88297064238715
  H   -1.24554812793724     -1.78130477997607     -0.63462839747716
  H   -2.47437047692983     -0.52626927777091     -0.85928374107878
  N   1.19656453754945     -1.41152951509384      0.21957440257158
  H   1.04406813838845     -1.89979371785316     -0.65618413826971
  H   2.18705195342714     -1.47150815865616      0.42407036680533
  N   1.42730694628023      0.82432262677755      1.12054444886366
  H   1.42818748346708      0.33403742872475      2.00649409311952
  H   2.36909322384948      1.10028131410253      0.87943325855279
