17
Coordinates from ORCA-job run
  C   -0.64862599525606      0.08889833957134      0.06416721302645
  C   0.89751680735507      0.01736425443733      0.09195880991735
  Br  -1.38728585762855     -0.64770044150529      1.70489979200753
  H   1.20429525291738      0.45853149552895     -0.86213642980937
  N   -0.99846117734821      1.57063122329232     -0.04095175839998
  O   -1.58150339470398      2.14182950221697      0.86486510937188
  O   -0.62374428593763      2.07577755254491     -1.09689441664955
  C   -1.26670010499176     -0.62458764609866     -1.12152727632941
  H   -1.08609415131216     -1.69641224853879     -1.04406702619067
  H   -2.34532099280894     -0.46062084035156     -1.14663832357616
  H   -0.82753835935439     -0.24155653275401     -2.04419089048154
  N   1.45166592016987     -1.32083937471993      0.13974882586370
  H   1.06633929758845     -1.84778799156920      0.91504663261369
  H   1.28895773513652     -1.83045043188178     -0.71983076251304
  N   1.36935536781445      0.88687744860956      1.14176908038269
  H   1.10485297464658      0.51765327255495      2.04847574060884
  H   2.38129096371336      0.91039241866288      1.10330568015763
