17
Coordinates from ORCA-job run
  C   -0.68334827821027     -0.03939966879740      0.25783261561685
  C   0.82402993722707     -0.24634704412812      0.63042366190604
  Br  -1.79791027907707     -1.14391623741476      1.41754090823448
  H   0.88435124929630     -0.10133746270145      1.71189295275030
  N   -0.99203624595531      1.40475737134207      0.60504014420084
  O   -1.33810005505301      2.14708291738180     -0.31135869501344
  O   -0.78566599208306      1.74933504456012      1.76418165074950
  C   -1.03175193510107     -0.33001005372508     -1.18155300902683
  H   -0.85775643351389     -1.38584065406607     -1.38561653762002
  H   -0.42621111335867      0.27579478741812     -1.85797162117395
  H   -2.07794476417355     -0.10201662578809     -1.37959339700785
  N   1.67177456800683      0.74522258155005      0.01193430287592
  H   1.47208211464240      0.88338846381707     -0.96992629503897
  H   1.62612100135853      1.63226667457199      0.49221817230521
  N   1.31762126259085     -1.56408233853404      0.30645480745027
  H   0.66149476502744     -2.28802275104728      0.56933990651394
  H   1.53425019837645     -1.63887500443890     -0.67883956772230
