17
Coordinates from ORCA-job run
  C   -0.65850934764820      0.08206318190679      0.13493125218243
  C   0.88667803934940     -0.10305460506405      0.06939062113650
  Br  -1.36659125991235     -0.56129580795665      1.81100761572758
  H   1.15074881102778      0.23388024582027     -0.94460338906566
  N   -0.89863087341330      1.58355161940869      0.01019875980315
  O   -1.37229901191649      2.22533180608352      0.93665062834170
  O   -0.52888372775131      2.04783173356553     -1.07009950109083
  C   -1.37777387900420     -0.59566348014975     -1.01605771098093
  H   -0.95804786797364     -0.25908896243514     -1.96531735872938
  H   -1.27070310783002     -1.67668389870387     -0.92763319676418
  H   -2.44265040372759     -0.35881781160592     -0.99220133626859
  N   1.34404434515679     -1.46030655305371      0.20524260080989
  H   1.05436247758143     -2.04017980988680     -0.56993010910395
  H   1.01092719076265     -1.85567422807766      1.07656534491927
  N   1.51063239473840      0.65841466654038      1.12807849017535
  H   1.42401149871593      1.65628797210134      0.97873145713462
  H   2.49468472184474      0.42040393150701      1.13504583177310
