17
Coordinates from ORCA-job run
  C   -0.67277550999302     -0.02316067374344      0.28164516977181
  C   0.84269117239289     -0.25708422052582      0.60263620413410
  Br  -1.76668268574217     -1.10073950880547      1.48757400588881
  H   0.94433743329738     -0.10775672389681      1.68030193239072
  N   -0.94537809901147      1.42751503697917      0.63152844047097
  O   -0.68085840222224      1.77727633875917      1.77724922945697
  O   -1.32786307545601      2.16737053956241     -0.27228732137521
  C   -1.07709560125066     -0.31518057441454     -1.14268887967258
  H   -0.48790613195693      0.28035167681085     -1.84225368658801
  H   -2.12653669463380     -0.07339969473265     -1.30352435248086
  H   -0.92603341043114     -1.37426336489724     -1.34807727296405
  N   1.68744303173714      0.71348997156111     -0.05118536351155
  H   1.65885577738509      1.61097101898146      0.41073306231416
  H   1.47268213603550      0.83169307236159     -1.03248338032369
  N   1.29906065089833     -1.58638504986113      0.27105462964825
  H   1.46540390559133     -1.67679910423238     -0.72281733872051
  H   0.64265550335978     -2.29489873990630      0.57259492156068
