17
Coordinates from ORCA-job run
  C   -0.70229042134824      0.08093833188979      0.25917596209306
  C   0.78701571595826     -0.33551008588269      0.47444737097510
  Br  -1.57506733368773      0.16597351802125      1.99715829596007
  H   0.72999396599840     -1.23297630559276      1.11064050934673
  N   -0.69172914749378      1.46431026221472     -0.37233525651954
  O   -0.97878062772398      2.45209255055722      0.28238429422004
  O   -0.32302389161761      1.46089002133154     -1.54750435452726
  C   -1.47681101184207     -0.86891896776351     -0.62981978592024
  H   -1.04277763387785     -0.87832082660258     -1.62830433989846
  H   -2.52090474028411     -0.56084868921211     -0.70157919278007
  H   -1.44162465929268     -1.87301209281370     -0.20250747135602
  N   1.48687382612140      0.78707327969924      1.05947472148835
  H   2.46371735885719      0.53660416809463      1.14397385840862
  H   1.12076978969977      1.01801562126018      1.97451361432221
  N   1.51816228174884     -0.70156242883465     -0.71043238324256
  H   1.47445858331875      0.04513271704864     -1.39372657984564
  H   1.17201794546544     -1.55888107341523     -1.11855926272436
