15

C	-0.293608	-0.051875	-1.497234
C	0.0	0.0	0.0
Br	-2.25612	-0.331408	-1.799747
H	1.097232	0.0	0.0
H	-0.343147	-0.921271	0.474794
C	0.080929	1.252297	-2.183932
H	-0.080358	1.169394	-3.26167
H	1.144933	1.425425	-1.989274
H	-0.498658	2.096368	-1.806013
N	0.391538	-1.21679	-1.995866
H	1.356073	-1.179651	-1.660147
H	0.405307	-1.200442	-3.009389
C	-0.543715	1.162838	0.6783
N	-0.99645	2.100351	1.221592
Br	3.482413	0.0	0.0
