15

C	-0.378046	0.058274	-1.487814
C	0.0	0.0	0.0
Br	-0.188069	-1.922093	-2.137504
H	1.093994	0.0	0.0
H	-0.374523	-0.902639	0.481941
C	-1.822256	0.400034	-1.792722
H	-2.009595	0.342776	-2.867388
H	-2.018331	1.419906	-1.449262
H	-2.49928	-0.291064	-1.288268
N	0.516303	0.916332	-2.12924
H	0.412706	0.930703	-3.133826
H	1.484011	0.751738	-1.854416
C	-0.497519	1.180172	0.700731
N	-0.949932	2.106055	1.263956
Br	3.503985	0.0	0.0
