15

C	-0.415312	0.015379	-1.483765
C	0.0	0.0	0.0
Br	-0.331973	-1.980867	-2.041319
H	1.092105	0.0	0.0
H	-0.379662	-0.867467	0.541486
C	-1.858403	0.408931	-1.742223
H	-2.015524	1.446243	-1.430439
H	-2.537464	-0.235441	-1.180645
H	-2.085027	0.308655	-2.805391
N	0.47989	0.760948	-2.249408
H	0.116762	1.584589	-2.694495
H	1.422347	0.837346	-1.882546
C	-0.460079	1.228763	0.643407
N	-0.872744	2.211334	1.138183
Br	3.500185	0.0	0.0
