16

C	-0.369224	-0.002197	-1.503533
C	0.0	0.0	0.0
Br	0.058774	1.756734	-2.286279
H	1.095818	0.0	0.0
C	0.454896	-1.059483	-2.233664
H	0.292907	-0.997756	-3.310791
H	1.505919	-0.889213	-1.978936
H	0.159886	-2.053488	-1.886854
C	-1.80255	-0.209822	-1.702235
N	-2.945849	-0.459437	-1.827085
N	-0.346111	-1.236849	0.678011
H	0.435118	-1.876696	0.590782
H	-1.203409	-1.659862	0.343974
C	-0.57576	1.139794	0.704705
N	-1.038897	2.043118	1.298309
H	2.690138	0.0	0.0
