11
Coordinates from ORCA-job run
  C   0.12400932148709      0.26145132328822      0.08562946545387
  C   -0.89098285555806     -0.85361315945715      0.27640177997625
  Br  0.44654570928063      1.07399449957103      1.92826587688387
  H   -1.80154895578691     -0.47451306089526      0.73743774723129
  H   -1.12059769212697     -1.28247851484043     -0.70142166733013
  H   -0.46821774298336     -1.62660754179060      0.92127400236493
  N   1.30570132225367     -0.21703601513810     -0.52398365405137
  H   1.70845306069277     -0.98194781270233      0.00283684198437
  H   1.99739751300579      0.50958101457037     -0.65702674251237
  C   -0.42786330794206      1.36323970368530     -0.70433262701655
  N   -0.87189637232259      2.22792956370893     -1.36408102298416
