11
Coordinates from ORCA-job run
  C   0.10933975467852      0.22591336275095      0.27480851857641
  C   -0.89827569245102     -0.89931871183759      0.10645133764292
  Br  0.14562503092677      0.78054858676262      2.16220576234928
  H   -0.93661293267415     -1.19392841384936     -0.94694680676404
  H   -1.89308395398651     -0.58144618312087      0.41687681022833
  H   -0.57579495702472     -1.74921785060835      0.70786964250494
  N   1.43184656095689     -0.24236724618283     -0.06277301480012
  H   1.43145970847800     -0.59236206575320     -1.01561161171587
  H   2.11021491675292      0.50747610353420      0.00716613228379
  C   -0.31167846179610      1.41410537266113     -0.48810837520087
  N   -0.61303997386060      2.32959704564330     -1.16193839510478
