11
Coordinates from ORCA-job run
  C   0.11932091952442      0.26052861903696      0.09718957622369
  C   -0.87634985257886     -0.87995905176273      0.23272588412083
  Br  0.41107947980355      1.00248565577707      1.97381986570448
  H   -1.08916216206723     -1.27196146533414     -0.76408797656537
  H   -0.44471135528454     -1.67087205918865      0.84918406799359
  H   -1.79774607665390     -0.53681342035496      0.70021494628026
  N   1.31530476169989     -0.17138784207025     -0.52020247891532
  H   1.72886871454231     -0.94730256753459     -0.01770790821061
  H   1.99373459089623      0.57324996029903     -0.61762034851710
  C   -0.44731762373227      1.38244915723575     -0.65295096654213
  N   -0.91202139614960      2.26058301389653     -1.27956466157231
