11
Coordinates from ORCA-job run
  C   0.13523537623262      0.23430421863760      0.25640476009352
  C   -0.91670911915872     -0.86063188974371      0.19977584570376
  Br  0.30227451716820      0.87212543073979      2.11054368898044
  H   -1.88023267843834     -0.49498937405036      0.55317462906998
  H   -0.58563250200017     -1.69358282244890      0.82006857889156
  H   -1.02835687554192     -1.20087486045908     -0.83445083465898
  N   1.41973496434858     -0.29506937826563     -0.13471350557197
  H   1.35130234204690     -0.68526285909011     -1.06935817253145
  H   2.12457049679492      0.43331342821753     -0.13856799199126
  C   -0.29272966474752      1.40108405878997     -0.53488661322958
  N   -0.62945685670457      2.28858404767288     -1.22899038475604
