14

C	-0.240338	0.179237	0.211259
C	-0.439635	-0.041196	-1.270616
F	1.034988	-0.130292	0.602388
H	-0.409042	-1.146989	-1.371665
H	-0.971155	-0.424388	0.751877
N	-0.471944	1.617174	0.580078
O	0.357163	2.431303	0.181671
O	-1.455508	1.86944	1.270252
C	0.603099	0.572646	-2.089756
N	1.421046	1.011044	-2.810385
N	-1.777226	0.452572	-1.577035
H	-1.875043	0.478963	-2.588461
H	-2.343444	-0.378966	-1.255527
H	-2.28665	-1.936234	-0.668805
