14
Coordinates from ORCA-job run
  C   0.45004271498882      0.31524980483979      0.50768092133281
  C   -0.56348603641240     -0.83807227028316      0.44087557637419
  Cl  1.38043209575907      0.13316470437047      2.03589699583858
  H   -1.12305331548240     -0.85885131534939      1.38468657619662
  H   0.01182963549262     -1.76542931395347      0.37534243432411
  C   1.41168303083460      0.31056745996174     -0.67013965426868
  H   0.83647483538564      0.38376684423355     -1.59302532698516
  H   1.97518452091587     -0.62484626690954     -0.66828559930482
  H   2.11174039359849      1.14364915258778     -0.59951686931803
  C   -0.28345936549299      1.58073181709226      0.57267277870635
  N   -0.91694309332747      2.57003389194624      0.58997599179414
  N   -1.38249673110235     -0.68642681590145     -0.75156863997849
  H   -2.17336532971462     -0.08254364484610     -0.56640490315184
  H   -1.73758335544289     -1.58199404778870     -1.05719028155977
