14
Coordinates from ORCA-job run
  C   0.30949634267308      0.42189802544392      0.42093478091586
  C   -1.00534510447772     -0.29959891489220      0.08849903750779
  Cl  1.03298967781783     -0.36806907658933      1.87328405114501
  H   -1.45513972242352      0.23692625017614     -0.75298034259522
  H   -1.67693962650112     -0.19233572661678      0.95054875494596
  C   1.31314681808404      0.36698271321457     -0.72019952757310
  H   1.50281385944229     -0.67475613664441     -0.97121166757418
  H   0.89403471315059      0.87392874730737     -1.59357568671218
  H   2.24260819906921      0.86100162982509     -0.43601626359820
  C   0.00563554606884      1.80745848031899      0.78037789616474
  N   -0.26087090725174      2.92581600513680      1.02188950372980
  N   -0.74609957684331     -1.67104967815191     -0.31475628325902
  H   -1.52739866055108     -2.02871632183942     -0.84755311422733
  H   -0.62993155825740     -2.25848599668882      0.50075886113007
