14
Coordinates from ORCA-job run
  C   0.42543813732458      0.32128698547795      0.52360644137853
  C   -0.55566820783238     -0.85655951432192      0.41737520711503
  Cl  1.31396433556228      0.14975523659465      2.07781179474423
  H   0.04450086722762     -1.76869600868894      0.36163887587254
  H   -1.14273817989041     -0.89964584306266      1.34355680119542
  C   1.42198216375338      0.35065915062902     -0.62461240906826
  H   2.00799172891618     -0.57074659762915     -0.61348197558832
  H   0.87334385958432      0.41835895184054     -1.56394444270540
  H   2.09883780881853      1.19987716719971     -0.52557573609231
  C   -0.34013544587695      1.56831942895971      0.57580780947733
  N   -0.98509450596632      2.55027602718612      0.57813995116069
  N   -1.34259383142111     -0.71501461640509     -0.79800318314320
  H   -1.66608891514748     -1.61662319342671     -1.12016153852569
  H   -2.15373981505223     -0.13324717435322     -0.63115759582057
