14
Coordinates from ORCA-job run
  C   0.30319429018254      0.34152556980091      0.23495916703027
  C   -0.52487964328892     -0.91667325390749     -0.10999515741786
  Cl  0.30327562907164      0.54830317869346      2.02460239893163
  H   -0.04122315014377     -1.75960869425127      0.39264089213659
  H   -0.42642744343792     -1.07396933032341     -1.18955611957464
  C   1.74268512133922      0.21842585673799     -0.24264199512011
  H   1.76178167563738      0.11816702306269     -1.33080775331828
  H   2.19861735561068     -0.66598241944828      0.20651360517345
  H   2.32358517113737      1.09615550357282      0.04175932603852
  C   -0.34598057890898      1.51579944978478     -0.34738320279509
  N   -0.89413153915291      2.41912164156823     -0.86123256498455
  N   -1.92578823550565     -0.90492851273619      0.22878421187906
  H   -2.05611339757768     -0.76235838308165      1.22165116583950
  H   -2.41659525496303     -0.17297762947263     -0.26929397381845
