14
Coordinates from ORCA-job run
  C   0.41610436027400      0.28977675424242      0.51766069147323
  C   -0.59245457140327     -0.88455515426060      0.53565074569008
  Cl  1.42204481980833      0.16013952352217      2.00186240832371
  H   -1.12557999457811     -0.85466048637613      1.48904621357368
  H   -0.00809475599699     -1.80930398491524      0.51898692475945
  C   1.33326588477127      0.26174802956950     -0.69697046051265
  H   1.86748973123188     -0.69026508505999     -0.72486003036276
  H   2.06106572257311      1.07214804634634     -0.64918897174279
  H   0.74879438908911      0.37764468197254     -1.61203792942646
  C   -0.32397150490465      1.55069919008016      0.57187787565606
  N   -0.97448445108245      2.52925050517676      0.57039004532809
  N   -1.55624912807792     -0.90657343294807     -0.53828477378628
  H   -1.12486566080875     -1.01417151281037     -1.44503268120930
  H   -2.14206484089555     -0.08187707453948     -0.53910005776405
