14
Coordinates from ORCA-job run
  C   0.24112268682326      0.42067101925439      0.43043957965634
  C   -1.07576137949199     -0.35824831537042      0.18075763009353
  Cl  1.07825030311313     -0.31668968037497      1.84595891899922
  H   -1.61582424291226      0.17620561209663     -0.60788743214197
  H   -1.67684453526355     -0.29102765455492      1.09090136145953
  C   1.18495054279905      0.38829995969415     -0.76242713272712
  H   1.47005307791638     -0.64146843176822     -0.97940700089296
  H   2.08970685063988      0.95943235700719     -0.55374482303868
  H   0.68748984596347      0.81934513350078     -1.63559207667562
  C   -0.09259679801797      1.80092078088759      0.77811347565500
  N   -0.38814394038978      2.91524773105131      1.00564652684237
  N   -0.95341548638079     -1.74406512568342     -0.19639712619440
  H   -0.50790606769113     -1.85702410696733     -1.09597220577327
  H   -0.44108085710770     -2.27159927877277      0.49761030473806
