10
Coordinates from ORCA-job run
  C   -1.10117918277102     -0.13829566442293      0.28078109440054
  C   0.27498938703610     -0.05396600734918     -0.39625276973136
  F   -1.94344884000727      0.74434087705304     -0.35384461639914
  H   0.14080455223886     -0.27628382304177     -1.46101998172981
  H   -1.49851002932683     -1.14943038551008      0.17462677126625
  H   -1.02707145417722      0.13360864212149      1.33482617217627
  C   1.17559012930233     -1.05398935089918      0.18556151738680
  N   1.85718807226915     -1.87543794723928      0.67304980954751
  C   0.84167856930522      1.29333235178743     -0.27266225379130
  N   1.28095879613067      2.37612130750044     -0.16606574312575
