10
Coordinates from ORCA-job run
  C   -1.10087298581271     -0.14275714159864      0.28153056594883
  C   0.26163481328617      0.02480891231545     -0.40753473121500
  F   -1.59172584032351     -1.38616828257601     -0.04080664837916
  H   0.11361394628872     -0.11299148924230     -1.48470956255079
  H   -0.99402955201598     -0.07066965432732      1.36496552986244
  H   -1.79104183763860      0.61925383713398     -0.08523431540568
  C   1.21737939618366     -0.98447716878979      0.06082830871379
  N   1.96985765170983     -1.79869838509060      0.44508308565628
  C   0.77375171899002      1.37801869763511     -0.17047261982747
  N   1.13943268933242      2.47368067454011      0.03635038719677
