10
Coordinates from ORCA-job run
  C   -1.13212030235295     -0.11248461066011      0.22085250461630
  C   0.25659958933182     -0.04532832753711     -0.42484411012153
  F   -1.01984324663565      0.15777538608607      1.56213174961507
  H   0.14331684594841     -0.26375953368533     -1.49455460043495
  H   -1.78632828067302      0.63240319682902     -0.23695605022616
  H   -1.54707837564766     -1.11471255194152      0.09497134878776
  C   1.15228166187443     -1.05260950294579      0.15559644450048
  N   1.84221698624394     -1.88479938540674      0.61161444970590
  C   0.83179807557107      1.29806267318421     -0.29021676552904
  N   1.26015704633958      2.38645265607729     -0.19859497091384
