10
Coordinates from ORCA-job run
  C   -1.06806603226915     -0.15768122325587      0.37845241137008
  C   0.44833601063182     -0.00745172753093      0.18370621572052
  F   -1.48117171875552      0.80607559244384      1.26830587898805
  H   0.92259059136470     -0.09412717927163      1.16804695657155
  H   -1.28589246944614     -1.14347227783132      0.79362586026085
  H   -1.59230073509593     -0.01765948078959     -0.56819885756531
  C   0.78076413136729      1.30752041599434     -0.37412495999405
  N   1.02690791973563      2.36488629435067     -0.81902936664420
  C   0.94698051643221     -1.08494866839128     -0.67590437913199
  N   1.30185178603508     -1.97314174571823     -1.35587975957550
