13
Coordinates from ORCA-job run
  C   0.92136876098355     -0.90847035448091     -0.09994834420385
  C   -0.14467965576840      0.14634604151201     -0.38435741609392
  Cl  2.34986479272076     -0.69958085385203     -1.15729403430291
  H   -0.41634627084691      0.06157380101945     -1.44237507190406
  H   1.27178919593706     -0.83024697983180      0.93157086824002
  H   0.54127216073799     -1.91513661198208     -0.28005888711071
  N   0.27552163159782      1.52236266270589     -0.16335273100368
  H   1.08438986694364      1.73666579255970     -0.73436155147254
  H   0.54581615481314      1.64650081816324      0.80673912381300
  C   -1.37478332386066     -0.14221911460672      0.46684605933202
  H   -1.13260349338279     -0.07208013319341      1.53252378885773
  H   -2.14759499660268      0.59517673332757      0.24770738112385
  H   -1.77401482327253     -1.14089180134090      0.27536081472505
