13
Coordinates from ORCA-job run
  C   0.95916828605895     -0.94252146322349     -0.36689820407911
  C   -0.09337927493968      0.15523139456852     -0.34338370430231
  Cl  1.65737103598091     -1.29329374862507      1.23548771643689
  H   -0.49389228450102      0.16710632671477     -1.37397430793601
  H   0.51862992905008     -1.86899821717381     -0.73834931024896
  H   1.78772516651577     -0.66150729819026     -1.02033498006868
  N   0.51673995629086      1.42157591671941      0.04109010695823
  H   1.18650344034849      1.72086511965507     -0.65821475859814
  H   -0.19435355627643      2.13945141228673      0.10847828941367
  C   -1.24299938899826     -0.15508118146853      0.60152298087000
  H   -2.03687429900973      0.58859792282846      0.48983502205550
  H   -0.89386672904432     -0.13475241550442      1.63395039018631
  H   -1.67177228147562     -1.13767376858738      0.39079075931261
