13
Coordinates from ORCA-job run
  C   0.97639660883992     -0.97718959925579     -0.32376439341466
  C   -0.06413184586863      0.12223739930277     -0.44523201138251
  Cl  1.68750175838795     -1.05670850038047      1.32025058581552
  H   -0.41402433502795      0.05738520524206     -1.48432607510399
  H   0.53920481308308     -1.95534535923323     -0.52506978677074
  H   1.79742732670368     -0.77879151118364     -1.01081412207675
  N   0.59544491916617      1.41790747194916     -0.30869748791964
  H   -0.07327647444089      2.15924057474112     -0.48125119247517
  H   0.92458533547743      1.52768113042997      0.64428699786497
  C   -1.26219656353023     -0.09272996483362      0.47827563051128
  H   -0.96186487187388     -0.01957911066879      1.52538710148038
  H   -1.72237818168520     -1.07315344901848      0.32171197511384
  H   -2.02168848923145      0.67004571290896      0.28824277835746
