13
Coordinates from ORCA-job run
  C   0.94343054851702     -0.88168948861185     -0.35248523852983
  C   -0.16946137381277      0.16551215239462     -0.40941777032779
  Cl  1.72407547298498     -0.95349852002199      1.25666177198440
  H   -0.54695764333830      0.11655731831428     -1.44000560099818
  H   0.55544546470338     -1.87942111488678     -0.56552889768314
  H   1.73009911307623     -0.64174547170693     -1.06988264926857
  N   0.26265183742460      1.53754883326848     -0.18193967536135
  H   0.64891261536138      1.61909379176039      0.75189057546717
  H   0.99495838096478      1.79240830644304     -0.83497766502888
  C   -1.31851452865969     -0.16145249692612      0.53252171512759
  H   -0.99722328190933     -0.09896013103399      1.57459050561295
  H   -1.70090725039296     -1.17013264371424      0.35728780154976
  H   -2.12550935491933      0.55577946472108      0.38028512745586
