16

C	0.0	0.0	0.0
C	-0.431974	0.743475	-1.298559
Cl	1.860372	0.0	0.0
H	0.409874	0.727362	-1.994073
H	-0.221309	0.608753	0.877433
N	-0.509795	-1.307008	0.115897
H	-1.080117	-1.405005	0.942472
H	-1.064266	-1.506381	-0.709038
C	-0.765777	2.193235	-0.947289
H	0.067117	2.68398	-0.432503
H	-0.993491	2.760649	-1.85338
H	-1.651692	2.208396	-0.308031
N	-1.52085	0.014579	-1.934723
H	-2.385836	0.110837	-1.393498
H	-1.684655	0.377873	-2.864978
Cl	-4.130715	0.0	0.0
