16

C	0.0	0.0	0.0
C	-0.444189	0.085193	-1.477302
Cl	1.840293	0.0	0.0
H	0.145073	-0.678069	-2.007468
H	-0.288883	0.896189	0.551085
N	-0.523185	-1.142307	0.640112
H	-0.167104	-1.998461	0.236843
H	-0.380422	-1.139625	1.639091
C	-0.115707	1.449711	-2.06853
H	0.942974	1.697833	-1.988931
H	-0.412732	1.460106	-3.117984
H	-0.696828	2.219784	-1.550749
N	-1.843501	-0.194843	-1.704628
H	-2.454244	0.510971	-1.300474
H	-2.131367	-1.036125	-1.218882
Cl	-4.725633	0.0	0.0
