16

C	0.0	0.0	0.0
C	-0.511649	-0.308567	-1.402919
Cl	1.799462	0.0	0.0
H	-1.597143	-0.188424	-1.316047
H	-0.254689	1.043192	0.202379
N	-0.512398	-0.949403	0.950671
H	-0.335365	-0.597658	1.884756
H	-1.529411	-0.927168	0.822915
C	-0.198429	-1.731561	-1.847285
H	0.881084	-1.87727	-1.952463
H	-0.668596	-1.92039	-2.817996
H	-0.574481	-2.463013	-1.13078
N	-0.03665	0.729488	-2.320462
H	-0.61719	0.71214	-3.150477
H	0.914297	0.514689	-2.605046
Cl	-3.716657	0.0	0.0
