16

C	0.0	0.0	0.0
C	-0.578908	0.141786	-1.399407
Cl	1.831174	0.0	0.0
H	-1.657307	0.047541	-1.20627
H	-0.284974	0.874048	0.586277
N	-0.49447	-1.170502	0.635994
H	-0.500716	-1.089441	1.64065
H	0.017604	-1.994403	0.359355
C	-0.140751	-0.959854	-2.34559
H	-0.390241	-1.942174	-1.939245
H	0.931688	-0.900423	-2.544397
H	-0.678573	-0.862654	-3.293505
N	-0.2181	1.451357	-1.957749
H	-0.566731	1.482242	-2.910361
H	-0.754892	2.152173	-1.45389
Cl	-4.039656	0.0	0.0
