16

C	0.0	0.0	0.0
C	-0.356789	-0.030512	-1.536963
Cl	1.803489	0.0	0.0
H	0.471293	-0.553661	-2.029118
H	-0.310921	0.947996	0.442187
N	-0.510631	-1.055444	0.821241
H	-0.387891	-1.944754	0.349364
H	-1.513642	-0.893556	0.918269
C	-0.413263	1.401177	-2.053736
H	-1.288651	1.900387	-1.628156
H	0.484249	1.962917	-1.781236
H	-0.519542	1.398937	-3.139975
N	-1.567136	-0.718341	-1.928979
H	-2.384956	-0.349199	-1.440814
H	-1.510862	-1.698747	-1.681175
Cl	-4.018449	0.0	0.0
