13

C	0.0	0.0	0.0
C	-0.383062	-0.056317	-1.466547
F	1.370725	0.0	0.0
H	-1.460364	-0.196276	-1.518789
H	-0.399653	0.846482	0.548122
H	0.145683	-0.908009	-1.901684
N	-0.38305	-1.227023	0.773825
O	-0.437613	-1.11021	1.996795
O	-0.438817	-2.291116	0.159105
N	0.019153	1.163135	-2.171008
H	0.982054	1.37761	-1.936699
H	-0.555008	1.926104	-1.828779
H	-2.760384	0.0	0.0
