13

C	0.0	0.0	0.0
C	-0.424093	0.471144	-1.380726
F	1.358849	0.0	0.0
H	0.086598	1.425377	-1.560744
H	-0.370685	0.677839	0.786807
H	-1.499097	0.647553	-1.359705
N	-0.58493	-1.291696	0.346239
O	-0.334176	-1.708237	1.507606
O	-1.753119	-1.417118	-0.242969
N	-0.100398	-0.458469	-2.46387
H	-0.679729	-1.27282	-2.288666
H	0.862116	-0.756141	-2.343916
H	-2.828398	0.0	0.0
