13

C	0.0	0.0	0.0
C	-0.301302	0.195496	-1.503451
F	1.355641	0.0	0.0
H	-0.253889	-0.812355	-1.939508
H	-0.388364	0.824644	0.616559
H	0.56261	0.755436	-1.87863
N	-0.616027	-1.204072	0.529314
O	-0.332644	-1.516777	1.71546
O	-1.777361	-1.39483	-0.045682
N	-1.507166	0.944588	-1.834066
H	-2.250627	0.593153	-1.212474
H	-1.780355	0.676883	-2.773841
H	-2.989509	0.0	0.0
