13

C	0.0	0.0	0.0
C	-0.381498	0.084419	-1.489467
F	1.358746	0.0	0.0
H	-0.193709	1.134904	-1.747659
H	-0.399701	0.767297	0.656913
H	0.398896	-0.501971	-1.9857
N	-0.352336	-1.317952	0.641526
O	-0.445953	-1.326282	1.867276
O	-0.396979	-2.308966	-0.083294
N	-1.674772	-0.318645	-1.979865
H	-2.407543	-0.037205	-1.284802
H	-1.707899	-1.331964	-1.938604
H	-3.311567	0.0	0.0
