13

C	0.0	0.0	0.0
C	-0.529655	-0.062819	-1.406628
F	1.360271	0.0	0.0
H	-0.059147	-0.904394	-1.919551
H	-0.388761	0.840556	0.570109
H	-1.611407	-0.222208	-1.290588
N	-0.352731	-1.230975	0.800093
O	-0.480626	-1.088643	2.013184
O	-0.353902	-2.305886	0.203931
N	-0.290636	1.180562	-2.138668
H	0.645609	1.520278	-1.948536
H	-0.950901	1.869956	-1.794909
H	-3.072142	0.0	0.0
