19

C	0.0	0.0	0.0
C	-0.457262	0.125351	-1.475377
Cl	1.784878	0.0	0.0
H	0.086621	0.985516	-1.874224
N	-0.345116	1.303498	0.733174
O	-0.734124	1.21847	1.893536
O	-0.164701	2.346266	0.114112
C	-0.559175	-1.174394	0.755949
H	-0.305203	-2.092399	0.225207
H	-1.646725	-1.078548	0.826574
H	-0.146194	-1.218236	1.762441
C	-1.950644	0.370495	-1.592932
H	-2.181264	0.559188	-2.643235
H	-2.557452	-0.473309	-1.264881
H	-2.298256	1.222811	-1.011795
N	-0.102017	-1.03107	-2.285514
H	-0.708714	-1.810357	-2.059683
H	0.860928	-1.307602	-2.13577
Br	-5.067901	0.0	0.0
