16

C	-0.337467	0.014039	-1.499964
C	0.0	0.0	0.0
F	-0.011471	-1.283252	-1.996202
H	1.09553	0.0	0.0
N	-1.731989	0.25011	-1.727767
H	-2.240083	-0.600797	-1.513935
H	-1.891816	0.486634	-2.700101
N	0.464027	0.999297	-2.133731
H	1.424843	0.887918	-1.807903
H	0.456546	0.842714	-3.134674
C	-0.568932	-1.19928	0.619674
N	-1.088468	-2.141863	1.089062
N	-0.455348	1.196124	0.697227
H	0.276733	1.890225	0.614367
H	-1.27704	1.543616	0.213756
Cl	3.34291	0.0	0.0
