16

C	-0.332052	-0.057157	-1.502154
C	0.0	0.0	0.0
F	-0.048173	1.224995	-2.019876
H	1.096582	0.0	0.0
N	0.481428	-1.048112	-2.106059
H	1.452579	-0.927055	-1.817046
H	0.417554	-0.993988	-3.115594
N	-1.751123	-0.212605	-1.732206
H	-1.953328	0.032921	-2.694309
H	-1.985374	-1.188173	-1.593092
C	-0.502077	-1.226092	0.628266
N	-0.946716	-2.191325	1.127819
N	-0.521825	1.168406	0.68319
H	0.099277	1.939116	0.470919
H	-1.432087	1.379212	0.287091
Cl	3.360847	0.0	0.0
