16

C	-0.234902	0.068201	-1.515386
C	0.0	0.0	0.0
F	-1.594314	0.098373	-1.789279
H	1.104624	0.0	0.0
N	0.335363	1.301707	-1.974208
H	0.358527	1.259298	-2.987667
H	1.294994	1.35546	-1.636396
N	0.289658	-1.070432	-2.229477
H	1.281952	-1.135125	-2.019684
H	-0.155048	-1.918639	-1.894163
C	-0.517138	-1.263533	0.529327
N	-0.929648	-2.277624	0.95412
N	-0.572506	1.1392	0.719669
H	0.126757	1.457577	1.383674
H	-0.691604	1.882181	0.038455
Cl	3.316378	0.0	0.0
