16

C	-0.551151	0.005197	-1.430773
C	0.0	0.0	0.0
F	0.067254	-1.005033	-2.125868
H	1.088801	0.0	0.0
N	-1.956272	-0.275225	-1.45639
H	-2.276375	-0.284962	-2.418002
H	-2.448353	0.447637	-0.946288
C	-0.174787	1.269835	-2.117031
N	0.015448	2.254029	-2.72903
N	-0.513475	-1.219055	0.702961
O	-1.394149	-1.066737	1.545768
O	-0.023841	-2.279296	0.343666
N	-0.456894	1.177873	0.790402
O	-1.377695	1.869561	0.342179
O	0.119471	1.362109	1.854682
Cl	3.14214	0.0	0.0
