16

C	-0.537284	0.074339	-1.435093
C	0.0	0.0	0.0
F	-0.153155	-1.134336	-2.031586
H	1.087668	0.0	0.0
N	-1.932979	0.30134	-1.479161
H	-2.251979	0.411484	-2.432615
H	-2.412904	-0.462604	-1.021231
C	0.12976	1.139086	-2.211427
N	0.570714	1.928192	-2.960446
N	-0.470045	-1.22221	0.717715
O	0.213612	-1.569218	1.671124
O	-1.505708	-1.776281	0.343008
N	-0.490755	1.181326	0.76923
O	-1.223673	0.989219	1.735511
O	-0.11375	2.265521	0.344748
Cl	3.137444	0.0	0.0
