16

C	-0.558684	-0.006698	-1.445867
C	0.0	0.0	0.0
F	0.189619	-0.915886	-2.145231
H	1.090125	0.0	0.0
N	-1.938243	-0.337027	-1.653846
H	-2.522054	0.324072	-1.155646
H	-2.094295	-1.264116	-1.275879
C	-0.319542	1.34178	-2.014443
N	-0.188124	2.413419	-2.475317
N	-0.429331	-1.185956	0.794523
O	-0.377155	-1.071088	2.013496
O	-0.738815	-2.205549	0.180235
N	-0.533828	1.194994	0.71857
O	0.256592	2.05476	1.08252
O	-1.760741	1.232491	0.861099
Cl	3.142503	0.0	0.0
