16
Coordinates from ORCA-job run
  C   0.83430713183885     -0.52878866877732     -0.09306197650908
  C   -0.60883070549287     -0.08451029160345      0.12196928830694
  F   1.20714269134580     -0.28715222996659     -1.41607056374550
  H   -0.91811098668635     -0.53397636299376      1.08211920403669
  H   0.88053754250714     -1.61647271935698      0.04483824410342
  C   1.83077176791937      0.16721636854580      0.80507777779423
  H   1.83894894630644      1.23243593436053      0.57229155012167
  H   2.83291718343906     -0.23138384196088      0.63991900654450
  H   1.57141836123827      0.02601912801747      1.85825677186285
  C   -1.50544233462979     -0.63042707735991     -0.97910596325905
  H   -1.38644855578755     -1.71086724026299     -1.08638506854438
  H   -1.24483555518663     -0.15741870427643     -1.92624760446297
  H   -2.55673196234449     -0.42569658792681     -0.75849980577600
  N   -0.69390769840853      1.37607279215807      0.13361427556574
  H   -1.64974014783675      1.66291654585312     -0.03831725455098
  H   -0.43199567822197      1.74003295555012      1.04160211851191
