16
Coordinates from ORCA-job run
  C   0.77405633070925      0.34775125978267      0.51109947724421
  C   -0.65957963746659     -0.04774057765434      0.21255328561123
  F   0.90260963018527      0.40400040360434      1.91162960355559
  H   -0.81303541749013     -1.03683509673476      0.67749327649945
  H   0.93912608224339      1.36872300512373      0.15091655428325
  C   1.82455986111546     -0.60473336334613     -0.00957040542953
  H   2.79883865071479     -0.32628656733964      0.39533568773797
  H   1.60247422326455     -1.62859413390298      0.30030777948540
  H   1.88448948225886     -0.56858712279640     -1.09840628773450
  C   -0.91462726533554     -0.15122394658014     -1.28347643337193
  H   -0.64528528621997      0.78649197676681     -1.77593306087071
  H   -0.35563152122971     -0.97146962107730     -1.73705137568148
  H   -1.97617458085748     -0.33189361916094     -1.47234019180748
  N   -1.52828063727818      0.98426238156969      0.77535230467101
  H   -1.33702556738475      1.06961541501816      1.76655086275301
  H   -2.49751434722923      0.70551960672722      0.67653892305451
