16
Coordinates from ORCA-job run
  C   0.57982301189217     -0.50714441059113      0.74983155274257
  C   -0.83484203192949     -0.15421861555677      0.28250172976058
  F   0.73629567457481     -1.89572448588701      0.63752609981790
  H   -1.50477207283013     -0.80146255416252      0.86077303159877
  H   0.65892563328910     -0.27828533995275      1.82018213828746
  C   1.70949641311616      0.15054920847755     -0.01052900269614
  H   1.70898249540293     -0.17138365461998     -1.05262258693272
  H   2.66644726185215     -0.13250522765525      0.43111815366506
  H   1.62896193659295      1.23905481827537      0.02559937247728
  C   -1.04910270692245     -0.44524378166899     -1.19421332115340
  H   -0.49469966300631      0.25951713171215     -1.82068544965356
  H   -0.72352310941181     -1.45680462844488     -1.44158402822913
  H   -2.10774769977137     -0.34246098363474     -1.43594901208543
  N   -1.22100138552994      1.22485511766358      0.56675670085565
  H   -1.10209313990613      1.44058851787120      1.54984729717349
  H   -0.65015061741264      1.86966888817416      0.03344732437163
