17

C	-0.327845	0.019796	-1.48451
C	0.0	0.0	0.0
Cl	0.207569	1.53957	-2.169529
H	1.090545	0.0	0.0
N	0.37826	-1.125912	-2.22419
O	0.593566	-2.12972	-1.561959
O	0.622675	-0.963848	-3.409956
N	-1.813098	-0.119972	-1.846702
O	-2.152168	-1.007709	-2.613767
O	-2.544222	0.71032	-1.322004
N	-0.568918	-1.217075	0.656416
O	-0.020044	-1.596515	1.679624
O	-1.58552	-1.725755	0.170694
N	-0.414138	1.130316	0.766288
H	-1.230287	1.598584	0.400806
H	0.371922	1.757408	0.861044
F	2.501308	0.0	0.0
