17

C	-0.447466	-0.00499	-1.451372
C	0.0	0.0	0.0
Cl	0.522882	-1.014597	-2.474744
H	1.092155	0.0	0.0
N	-1.936197	-0.2959	-1.676214
O	-2.284991	-0.691614	-2.777072
O	-2.666384	-0.056119	-0.720832
N	-0.296554	1.453561	-1.933078
O	0.851723	1.843429	-2.059445
O	-1.328123	2.055646	-2.201625
N	-0.409287	-1.321936	0.640301
O	-0.755732	-2.2626	-0.082423
O	-0.205944	-1.387479	1.848196
N	-0.463818	1.132603	0.704751
H	0.137317	1.319421	1.500389
H	-1.435831	1.047211	0.987806
F	2.501453	0.0	0.0
