17

C	-0.484933	0.017204	-1.432623
C	0.0	0.0	0.0
Cl	0.216712	1.374696	-2.270772
H	1.094393	0.0	0.0
N	-0.130137	-1.246863	-2.242176
O	-1.067399	-1.944296	-2.612508
O	1.053867	-1.420338	-2.456471
N	-2.019244	0.109576	-1.52224
O	-2.622998	-0.351922	-0.558964
O	-2.522403	0.587106	-2.527566
N	-0.380695	-1.263282	0.69903
O	-0.751657	-1.183038	1.869782
O	-0.222693	-2.320055	0.089619
N	-0.447264	1.173835	0.671118
H	0.308086	1.493878	1.260827
H	-1.253895	0.973769	1.246813
F	2.476438	0.0	0.0
