17

C	-0.441188	-0.033136	-1.464666
C	0.0	0.0	0.0
Cl	0.300758	-1.458762	-2.256067
H	1.11337	0.0	0.0
N	-1.930903	-0.027963	-1.69043
O	-2.309857	-0.586428	-2.822616
O	-2.493251	1.101923	-1.386376
N	0.078483	1.142063	-2.255031
O	1.376628	1.314035	-2.07924
O	-0.359496	1.191891	-3.480966
N	-0.4757	-1.161662	0.777268
O	0.236773	-1.323068	1.876144
O	-1.772078	-1.206695	0.920781
N	-0.433639	1.189568	0.734015
H	-0.048823	2.029094	0.278627
H	-1.455331	1.27426	0.758556
F	2.505918	0.0	0.0
