18

C	0.0	0.0	0.0
C	-0.301841	0.228367	-1.522459
F	1.340434	0.0	0.0
H	0.621566	0.746316	-1.810307
N	-0.37744	1.205766	0.861252
O	0.095847	2.246975	0.41591
O	-0.995542	1.081627	1.900467
N	-0.364177	-1.278923	0.736624
O	-0.947829	-2.186765	0.171214
O	0.114829	-1.337236	1.869411
N	-1.407728	1.109229	-1.855564
H	-2.159017	0.796303	-1.18773
H	-1.708411	0.86266	-2.794053
C	-0.323413	-1.099166	-2.288399
H	-0.260254	-0.861051	-3.358037
H	-1.258837	-1.615484	-2.086792
H	0.518555	-1.754353	-2.038299
F	-2.538963	0.0	0.0
