18

C	0.0	0.0	0.0
C	-0.540233	0.010871	-1.421812
F	1.32634	0.0	0.0
H	-1.638622	0.007877	-1.257251
N	-0.354943	1.237305	0.855096
O	-1.155583	1.169199	1.766628
O	0.311714	2.229987	0.551411
N	-0.396856	-1.215622	0.822638
O	-0.99555	-2.138643	0.295925
O	0.037298	-1.206193	1.972569
N	0.01161	-1.197057	-2.07128
H	-0.665819	-1.939981	-1.966519
H	0.114198	-1.006254	-3.059644
C	-0.024517	1.232602	-2.169164
H	-0.411632	1.201052	-3.19229
H	1.069036	1.233739	-2.209669
H	-0.353426	2.161573	-1.711815
F	-2.68792	0.0	0.0
