12

C	-0.094908	-0.035383	-1.438542
C	-0.007157	0.014271	0.087812
F	-1.412265	-0.207534	-1.865443
H	1.088134	0.031623	0.155955
H	0.513891	-0.873094	-1.766754
C	0.423096	1.200167	-2.038381
N	0.701269	2.19552	-2.594465
C	-0.547858	-1.209397	0.664942
N	-0.951757	-2.208336	1.133479
C	-0.659853	1.18641	0.653895
N	-1.157376	2.141432	1.124566
F	2.326637	-0.101982	-0.692683
