12

C	-0.24755	-0.016673	-1.43986
C	-0.019134	0.031527	0.07803
F	0.154294	1.183021	-1.982668
H	1.077444	0.038713	0.093885
H	-1.31241	-0.127312	-1.678278
C	0.472045	-1.133241	-2.074751
N	0.807264	-2.058633	-2.714903
C	-0.523886	-1.179493	0.703855
N	-0.923713	-2.164141	1.206719
C	-0.648727	1.213179	0.644086
N	-1.13436	2.177833	1.108877
F	2.321086	-0.228737	-0.546158
