12

C	-0.093545	-0.009388	-1.440104
C	-0.005765	0.010497	0.08693
F	-1.410715	-0.17365	-1.870589
H	1.089422	0.027321	0.15537
H	0.515637	-0.840307	-1.784411
C	0.423966	1.238311	-2.014718
N	0.698553	2.24968	-2.543005
C	-0.545367	-1.224784	0.639913
N	-0.951042	-2.23209	1.088557
C	-0.659409	1.170624	0.676226
N	-1.158664	2.115131	1.165881
F	2.327897	-0.090703	-0.697276
