12

C	-0.094843	-0.029972	-1.437715
C	-0.006647	0.012979	0.088801
F	-1.412251	-0.202362	-1.865007
H	1.088597	0.033242	0.155903
H	0.515303	-0.865106	-1.769845
C	0.420473	1.209489	-2.031649
N	0.697276	2.209614	-2.579773
C	-0.542248	-1.215417	0.660478
N	-0.946801	-2.216279	1.124275
C	-0.663667	1.179827	0.660551
N	-1.169764	2.128056	1.135773
F	2.326881	-0.101472	-0.693883
