12

C	-0.282174	-0.005219	-1.428068
C	-0.027917	0.032068	0.086077
F	0.128487	1.191064	-1.971757
H	1.068676	0.023812	0.084199
H	-1.352329	-0.098972	-1.649318
C	0.410473	-1.129144	-2.07993
N	0.720544	-2.056241	-2.730232
C	-0.540083	-1.174458	0.714469
N	-0.945965	-2.15568	1.219169
C	-0.631415	1.219816	0.667877
N	-1.09574	2.188947	1.144967
F	2.297294	-0.261239	-0.577274
