12

C	-0.284302	-0.007874	-1.427685
C	-0.028277	0.030765	0.085948
F	0.124945	1.18812	-1.973279
H	1.068305	0.019019	0.083486
H	-1.354649	-0.102475	-1.647538
C	0.408786	-1.131301	-2.079939
N	0.723791	-2.053551	-2.734714
C	-0.543138	-1.173357	0.716892
N	-0.950637	-2.152954	1.223479
C	-0.62735	1.22086	0.667324
N	-1.090317	2.190972	1.14373
F	2.297828	-0.256958	-0.577569
