12

C	-0.215963	-0.087312	-1.437611
C	-0.023652	-0.090313	0.08716
F	0.096787	-1.346875	-1.913841
H	1.073368	-0.049015	0.08678
H	0.546209	0.615634	-1.785595
C	-1.58644	0.231029	-1.868756
N	-2.67156	0.499456	-2.228991
C	-0.64765	-1.239424	0.726258
N	-1.122633	-2.178766	1.249036
C	-0.493658	1.160594	0.666256
N	-0.86325	2.173395	1.133001
F	2.235275	0.585567	-0.682127
