12

C	-0.205531	-0.071577	-1.441125
C	-0.028579	-0.086628	0.085344
F	0.103205	-1.32994	-1.922927
H	1.06789	-0.050773	0.097151
H	0.565277	0.628217	-1.776506
C	-1.569699	0.259132	-1.882684
N	-2.652752	0.532666	-2.245275
C	-0.666324	-1.236375	0.709946
N	-1.154404	-2.174705	1.222356
C	-0.497456	1.162693	0.669557
N	-0.854242	2.177874	1.141103
F	2.243468	0.576362	-0.659873
