16
Coordinates from ORCA-job run
  C   -0.45815333740665      0.66183490714574     -0.42052493953015
  C   0.71592188043623     -0.33818174013666     -0.46738622283060
  Cl  0.05323128158397      2.13325226148411     -1.31406194637210
  H   1.19676024743512     -0.32193409995689     -1.44583590609087
  C   -0.94811968468114      1.05647509950082      0.96936448958816
  H   -1.80615624589483      1.71996701557074      0.85729337694976
  H   -1.24872688783265      0.16773724082334      1.52336476597267
  H   -0.16267987168198      1.58644922545959      1.50481030483263
  C   -1.54862678509295      0.05699499304600     -1.19070825865570
  N   -2.43147422206113     -0.43598052021075     -1.79027390139609
  N   0.24512535806483     -1.74383548094297     -0.23987718134321
  O   0.52435396100561     -2.55502191347810     -1.11536264911179
  O   -0.37334735959060     -1.95154952004257      0.79803122966336
  N   1.80313769304055     -0.07456046021505      0.55220899065980
  O   2.38470483506420     -1.06043340417747      0.98513457005652
  O   2.05304913761141      1.09778639613011      0.79382327760763
