16
Coordinates from ORCA-job run
  C   -0.39357785563434      0.71828895106790     -0.14987220238725
  C   0.76716624315695     -0.20016049082409      0.22836987693526
  Cl  0.34353177854798      2.35068758039680     -0.32408795984854
  H   1.23875006405800      0.13732607263583      1.15016460242710
  C   -1.42595261626063      0.77785961483808      0.97413696100897
  H   -1.93301674168223     -0.18126935590350      1.07220867349987
  H   -2.16318520967381      1.54523482304052      0.73729484769595
  H   -0.93519733319967      1.04440238722645      1.91254148799572
  C   -1.02936107691139      0.37536494077918     -1.41986340859339
  N   -1.62365392424496      0.16246200853017     -2.41105280543307
  N   1.84223069570431     -0.24240641470438     -0.82216599982947
  O   2.91796604755586      0.26014092506413     -0.52247643358385
  O   1.53186912117498     -0.78386416728066     -1.87804426371593
  N   0.36787273060394     -1.63745713368820      0.43563760714974
  O   -0.72765647315212     -2.00543752924406      0.02809806280080
  O   1.22221454995712     -2.32117221193418      0.98911095387810
