16
Coordinates from ORCA-job run
  C   0.68720744130314     -0.37139576013541      0.12413714231062
  C   -0.66901902455054      0.22642486436258      0.51851704094246
  Br  1.45577879971179     -1.06357156240917      1.80830800471301
  H   -0.49938315838940      0.98623929023539      1.28676485146738
  C   0.55158568823221     -1.51527710578835     -0.77237223737276
  N   0.48978572372875     -2.44198226073163     -1.49309293943129
  C   1.65460208954467      0.66565133407873     -0.43932386251742
  H   1.72868909667795      1.51281965274480      0.24600007712635
  H   2.64420957445482      0.22420518174457     -0.55666712998635
  H   1.30360573749656      1.00532785955451     -1.41382364314338
  N   -1.66233926947609     -0.73846873744329      0.85057845327233
  H   -2.20528203055670     -0.47313055196114      1.65783776440677
  H   -1.30174012344435     -1.67447627703492      0.95918595122161
  N   -1.23243044565060      1.03220484911396     -0.65225159654663
  O   -1.89904162142267      2.01258936883533     -0.33453713157886
  O   -1.04522847765954      0.61383985483404     -1.78926074488384
