16
Coordinates from ORCA-job run
  C   0.77144040833707      0.01937785170698     -0.01930063425491
  C   -0.75438907272812     -0.08746760841744      0.18040922939747
  Br  1.28055468383282      1.91528230327328     -0.16095493408013
  H   -0.98724107626369     -1.14377296960672      0.34246339644808
  C   1.51144969633267     -0.54255979218081      1.10674506867909
  N   2.16688845236893     -1.04331418212278      1.94462418399664
  C   1.18013182136158     -0.69584936813815     -1.30541142472174
  H   0.66856959696314     -0.24746627873520     -2.15425666100680
  H   2.26007569427695     -0.62933118776846     -1.43874531066247
  H   0.89690760916443     -1.74996932131332     -1.23218911711475
  N   -1.46660460658565      0.42100443803822     -0.92858593113088
  H   -1.38643461457633      1.42985565038258     -0.97192577616211
  H   -2.44634250367634      0.17643860802844     -0.87070187050081
  N   -1.13890397515391      0.57217385841443      1.51543861489904
  O   -1.68297107799904      1.67035728357589      1.46206532257629
  O   -0.87313103565451     -0.06475928513694      2.53032584363799
