16
Coordinates from ORCA-job run
  C   0.77993626739086     -0.30028163549663      0.20348482351024
  C   -0.60441383168415      0.21810254406377      0.65031722023825
  Br  1.79958174377336     -0.63744957312760      1.84655927768633
  H   -0.46325863769324      1.05558470950096      1.33423300294198
  C   0.64004237970663     -1.57664962938223     -0.49128227462247
  N   0.52187778562865     -2.59245305057766     -1.07141833409229
  C   1.55210649394058      0.69951526309934     -0.65237751230542
  H   2.56078860637225      0.32660009804106     -0.82988772474771
  H   1.61117749522764      1.66233132276507     -0.14211908025314
  H   1.05650200217956      0.83315390050332     -1.61652034806501
  N   -1.39622205237187     -0.79701744646585      1.22650235815678
  H   -1.66552336480152     -1.49471067230720      0.54290325240561
  H   -2.21873144751963     -0.42449023272502      1.68086058464567
  N   -1.24279845501221      0.85824967966275     -0.59098105839897
  O   -1.17217963008534      2.08052897091592     -0.69037884571906
  O   -1.75688535505156      0.08898575153000     -1.39989534138080
