16
Coordinates from ORCA-job run
  C   0.84629848710911     -0.20366676547814      0.18411788883374
  C   -0.61532207800606     -0.06099526543519      0.67118292489466
  Br  2.01559727417367      0.89125270866979      1.31822696314172
  H   -0.68374402907368     -0.40770099838348      1.70265754089143
  C   1.21574405104601     -1.59933669536333      0.41024432138338
  N   1.51669502038083     -2.72330771127448      0.57626982122259
  C   1.07644735673987      0.16981488002326     -1.27703968214203
  H   2.12565232374991      0.01093638559942     -1.52678224852506
  H   0.82032920992458      1.21325924407432     -1.45201233994229
  H   0.47089207490583     -0.47497802893978     -1.91762526326711
  N   -1.47817334030153     -0.80541282810983     -0.17736699035333
  H   -2.36208345128880     -1.00323086567986      0.27259248723156
  H   -1.64439381359230     -0.31589784907766     -1.04794786466770
  N   -0.99712637152189      1.41416183212416      0.74238195980295
  O   -1.19513796022580      1.97624620967350     -0.33445003105625
  O   -1.11167475401974      1.91785574757729      1.85455051255172
