16
Coordinates from ORCA-job run
  C   0.78815378899219     -0.29533294653069      0.17940012884680
  C   -0.53912336052110      0.33098679543632      0.66033373291237
  Br  1.94135497469548     -0.42940384285779      1.76186704734505
  H   -0.31860959519787      1.25246166086344      1.20002596801325
  C   0.55654899360706     -1.65222386158331     -0.30720978916428
  N   0.36113704642322     -2.73552005793137     -0.72030508494429
  C   1.50370823799949      0.54276377849422     -0.87601319439721
  H   0.92882733915112      0.55202876992507     -1.80448634734403
  H   1.62728558412994      1.56670464327880     -0.52044071317649
  H   2.48478857582028      0.11461011523980     -1.08015584985202
  N   -1.30021041039379     -0.56151494526890      1.44367747075461
  H   -2.07131890885608     -0.09789616365769      1.90430685826098
  H   -1.64380054480038     -1.34120062476830      0.89533899414155
  N   -1.26906660748631      0.80777504115789     -0.60376485622809
  O   -1.17654869833428      1.99918291342195     -0.88840995039818
  O   -1.87312641522898     -0.05042127521944     -1.24316441477000
