16
Coordinates from ORCA-job run
  C   0.73218405125901      0.02313068876263     -0.00074681575490
  C   -0.80172292665054     -0.01596252848199      0.26656722898350
  Br  1.32223387952281      1.87376783160843     -0.28629441771048
  H   -1.05527709962237     -1.06217714249562      0.45571922633978
  C   1.48645702250661     -0.51237430773458      1.12751070266458
  N   2.12412280839505     -0.99540766470009      1.98957236285721
  C   1.05202562368802     -0.78166492569577     -1.25857098120096
  H   0.71773995250516     -1.81510708559260     -1.12585733449252
  H   2.12682952277966     -0.78191280296238     -1.43970484365080
  H   0.55368590744013     -0.34235351601585     -2.12283378485436
  N   -1.65612601167143      0.51603660061024     -0.73217334872105
  H   -1.37321101070408      1.43630437700968     -1.04029981790057
  H   -1.77982323931489     -0.11491419832625     -1.50933607418871
  N   -1.08892722666156      0.68821148423648      1.57378897941680
  O   -1.41081738179588      1.86851213051886      1.51168564006088
  O   -0.94937387167570      0.01591105925881      2.59297327815161
