16
Coordinates from ORCA-job run
  C   0.76957900297440     -0.03756445559309     -0.04246563201700
  C   -0.75341549087232     -0.03367714892656      0.20279757177470
  Br  1.41417209512256      1.81724813243175     -0.17467600318585
  H   -1.05931785304778     -1.07201471533328      0.35973025234790
  C   1.49872497887633     -0.67095192578262      1.05239914719931
  N   2.13885913252546     -1.23375993930774      1.86225357345917
  C   1.08547571432730     -0.76170915680672     -1.34951104126334
  H   0.72824235154179     -1.79333184853534     -1.28041239243644
  H   2.16284686966398     -0.77233173573726     -1.51578116277735
  H   0.58284726747590     -0.26495568765627     -2.17644576951266
  N   -1.45855492862566      0.54137001113423     -0.87777625252354
  H   -1.30342569845828      1.54181138009524     -0.91355323023352
  H   -2.45181794625657      0.37046786105508     -0.79163039330494
  N   -1.04727907947176      0.63381355577323      1.55663832032472
  O   -1.51057132698278      1.76936745468781      1.53334601897422
  O   -0.79736508879257     -0.03478178149847      2.55508699317464
