16
Coordinates from ORCA-job run
  C   0.84147833404518     -0.19575423530933      0.21115037312539
  C   -0.63909103708809     -0.08015825496041      0.64573605883581
  Br  1.95245612068345      0.89668411032981      1.40508495489781
  H   -0.74139716127791     -0.44661048115613      1.66755089094291
  C   1.22047642855714     -1.58972794538426      0.43127346093946
  N   1.52933228076957     -2.71195292060010      0.59464995236890
  C   1.12099168274017      0.20328370054805     -1.23434763986055
  H   0.85978546731029      1.24675712731529     -1.40240647436966
  H   2.18048434495503      0.05929747269149     -1.44709550522778
  H   0.54626552488068     -0.43757627731165     -1.90686047348401
  N   -1.46027813154027     -0.81899926074600     -0.24820352436061
  H   -2.35664953857609     -1.03843681619429      0.16554247039400
  H   -1.60209542841028     -0.31361083884671     -1.11397121642452
  N   -1.04243825230246      1.38845052865994      0.72956152405517
  O   -1.20254928324174      1.96956060529348     -0.34323397910517
  O   -1.20777135150465      1.86879348567083      1.84556912727285
