16
Coordinates from ORCA-job run
  C   0.73123521848847     -0.02482462925594     -0.02556863326742
  C   -0.79313498780539      0.04273764946486      0.28732961650509
  Br  1.42312309026694      1.76979116769867     -0.41795556389196
  H   -1.10498932787992     -0.97703967068093      0.52659991830018
  C   1.48779634497591     -0.54976721165896      1.10637682250805
  N   2.13667184050925     -0.97824298373647      1.98877795646331
  C   0.96099102148266     -0.90553880393825     -1.25192750627070
  H   2.02708697005878     -0.97749200303817     -1.46720675678931
  H   0.45912514708868     -0.47873743474931     -2.12045147195243
  H   0.57267918596516     -1.91014047155421     -1.05865388370803
  N   -1.64408775903739      0.58778458301582     -0.70741903965246
  H   -1.31070052890016      1.47185684358334     -1.06685351147869
  H   -1.83678932599428     -0.06676839188461     -1.45028468620821
  N   -0.99527510721476      0.81419882324202      1.57237766241995
  O   -1.23525495177689      2.01118744555064      1.47119742424066
  O   -0.87847683022705      0.17199508794151      2.61366165278196
