16
Coordinates from ORCA-job run
  C   0.66514739733474     -0.38889723117230      0.13526506097447
  C   -0.69202639084653      0.20336975421589      0.56120281631902
  Br  1.45302014914296     -1.15285935992773      1.77264880969932
  H   -0.51482625546841      0.90996337819555      1.37474859350227
  C   0.49421967665571     -1.49453145688852     -0.80335537650703
  N   0.38488093474138     -2.39879463529789     -1.54694995301069
  C   1.62138812448905      0.65918745664907     -0.42421863886888
  H   2.60445488638832      0.21664571633675     -0.58397833172954
  H   1.24682082087328      1.02846319921476     -1.38121850465726
  H   1.71297972911988      1.49305876388934      0.27366656147210
  N   -1.69854926800683     -0.74692730759669      0.83245146949359
  H   -2.17710406687574     -0.59097582503158      1.70411303969127
  H   -1.42554646151655     -1.71082537196581      0.72279047683948
  N   -1.13060338154458      1.10475587799776     -0.59929309430413
  O   -1.45637789916914      0.55040916506353     -1.64143274830845
  O   -1.08687799531753      2.31695787631786     -0.39544018060553
