16
Coordinates from ORCA-job run
  C   0.83541367284442     -0.19768854685269      0.23441291302020
  C   -0.65861203323362     -0.09955794849009      0.62399387033289
  Br  1.90198259752357      0.86372958034366      1.49488096999473
  H   -0.79152990262449     -0.48908858625612      1.63367899983067
  C   1.21407608099876     -1.59620525149869      0.42472524034511
  N   1.52407051422577     -2.72171017439136      0.56112290038401
  C   1.15988765863229      0.24435565642568     -1.18918065563648
  H   0.60607402295724     -0.37458971725676     -1.89846978819137
  H   2.22523262733374      0.10474970719867     -1.37327648486737
  H   0.90511536954124      1.29265671977464     -1.33381761647696
  N   -1.44708238039776     -0.82322705688843     -0.31086231221336
  H   -1.56413323954736     -0.30099657839725     -1.17021136393017
  H   -2.35494527444137     -1.05508428938823      0.06978079140289
  N   -1.07304615112492      1.36506397278262      0.72621796418414
  O   -1.20720884015559      1.96651402987726     -0.33920645155816
  O   -1.27629472253193      1.82107848301710      1.84621102337926
