16
Coordinates from ORCA-job run
  C   0.72130816906409     -0.30418280446813      0.09608692557498
  C   -0.57828235159034      0.35219872816002      0.64794464138424
  Br  1.84685555244841     -0.63376437014002      1.67855330045924
  H   -0.29000643541268      1.22851444712527      1.22878992677902
  C   0.42504917164854     -1.60508552024359     -0.49228337837477
  N   0.17403498256625     -2.65065953541170     -0.96828245506713
  C   1.48265780010010      0.58971746604227     -0.87483492473726
  H   1.65047590655772      1.57061557754760     -0.42700404005917
  H   0.90682029025843      0.71191811635039     -1.79506776541120
  H   2.44403611118426      0.14026972194423     -1.12400315428896
  N   -1.48250789674831     -0.46142440140528      1.38472509502166
  H   -1.70429679041927     -1.31776544074387      0.89128094836178
  H   -1.11918988318563     -0.66874966107869      2.30424904385013
  N   -1.32027610498021      0.89082990607855     -0.54893530663855
  O   -1.22381046475896      2.09354178953094     -0.77695918375732
  O   -1.93286805673240      0.06602598071202     -1.22125967309669
