16
Coordinates from ORCA-job run
  C   0.81128726990666     -0.27084724994603      0.10261306754654
  C   -0.46321481724270      0.36783441736515      0.69659974953659
  Br  2.14790000609193     -0.27593778435266      1.53990992757704
  H   -0.20215049329187      1.32802306568605      1.14247791511303
  C   0.55406338526778     -1.66183302471901     -0.25873608344583
  N   0.33432840730175     -2.77409824364887     -0.57024020341709
  C   1.37570095730017      0.50213604182530     -1.08569682242571
  H   1.51417353780255      1.55071618882313     -0.81798663016971
  H   0.69492957673872      0.43548905409817     -1.93706220727306
  H   2.33661145854087      0.07791584924672     -1.37634537934932
  N   -1.10497244026392     -0.47887053035720      1.62440285657407
  H   -1.49376846841322     -1.29976569678351      1.17505794350777
  H   -1.82617623763073      0.00474171990550      2.14194532490779
  N   -1.35012931968224      0.74423070262493     -0.49970378737228
  O   -1.32226687797355      1.91486085467162     -0.87137404605978
  O   -2.00531594445218     -0.16559536443928     -1.00286162525006
