16
Coordinates from ORCA-job run
  C   0.79090098294026     -0.17976011417037      0.24616288772441
  C   -0.70161405204302     -0.02560392007634      0.67131299523425
  Br  1.92988526348263      0.71842837491613      1.56828744925752
  H   -0.79762499432631     -0.35179256291916      1.70732653701435
  C   1.06823481338397     -1.61179317268546      0.33452271497568
  N   1.23313981739993     -2.77531329059706      0.37820052436536
  C   1.14264938774730      0.33873298918483     -1.14491524071516
  H   0.99651027346852      1.41541822836034     -1.20282356415066
  H   2.18544522864528      0.10589091702720     -1.36218285149579
  H   0.51842268538064     -0.14899054899194     -1.89718535067504
  N   -1.65944868418757     -0.70096408202130     -0.14370991226164
  H   -1.58894190023766     -0.44361110459337     -1.11837270888384
  H   -1.61189408565212     -1.70376412784216     -0.02693460697314
  N   -1.07326774926337      1.43180875841475      0.67133749969408
  O   -1.18524379740384      1.99194393025771      1.75551076388049
  O   -1.24815318933465      1.94036972573620     -0.43453713699088
