16
Coordinates from ORCA-job run
  C   0.83495479274848     -0.21885814831298      0.21552693217334
  C   -0.64900378873829     -0.09368805948065      0.63498309814161
  Br  1.94863874025810      0.80429614552412      1.46669118064279
  H   -0.77123358921723     -0.49600410496811      1.64098762722111
  C   1.18744990961999     -1.62733779245054      0.38150308074098
  N   1.47709472518664     -2.76043767070431      0.49773630714129
  C   1.14131776488252      0.23323108915245     -1.20904242801198
  H   0.56420601031988     -0.36885621273207     -1.91407614072257
  H   2.20050922132710      0.07757925051011     -1.41433726629736
  H   0.90184423012099      1.28719209552926     -1.33799802695110
  N   -1.47089517966420     -0.78498132419364     -0.29547245842770
  H   -2.37718056404394     -1.00058961711844      0.09829998394182
  H   -1.59081623027262     -0.24698189841407     -1.14480903994189
  N   -1.02839888720565      1.37771982145948      0.76724761168838
  O   -1.19748356803768      1.82135235640585      1.89785235820276
  O   -1.17000358728409      1.99836406979356     -0.28609281954149
