16
Coordinates from ORCA-job run
  C   0.80259891858547     -0.20397690464114      0.23549156682775
  C   -0.56721004902587      0.42095773279618      0.58017828519089
  Br  1.93949603340345      0.05245453248651      1.81482361256230
  H   -0.41034978462084      1.44296000305422      0.92646838412133
  C   0.66074405259664     -1.64239773858483      0.02922587600105
  N   0.53532871885452     -2.79623323240536     -0.15852675950768
  C   1.47995890499327      0.45083623382505     -0.96468296910136
  H   0.91811172970902      0.23914991730146     -1.87693206706664
  H   1.53590546007711      1.53075437991217     -0.82017968449133
  H   2.48809887425694      0.05294154798966     -1.07837914655287
  N   -1.28304023832825     -0.34446494134654      1.52458213956366
  H   -2.08802331337830      0.15223956568631      1.88120471547810
  H   -1.57050849531793     -1.23721937638661      1.14118537976477
  N   -1.30794005831457      0.59118266271839     -0.75371333502310
  O   -1.84786623256765     -0.41306806916251     -1.21217599782946
  O   -1.28730452092302      1.70688368675703     -1.26756999993741
