16
Coordinates from ORCA-job run
  C   0.71453914576229     -0.33301791430714      0.01363452736899
  C   -0.58362056227736      0.16563131270230      0.71316995737566
  Br  1.80855440334274     -1.11848090148491      1.45119886106755
  H   -0.29201814400823      0.83581755610805      1.52207192459966
  C   0.40934028609776     -1.40901561595789     -0.92191604440035
  N   0.15183767754416     -2.27336760560612     -1.67650711450868
  C   1.50520858780099      0.78444561022011     -0.65548857129108
  H   0.94576097135503      1.17394492163753     -1.50915202305797
  H   1.68164211864712      1.59448957808680      0.05419400961186
  H   2.46318275205266      0.40546736058743     -1.01185194979756
  N   -1.51238413967868     -0.80536327373855      1.17891546910161
  H   -1.17349057217370     -1.26270001688634      2.01344016599190
  H   -1.73161526717255     -1.48993229500953      0.46516936062408
  N   -1.29702998801223      1.03517747052028     -0.29120830724109
  O   -1.18616539523105      2.25129363102436     -0.16354386188783
  O   -1.90374187404894      0.44561018210364     -1.18112640355674
