16
Coordinates from ORCA-job run
  C   0.77040867503514     -0.03430004703452     -0.03183781436539
  C   -0.75545423733347     -0.02956590808323      0.19493511495219
  Br  1.40448924020720      1.81671247709690     -0.24492550442818
  H   -1.05689882036074     -1.06157679251238      0.39569642508579
  C   1.49036684270900     -0.60886639049168      1.10081074738219
  N   2.12675449146133     -1.12571104327088      1.94355951246921
  C   1.10666773220898     -0.81722619465842     -1.29931001265616
  H   0.61245281831109     -0.36220561977307     -2.15487961524696
  H   0.75304855233244     -1.84631264271038     -1.18674296853704
  H   2.18614519895576     -0.82979030702442     -1.45114947464277
  N   -1.45080598126770      0.49046607561103     -0.91938420647181
  H   -1.30384450254661      1.48967078004846     -0.99718761313413
  H   -2.44362111582125      0.31473580082582     -0.83890710169701
  N   -1.07020449227834      0.69786354917538      1.51288323696583
  O   -0.82943414596874      0.07746020085765      2.54413578562956
  O   -1.54107025564410      1.82764606194373      1.43130348869468
