16
Coordinates from ORCA-job run
  C   0.78757342644090     -0.21151462082617      0.23238560475947
  C   -0.69335677296437     -0.01382311338969      0.68008934460386
  Br  1.97381008711748      0.62339973824516      1.55433461488807
  H   -0.78713207205262     -0.35557587576604      1.71128757883698
  C   1.01618069428717     -1.65357473951974      0.29205512949534
  N   1.14124374322286     -2.82269507811571      0.31271369858974
  C   1.13887612695548      0.31938795745377     -1.15420388417091
  H   0.49053630002385     -0.13589377377293     -1.90651052205998
  H   2.17111133977611      0.05728217720921     -1.38809128828108
  H   1.02633558465043      1.40101015168791     -1.19208911912005
  N   -1.68420981674666     -0.64052231554890     -0.13418856573977
  H   -1.66873469408127     -1.64649639005028     -0.03842319847691
  H   -1.61943873021618     -0.36490580185646     -1.10425971383597
  N   -1.01429043021789      1.45524909134571      0.71122173681613
  O   -1.09148430813617      1.99924470908932      1.80656077743109
  O   -1.18702047805913      1.98942788381485     -0.38288219373601
