16
Coordinates from ORCA-job run
  C   0.73260869170065     -0.02455109825356     -0.01466123694402
  C   -0.79518319517479      0.04519617724751      0.28068610463477
  Br  1.43388179826136      1.77216736237891     -0.38182462449750
  H   -1.11083326954846     -0.97452683023737      0.51565224063730
  C   1.47388628976542     -0.56524450892525      1.11971147546114
  N   2.08949699940388     -1.05320804529793      1.99522686167350
  C   0.97477994576793     -0.89410882635967     -1.24656724030000
  H   0.48741667799075     -0.45581816301781     -2.11756844147859
  H   0.57844737246691     -1.89842018270497     -1.06858536850641
  H   2.04341611603871     -0.97004214642734     -1.44723660386970
  N   -1.63331117856688      0.59254825266293     -0.72321182395205
  H   -1.29927153330402      1.48057924320308     -1.07192410984544
  H   -1.81451279454962     -0.05811306762236     -1.47222404115989
  N   -1.01135722715202      0.81573063298537      1.56402345681980
  O   -1.25402353381250      2.01221810646125      1.46092845689550
  O   -0.89544115928729      0.17559309390720      2.60657489443158
