16
Coordinates from ORCA-job run
  C   0.70871123066401     -0.34584083443770     -0.01241992680366
  C   -0.49917582994012      0.28771407649094      0.73822070141100
  Br  1.94722209855661     -0.93241588959454      1.40219695896600
  H   -0.11368507480461      1.06615493464637      1.39690883711754
  C   0.29016392584826     -1.54248060607051     -0.73309717986337
  N   -0.05851181343223     -2.50375477347607     -1.31383012275924
  C   1.43131661441001      0.63517676243426     -0.92738993052945
  H   2.34103737109821      0.18155933875441     -1.32118710363857
  H   0.78517212501397      0.90330787759537     -1.76646940018279
  H   1.69176641021408      1.53964323386859     -0.37504748317046
  N   -1.37899129882524     -0.57631574242165      1.44626116984462
  H   -0.95395769641209     -0.90964262506920      2.29991212266295
  H   -1.68317372417205     -1.35533261400721      0.87474283682880
  N   -1.31190867923677      1.01219177893549     -0.30532764163417
  O   -1.17411865234777      2.22983550015240     -0.38153607939464
  O   -2.02086700663424      0.31019958219905     -1.02093775885457
