16
Coordinates from ORCA-job run
  C   0.77047800683734      0.03196408208875     -0.04364476100813
  C   -0.74664916174127     -0.08928091779414      0.20822694999557
  Br  1.23864760055099      1.92469327819630     -0.31188163176752
  H   -0.95448225367638     -1.13798232272129      0.43924690627929
  C   1.55305876219739     -0.45020314836691      1.09051782308004
  N   2.24046440347612     -0.89143617694292      1.93623836029572
  C   1.15523062452830     -0.75112017620516     -1.29725423198548
  H   0.60780257101175     -0.36514544356130     -2.15438738015093
  H   2.22889390995520     -0.67068958805577     -1.46843214416139
  H   0.89796184340763     -1.80454614434399     -1.15208403913094
  N   -1.50074683239221      0.33936038761227     -0.90677896048876
  H   -2.47337014223044      0.08112375346386     -0.80504454750357
  H   -1.44117789049361      1.34487085491219     -1.01336058753629
  N   -1.10448952097253      0.64215154986925      1.51276912909697
  O   -1.67019868200591      1.72583736205762      1.41087424045016
  O   -0.79942323845236      0.07040264979123      2.55499487453527
