16
Coordinates from ORCA-job run
  C   0.76894355159237     -0.02986944771808     -0.06653003672488
  C   -0.74411548417358     -0.01898846821507      0.23363473399819
  Br  1.36736110821400      1.80045687958600     -0.47284850595909
  H   -1.02164391968622     -1.03187746160626      0.53960622721959
  C   1.54954374753393     -0.49565784238397      1.07588479541294
  N   2.22937756661594     -0.93125352497835      1.93046769006734
  C   1.05404319390938     -0.91906580290758     -1.27511242817367
  H   2.12517975080519     -0.93689590334695     -1.47727470390849
  H   0.51432993382975     -0.54533050521702     -2.14253593334999
  H   0.71798677528848     -1.93680257831893     -1.05581913362046
  N   -1.49947809800185      0.39272996976498     -0.88708550690606
  H   -2.48495169697537      0.21711674656965     -0.74154434587535
  H   -1.36936892162799      1.38228731154354     -1.06065163999885
  N   -1.00564982957675      0.82016046254841      1.49567559250683
  O   -0.70840483902522      0.29635744700692      2.56511069251294
  O   -1.49315283872206      1.93463271767269      1.33702250279898
