16
Coordinates from ORCA-job run
  C   0.67586003878559     -0.38180745744257      0.13715110202362
  C   -0.73969218412694      0.10481660663674      0.56474778200580
  Br  1.34213617498486     -1.43894834001111      1.65991608247408
  H   -0.64031275318428      0.63243239562331      1.51354079196528
  C   0.58106835868256     -1.28984390016844     -0.99994170651311
  N   0.49396025734750     -2.01769108063096     -1.91944281030991
  C   1.64806708884217      0.75921020207584     -0.13587259617258
  H   2.65170583888858      0.36644315305834     -0.29961353636181
  H   1.66583600040647      1.44628426368549      0.71184515654038
  H   1.33758886069389      1.30436654438751     -1.03023300653602
  N   -1.78833111714354     -0.85345520836629      0.63302898914944
  H   -1.84251634299051     -1.41302720014509     -0.20962456968276
  H   -1.68648928603490     -1.44709070652913      1.44411123745687
  N   -1.14547157395359      1.15545303373132     -0.43796901582434
  O   -1.52638198387517      0.74143297003261     -1.52940184840861
  O   -1.02902737732269      2.33042472406244     -0.10124205180635
