16
Coordinates from ORCA-job run
  C   0.84000807292350     -0.20643341161360      0.20867185005754
  C   -0.64090640781091     -0.09531298484906      0.64308339122879
  Br  1.95441108587953      0.84465075174361      1.43569201489530
  H   -0.74738850698440     -0.48886456383459      1.65425597117617
  C   1.21214267585060     -1.60837233535527      0.38591916265925
  N   1.51752560749118     -2.73647191537333      0.51036769669973
  C   1.12412459133183      0.23374034193061     -1.22419622204753
  H   0.55096872410770     -0.38703008256600     -1.91627937738700
  H   0.86463137569618      1.28174843448945     -1.36301432240445
  H   2.18403571278528      0.09506576926219     -1.43824770431724
  N   -1.46360970223315     -0.80540410487504     -0.27233978908933
  H   -1.59927285261288     -0.27672775023784     -1.12530337834880
  H   -2.36315162614530     -1.02850343240493      0.13299449135945
  N   -1.03706071057151      1.37254681771748      0.76598517842900
  O   -1.19811855519038      1.98200975147550     -0.29109791341058
  O   -1.19833948451726      1.82435871449082      1.89450895049969
