16
Coordinates from ORCA-job run
  C   0.77019544583203     -0.01513785500211     -0.05072543008530
  C   -0.74880600588920     -0.03984680460115      0.21682790128753
  Br  1.34615982586990      1.83860210074596     -0.37539903860502
  H   -1.01559835408317     -1.06779320657504      0.47840452264137
  C   1.53463045574665     -0.51067758542128      1.09009784083817
  N   2.20456127690350     -0.96587750689525      1.94239386508164
  C   1.09577556758624     -0.85341179220302     -1.28523680369494
  H   0.56675325939436     -0.45686075438868     -2.14902714043964
  H   0.77449954667504     -1.88445037334523     -1.11059406650881
  H   2.17093509300611     -0.84469339416413     -1.46530928014886
  N   -1.48690539645908      0.40205814266747     -0.90378487309754
  H   -1.36956425733543      1.39915697030230     -1.03797422393830
  H   -2.47204399432592      0.20449516040834     -0.78764514058048
  N   -1.05063911133044      0.74693107512197      1.50309711707475
  O   -0.76742565501170      0.18797684831264      2.55840609112638
  O   -1.55352769657890      1.85852897503720      1.37546865904905
