16
Coordinates from ORCA-job run
  C   0.84017348697336     -0.19094436152124      0.22282025363447
  C   -0.64875614805704     -0.09600064888991      0.63315528184432
  Br  1.91853775155113      0.89244815453000      1.45381643171374
  H   -0.76535733647588     -0.48172371241771      1.64622547516843
  C   1.22797848060102     -1.58517469397015      0.42604235065730
  N   1.54118473859532     -2.70823953027206      0.57322404426237
  C   1.14161811591089      0.23346810705268     -1.21108409146168
  H   2.20602229658398      0.10281463318965     -1.40709605987705
  H   0.87336947004724      1.27662129193726     -1.36776023384955
  H   0.58538384209074     -0.40227459453358     -1.90339646121592
  N   -1.44765005280792     -0.82692191106257     -0.28724048314271
  H   -2.34951778269458     -1.05963795261094      0.10704199022699
  H   -1.57805715836937     -0.30888659855406     -1.14731487326986
  N   -1.06794941337586      1.36644536792282      0.73543058377964
  O   -1.20578776165082      1.96747782944196     -0.32965439897505
  O   -1.26919252892221      1.82252861975785      1.85579019050455
