16
Coordinates from ORCA-job run
  C   0.78136893264647     -0.19443855711289      0.26542348887899
  C   -0.72155165366305     -0.03303545881295      0.64948511044933
  Br  1.88956858978548      0.66047443519992      1.64125043097528
  H   -0.85192814320945     -0.38135116873715      1.67448687506611
  C   1.04056569543673     -1.63116063506190      0.32882907927567
  N   1.19134454409713     -2.79722521014435      0.35056699813784
  C   1.18005709472720      0.35163958099298     -1.10221326598834
  H   1.04708835890872      1.43094190858631     -1.13956719469951
  H   0.57355653443551     -0.11172365567555     -1.88381528573472
  H   2.22638887268296      0.11218567673156     -1.29380646673242
  N   -1.66176120366225     -0.67901300674505     -0.20883474265921
  H   -1.62722482629297     -1.68472115812562     -0.11441059639179
  H   -1.55965621955732     -0.39987116967144     -1.17468553806130
  N   -1.07759421096623      1.42809819650208      0.67171364623147
  O   -1.21602755099929      1.96495110525384      1.76458176515575
  O   -1.21419481436962      1.96324911682022     -0.42700430390314
