16
Coordinates from ORCA-job run
  C   0.65608541373719     -0.37052219401674      0.23232126955259
  C   -0.77233464382973      0.19034756769788      0.49410287299253
  Br  1.19445662444226     -1.22561459282223      1.92352142216074
  H   -0.72127945347086      0.84027840462440      1.36785874663478
  C   0.61545589549957     -1.41932547096235     -0.77984094537372
  N   0.57298292926800     -2.25856349544161     -1.60255225942502
  C   1.67153632247659      0.70933017164286     -0.12079184287445
  H   1.43536096173957      1.13396248523407     -1.09925766099421
  H   1.64814498055982      1.50354814842063      0.62729894715062
  H   2.67436044352143      0.28370138506366     -0.15991459269025
  N   -1.84592358220843     -0.73340792433711      0.61908744738025
  H   -1.81121960793667     -1.21441039925951      1.50690070062418
  H   -1.86071212793138     -1.39971745594262     -0.14371772554244
  N   -1.08673092372975      1.10154287167989     -0.66607440828435
  O   -0.96089657041489      2.30928478972982     -0.48398432385155
  O   -1.41028666172270      0.54956570868897     -1.71395764745968
