16
Coordinates from ORCA-job run
  C   0.79615734163078     -0.17663501148701      0.23114215577368
  C   -0.68698674397923     -0.01799804343457      0.68633448090018
  Br  1.96257791804613      0.73699075159799      1.51825400282898
  H   -0.76054849861886     -0.33138300819281      1.72812138960480
  C   1.07610364208502     -1.60752511286037      0.32977683344412
  N   1.24405983618987     -2.77018987926312      0.38469509114350
  C   1.11759622779279      0.32621768164820     -1.17297507282592
  H   2.15589733604286      0.09213701752750     -1.40960539538858
  H   0.47830789686498     -0.17097053879814     -1.90618382940558
  H   0.96875958540457      1.40200933751663     -1.24019050717237
  N   -1.66151799282397     -0.70394298516337     -0.09966981791248
  H   -1.61186000219811     -0.45884990809385     -1.07878060687796
  H   -1.61084480113209     -1.70518416384964      0.02874395714533
  N   -1.05980922168815      1.43903480982350      0.67628582353742
  O   -1.25958944607052      1.93377330165772     -0.43167885226925
  O   -1.14830307754605      2.01251575137134      1.75573034747411
