12

C	-0.0685	-0.027206	0.018835
C	-0.497131	-0.432244	-1.374433
Cl	1.713409	0.257485	0.081317
H	-0.017103	-1.347331	-1.715888
H	-0.577125	0.892805	0.301503
H	-1.591784	-0.50355	-1.352813
C	-0.383177	-1.096456	0.960396
N	-0.53346	-1.987479	1.709953
N	-0.164654	0.617838	-2.375523
O	0.032815	0.229997	-3.526796
O	-0.154188	1.787459	-2.0081
Cl	-3.222877	0.500394	0.049122
