12

C	-0.080863	-0.030495	0.008128
C	-0.528729	0.087556	-1.43212
Cl	1.703427	0.210093	0.143194
H	-1.623464	0.014902	-1.422549
H	-0.580055	0.729767	0.60632
H	-0.058573	-0.646786	-2.083353
C	-0.391283	-1.364068	0.512181
N	-0.536598	-2.462741	0.899677
N	-0.201697	1.424655	-1.998225
O	-0.018934	1.471735	-3.214461
O	-0.180806	2.386923	-1.238779
Cl	-3.231136	0.456468	0.265433
