12

C	-0.061856	-0.030843	0.016578
C	-0.49203	-0.470159	-1.365739
Cl	1.721457	0.246756	0.072173
H	-0.016197	-1.395961	-1.683299
H	-0.565851	0.898859	0.274692
H	-1.587044	-0.535584	-1.342696
C	-0.381844	-1.073274	0.985993
N	-0.536287	-1.943395	1.758893
N	-0.154451	0.552094	-2.393668
O	0.041822	0.133562	-3.534344
O	-0.139005	1.730823	-2.056817
Cl	-3.21418	0.510737	0.032056
