12

C	-0.07086	-0.03043	0.00899
C	-0.50327	0.153567	-1.429063
Cl	1.711313	0.206781	0.17514
H	-1.597867	0.078463	-1.435029
H	-0.578282	0.700352	0.636318
H	-0.024127	-0.548636	-2.108579
C	-0.383779	-1.386457	0.447249
N	-0.532488	-2.501915	0.781885
N	-0.173472	1.516278	-1.928838
O	-0.161535	2.442078	-1.125186
O	0.020507	1.62028	-3.139781
Cl	-3.225181	0.441147	0.254064
