12

C	-0.064208	-0.030045	0.013255
C	-0.490415	-0.040792	-1.438358
Cl	1.717476	0.226348	0.153987
H	-0.009253	-0.828324	-2.015158
H	-0.573562	0.778618	0.534503
H	-1.585052	-0.115644	-1.43862
C	-0.380629	-1.314685	0.628408
N	-0.532944	-2.374479	1.110045
N	-0.157307	1.242148	-2.115427
O	0.040504	1.182398	-3.328741
O	-0.146638	2.267494	-1.443367
Cl	-3.21933	0.473735	0.177596
