12

C	-0.06745	-0.028089	0.018818
C	-0.502084	-0.503217	-1.350341
Cl	1.714664	0.259063	0.059322
H	-0.023755	-1.43482	-1.646553
H	-0.57511	0.905025	0.256742
H	-1.596632	-0.573161	-1.320126
C	-0.378206	-1.048448	1.01445
N	-0.524664	-1.899923	1.809366
N	-0.17377	0.494348	-2.404891
O	0.018728	0.048438	-3.535817
O	-0.161562	1.681152	-2.097463
Cl	-3.221861	0.501774	0.035316
