16

C	0.0	0.0	0.0
C	-0.512105	-0.034859	-1.448439
Cl	1.760941	0.0	0.0
H	-0.248972	0.917287	-1.910999
H	-1.608827	-0.14898	-1.473124
C	-0.434893	1.271068	0.757389
H	-0.128806	1.172181	1.811115
H	-1.54809	1.306631	0.828322
H	-0.091739	2.207968	0.301717
N	-0.49513	-1.166693	0.785475
O	0.332647	-2.019222	1.359083
O	-1.804703	-1.493944	0.551233
N	0.177744	-1.071159	-2.195171
O	0.046521	-2.239865	-1.694189
O	0.287884	-0.863867	-3.469183
H	-1.727725	0.0	0.0
