16

C	0.0	0.0	0.0
C	-0.489988	-0.010349	-1.455676
Cl	1.760981	0.0	0.0
H	-0.245618	0.941568	-1.945115
H	-1.581031	-0.123891	-1.401875
C	-0.403839	1.263333	0.755314
H	-0.03208	2.173846	0.301666
H	-0.072976	1.189382	1.79161
H	-1.530722	1.359623	0.806907
N	-0.470577	-1.173369	0.770226
O	-1.82414	-1.275	0.671941
O	0.307911	-2.102323	1.271338
N	0.061262	-1.079876	-2.232747
O	0.355297	-0.850265	-3.479552
O	0.091139	-2.21413	-1.686389
H	-2.14934	0.0	0.0
