16

C	0.0	0.0	0.0
C	-0.613556	-0.136668	-1.377022
Cl	1.760963	0.0	0.0
H	-1.712589	-0.29696	-1.158592
H	-0.509928	0.794508	-1.929526
C	-0.413653	1.394995	0.480073
H	-1.492356	1.510985	0.349569
H	0.137789	2.150493	-0.089591
H	-0.178731	1.491073	1.541957
N	-0.593591	-0.985733	0.939416
O	-1.756727	-0.546198	1.337032
O	-0.248116	-2.185239	0.880055
N	-0.092136	-1.173659	-2.273702
O	0.292243	-0.793217	-3.38908
O	-0.104672	-2.347212	-1.905892
H	-2.909343	0.0	0.0
