16

C	-0.513609	0.011642	-1.423262
C	0.0	0.0	0.0
Br	0.333481	1.582694	-2.393562
H	1.091597	0.0	0.0
H	-0.106395	-0.833817	-1.968432
N	-1.930511	0.034728	-1.516268
H	-2.235134	-0.001	-2.480824
H	-2.302716	0.875786	-1.093737
N	-0.378018	-1.316646	0.571788
O	-0.280626	-2.313532	-0.148429
O	-0.707086	-1.371125	1.760467
C	-0.500603	1.123696	0.879541
H	-0.271051	2.073834	0.393654
H	-1.573245	1.063317	1.095864
H	0.035738	1.094914	1.827332
F	2.540551	0.0	0.0
