16

C	-0.493736	0.033558	-1.431715
C	0.0	0.0	0.0
Br	0.196889	1.630362	-2.345168
H	1.090935	0.0	0.0
H	-0.0206	-0.780101	-1.983412
N	-1.944952	0.07294	-1.533613
H	-2.27368	-0.806786	-1.145464
H	-2.206242	0.084896	-2.5138
N	-0.394899	-1.293871	0.59197
O	-0.704851	-2.232827	-0.160827
O	-0.354388	-1.41136	1.818193
C	-0.463125	1.135253	0.890278
H	0.044749	1.05637	1.850251
H	-0.166005	2.076768	0.428506
H	-1.546292	1.14115	1.042684
F	2.531309	0.0	0.0
