15
Coordinates from ORCA-job run
  C   1.00970506798590     -0.40366326485345     -0.22909030172668
  C   -0.18492432547128      0.57615066483391     -0.21182171293794
  Cl  2.48198209975743      0.56951279751385      0.12345978468641
  H   0.04388464974590      1.39237119633624     -0.90037515462250
  C   1.17850213017660     -0.99605970469664     -1.55715642045557
  N   1.32544666351147     -1.42423115394338     -2.64170984462168
  C   0.89510836980552     -1.44006172146351      0.79693347807451
  N   0.83159112907303     -2.23356947548550      1.66141733218846
  C   -0.54667998514493      1.08803611341086      1.17048543492596
  H   -0.86243131466522      0.26371631456780      1.81317984857090
  H   -1.36489716503657      1.80317314721644      1.07887747578930
  H   0.30598902376715      1.58991531555560      1.62721348976637
  N   -1.39955256397999     -0.10193978809831     -0.78453505298282
  O   -1.45617765908378     -1.32723648740750     -0.70885476152480
  O   -2.25854612044122      0.64388604651358     -1.23902359512992
