15
Coordinates from ORCA-job run
  C   0.73133085692629     -0.69141849936537     -0.48757173650327
  C   -0.34249703264087      0.41192950819824     -0.37986503550530
  Cl  0.49847143300249     -1.60747670134353     -2.00754954669714
  H   -0.21960886733380      1.07570022802205     -1.23744659267124
  C   0.73057849770497     -1.61329141338431      0.65102106820950
  N   0.80270261804467     -2.32584967900951      1.58298814925130
  C   2.03457129896394     -0.02179139685978     -0.54584640356760
  N   3.05616836338762      0.55815201269490     -0.58677038036092
  C   -0.29448416137951      1.15637454932567      0.94169113037597
  H   0.67953393119002      1.62933061362694      1.07752148820862
  H   -0.48435306310581      0.47562138440176      1.77311118290565
  H   -1.05680436866342      1.93759951622225      0.94141904642699
  N   -1.70625774054631     -0.19136518891975     -0.54373147489197
  O   -2.46400019133616      0.38043957750428     -1.32111702647871
  O   -1.96435157421411     -1.17495451111384      0.14214613129812
