15
Coordinates from ORCA-job run
  C   1.04206695651888     -0.33870625068138     -0.18602027134419
  C   -0.24245616289301      0.51259026537904     -0.29897070209308
  Cl  2.41566932244298      0.81472346654060     -0.03768977626383
  H   -0.10185971452813      1.22046266321068     -1.11861999010435
  C   1.25395984401610     -1.12506159379757     -1.40256125981475
  N   1.43055732735575     -1.71198916792950     -2.40534611311041
  C   1.04014569836004     -1.19589360125061      0.99930130325800
  N   1.06400714379306     -1.83673386662018      1.98407107153763
  C   -0.63822448035147      1.21133884517246      0.98906815982027
  H   -1.52235737926608      1.82190077618276      0.80227194307047
  H   0.16683956704074      1.85949449706942      1.33450860319621
  H   -0.86690456956891      0.47964515438709      1.76669890208333
  N   -1.39093915688448     -0.36346422858251     -0.71915985485392
  O   -1.32658750382405     -1.55886214050919     -0.44093230491902
  O   -2.32391689221140      0.21155518142886     -1.26661971046237
