16

C	0.0	0.0	0.0
C	-0.39675	-0.422916	-1.423148
F	1.393269	0.0	0.0
H	0.271716	0.142336	-2.084589
H	-0.315529	1.040323	0.136213
C	-0.55133	-0.866785	1.101355
H	-1.644906	-0.83027	1.081201
H	-0.219121	-1.900421	0.980844
H	-0.209104	-0.496256	2.07048
C	-1.846775	-0.096941	-1.78499
H	-2.589471	-0.527222	-1.112756
H	-2.063978	-0.421294	-2.80483
H	-1.986086	0.987029	-1.73224
C	-0.070139	-1.837552	-1.63904
N	0.196764	-2.96385	-1.839577
Cl	-4.755862	0.0	0.0
