16

C	0.0	0.0	0.0
C	-0.372277	-0.281425	-1.464835
F	1.393336	0.0	0.0
H	0.032664	0.56338	-2.033028
H	-0.33834	1.006962	0.257188
C	-0.536592	-1.016596	0.974916
H	-0.214941	-2.022422	0.691054
H	-1.630302	-0.974158	0.983242
H	-0.172247	-0.797984	1.981758
C	-1.874637	-0.423395	-1.756746
H	-2.208443	-1.458751	-1.720669
H	-2.066443	0.003307	-2.744845
H	-2.499517	0.115556	-1.042825
C	0.359492	-1.466072	-1.932035
N	0.908874	-2.422248	-2.329955
Cl	-4.679333	0.0	0.0
