14

C	-0.460429	-0.026923	-1.456656
C	0.0	0.0	0.0
Br	0.271826	1.5483	-2.395932
H	1.092677	0.0	0.0
H	-0.315665	-0.94304	0.465475
C	0.10277	-1.207117	-2.114494
N	0.446663	-2.192853	-2.654623
C	-1.97413	-0.014264	-1.650701
H	-2.237581	-0.040388	-2.709861
H	-2.400627	-0.891354	-1.153531
H	-2.389912	0.887302	-1.198004
C	-0.588315	1.105685	0.724752
N	-1.069675	2.000386	1.318438
F	2.520913	0.0	0.0
