14

C	-0.471592	-0.006404	-1.457657
C	0.0	0.0	0.0
Br	0.252653	1.617512	-2.315348
H	1.09281	0.0	0.0
H	-0.34724	0.925284	0.472638
C	0.097167	-1.151597	-2.170909
N	0.481729	-2.11512	-2.723438
C	-1.987005	0.016799	-1.633365
H	-2.392059	0.896902	-1.129083
H	-2.412674	-0.881713	-1.178349
H	-2.263078	0.052461	-2.688923
C	-0.553052	-1.139543	0.705848
N	-1.009661	-2.065317	1.271049
F	2.522911	0.0	0.0
