14

C	-0.235349	-0.062646	-1.504275
C	0.0	0.0	0.0
Br	-2.129844	-0.544499	-1.964133
H	1.095824	0.0	0.0
H	-0.325679	-0.944749	0.445704
C	-0.008079	1.24182	-2.125997
N	0.18579	2.292394	-2.61925
C	0.716566	-1.103968	-2.092808
H	0.698846	-1.097555	-3.182313
H	1.705972	-0.850741	-1.686973
H	0.424928	-2.093574	-1.730426
C	-0.626679	1.114702	0.672799
N	-1.126504	2.014121	1.242392
F	2.579321	0.0	0.0
