14

C	-0.199777	-0.075314	-1.510917
C	0.0	0.0	0.0
Br	-2.104859	-0.373232	-2.050827
H	1.095854	0.0	0.0
H	-0.40814	0.918052	0.426086
C	0.157182	1.219125	-2.09222
N	0.437672	2.263379	-2.553835
C	0.682955	-1.177806	-2.083872
H	1.681123	-0.974054	-1.669826
H	0.331239	-2.147125	-1.723313
H	0.678727	-1.171364	-3.174692
C	-0.514676	-1.166218	0.684813
N	-0.924019	-2.11861	1.239761
F	2.57349	0.0	0.0
