16

C	0.0	0.0	0.0
C	-0.560708	-0.011374	-1.428319
Cl	1.786721	0.0	0.0
H	-1.661906	-0.131613	-1.302318
C	-0.476626	1.250065	0.735695
H	-1.568974	1.256105	0.722059
H	-0.073189	2.138253	0.246604
H	-0.115091	1.213628	1.764271
C	-0.402631	-1.199492	0.74518
N	-0.63238	-2.124773	1.431401
N	-0.034692	-1.188315	-2.208512
O	0.710415	-0.970288	-3.160156
O	-0.396603	-2.290055	-1.812806
C	-0.242527	1.219588	-2.137023
N	-0.020887	2.225916	-2.700751
Cl	-3.525423	0.0	0.0
