16

C	0.0	0.0	0.0
C	-0.435569	-0.405481	-1.4521
Cl	1.793256	0.0	0.0
H	0.468313	-0.343772	-2.069012
C	-0.380961	1.399903	0.495856
H	-1.463158	1.501003	0.484728
H	0.092413	2.156906	-0.124246
H	-0.005276	1.484484	1.518247
C	-0.412689	-1.007886	0.979985
N	-0.517926	-1.808711	1.835166
N	-1.352355	0.523057	-2.240828
O	-2.089459	-0.00764	-3.053914
O	-1.121452	1.719568	-2.140704
C	-0.91019	-1.780049	-1.545839
N	-1.128995	-2.927161	-1.676672
Cl	-3.207781	0.0	0.0
