16

C	0.0	0.0	0.0
C	-0.597941	-0.04009	-1.408047
Cl	1.786482	0.0	0.0
H	-1.700103	-0.144882	-1.232218
C	-0.457234	1.276462	0.711401
H	-0.073173	1.264305	1.732503
H	-0.058291	2.148725	0.191539
H	-1.548913	1.293049	0.721849
C	-0.401573	-1.162571	0.802616
N	-0.584387	-2.038389	1.564476
N	-0.128281	-1.237201	-2.188356
O	0.402289	-1.047382	-3.279999
O	-0.334563	-2.327496	-1.667291
C	-0.309212	1.174783	-2.154247
N	-0.110652	2.179211	-2.730136
Cl	-3.518965	0.0	0.0
