16

C	0.0	0.0	0.0
C	-0.598642	0.060259	-1.407424
Cl	1.786256	0.0	0.0
H	-1.702762	-0.04709	-1.236049
C	-0.455985	1.226483	0.797405
H	-0.050092	2.130635	0.340416
H	-1.547517	1.250288	0.806798
H	-0.075659	1.141986	1.816452
C	-0.401859	-1.214325	0.721935
N	-0.589588	-2.136169	1.426378
N	-0.141631	-1.084357	-2.268872
O	0.372968	-0.824365	-3.35313
O	-0.344707	-2.206272	-1.817755
C	-0.298648	1.320888	-2.068555
N	-0.092008	2.362133	-2.572271
Cl	-3.518899	0.0	0.0
