16

C	0.0	0.0	0.0
C	-0.351469	0.146496	-1.52087
Cl	1.786043	0.0	0.0
H	-0.042749	-0.782651	-2.005754
C	-0.491322	1.105094	0.918601
H	-0.134181	0.902298	1.930196
H	-0.101189	2.062815	0.578519
H	-1.583166	1.094631	0.895566
C	-0.432339	-1.326064	0.439972
N	-0.686682	-2.419784	0.786089
N	0.550552	1.197698	-2.162248
O	1.270793	0.81294	-3.076843
O	0.464628	2.344575	-1.742332
C	-1.681796	0.511194	-2.026648
N	-2.376381	0.882013	-2.909327
Cl	-3.460521	0.0	0.0
