16

C	0.0	0.0	0.0
C	-0.612673	0.140025	-1.39175
Cl	1.786753	0.0	0.0
H	-1.720993	0.049097	-1.215465
C	-0.450885	1.182899	0.864476
H	-0.052755	1.051766	1.871433
H	-0.062477	2.112975	0.446488
H	-1.542264	1.194656	0.892061
C	-0.415344	-1.243514	0.660591
N	-0.647152	-2.193339	1.312274
N	-0.225205	-0.955257	-2.350444
O	0.088125	-2.03739	-1.871354
O	-0.312092	-0.694078	-3.545634
C	-0.299578	1.424826	-1.997987
N	-0.053001	2.479413	-2.453168
Cl	-3.522535	0.0	0.0
