16

C	0.0	0.0	0.0
C	-0.622538	-0.047402	-1.390988
Cl	1.78703	0.0	0.0
H	-1.730987	-0.101654	-1.190289
C	-0.441138	1.294044	0.696153
H	-0.040094	1.299537	1.710281
H	-1.532153	1.318772	0.725141
H	-0.047449	2.155265	0.154321
C	-0.411746	-1.139456	0.830651
N	-0.619382	-1.994165	1.609629
N	-0.256925	-1.267824	-2.19205
O	0.063352	-2.274713	-1.571455
O	-0.365269	-1.175785	-3.41134
C	-0.306885	1.137654	-2.173393
N	-0.069328	2.118001	-2.775202
Cl	-3.510561	0.0	0.0
