16

C	0.0	0.0	0.0
C	-0.44035	-0.23087	-1.488551
Cl	1.797436	0.0	0.0
H	0.463676	-0.111791	-2.096649
C	-0.382809	1.326814	0.666169
H	-1.464944	1.426615	0.66479
H	-0.008578	1.285171	1.691414
H	0.089638	2.154425	0.143947
C	-0.40361	-1.122599	0.850532
N	-0.54441	-2.018976	1.598262
N	-1.346667	0.792847	-2.16103
O	-1.116196	1.967398	-1.910764
O	-2.076299	0.368599	-3.041321
C	-0.935601	-1.578318	-1.736505
N	-1.171419	-2.705382	-1.969201
Cl	-3.215226	0.0	0.0
