15

C	-0.247129	-0.077917	-1.504146
C	0.0	0.0	0.0
Br	-0.146111	1.887514	-2.309641
H	1.095276	0.0	0.0
H	-0.310004	-0.980544	0.38306
N	0.715518	-0.912438	-2.054941
H	0.727804	-0.93314	-3.064438
H	1.641119	-0.720093	-1.639716
C	-1.609722	-0.437039	-1.902546
N	-2.6992	-0.778987	-2.189627
C	-0.648231	1.119274	0.783845
H	-0.209085	2.082093	0.524223
H	-1.729519	1.173959	0.617078
H	-0.477415	0.949171	1.850792
H	2.926854	0.0	0.0
