15

C	-0.570292	0.015934	-1.408243
C	0.0	0.0	0.0
Br	0.090769	-1.584627	-2.36411
H	1.093252	0.0	0.0
H	-0.33169	-0.935046	0.470031
N	-2.028468	-0.024155	-1.526524
H	-2.391625	0.83574	-1.125154
H	-2.354843	-0.793294	-0.948737
C	-0.115939	1.188886	-2.164825
N	0.159383	2.171445	-2.747045
C	-0.453096	1.207518	0.816373
H	0.056008	1.173162	1.783119
H	-1.533085	1.244473	0.999805
H	-0.145131	2.138713	0.332603
H	2.926581	0.0	0.0
