15

C	-0.194168	0.116634	-1.500814
C	0.0	0.0	0.0
Br	-2.083069	0.683281	-2.005408
H	1.097528	0.0	0.0
H	-0.396632	-0.942599	0.38589
N	0.722342	1.03651	-2.139345
H	0.52651	1.964943	-1.77696
H	1.649555	0.776626	-1.753548
C	-0.045663	-1.202839	-2.127699
N	0.073403	-2.267559	-2.608785
C	-0.469947	1.19027	0.816016
H	-0.056948	1.111756	1.825229
H	-1.559115	1.254125	0.880293
H	-0.095097	2.126284	0.394474
H	2.852388	0.0	0.0
