15

C	-0.283868	-0.103095	-1.504418
C	0.0	0.0	0.0
Br	-0.262042	1.761994	-2.257141
H	1.095152	0.0	0.0
H	-0.4107	0.912562	0.43418
N	0.705155	-0.872221	-2.209947
H	0.481631	-1.858384	-2.138581
H	1.609783	-0.702366	-1.747843
C	-1.631875	-0.597706	-1.808423
N	-2.711093	-1.03239	-1.977505
C	-0.460805	-1.242438	0.752711
H	-0.046003	-2.14629	0.297697
H	-0.071397	-1.19864	1.773362
H	-1.549933	-1.343494	0.795504
H	2.941582	0.0	0.0
