15

C	-0.568961	-0.000105	-1.411244
C	0.0	0.0	0.0
Br	0.123859	-1.548643	-2.425743
H	1.093478	0.0	0.0
H	-0.30844	0.959817	0.441639
N	-2.02852	-0.071905	-1.533973
H	-2.408491	0.678414	-0.963426
H	-2.328059	-0.946569	-1.117133
C	-0.140281	1.202719	-2.138188
N	0.122824	2.206307	-2.690056
C	-0.486374	-1.151665	0.868556
H	0.040542	-1.100514	1.82457
H	-1.563088	-1.132032	1.072113
H	-0.230636	-2.112157	0.416142
H	2.924972	0.0	0.0
