15

C	-0.215366	-0.105035	-1.509882
C	0.0	0.0	0.0
Br	-0.256758	1.907695	-2.250169
H	1.095406	0.0	0.0
H	-0.410358	0.925745	0.399201
N	0.81284	-0.855233	-2.048713
H	1.723995	-0.63115	-1.605357
H	0.838451	-0.906088	-3.056439
C	-1.536605	-0.552349	-1.953631
N	-2.582126	-0.976157	-2.288128
C	-0.509876	-1.232173	0.73558
H	-0.083531	-2.136532	0.296795
H	-0.182701	-1.184959	1.778015
H	-1.601556	-1.314906	0.718235
H	2.93356	0.0	0.0
