15

C	-0.559377	0.034491	-1.407733
C	0.0	0.0	0.0
Br	0.256261	-1.50091	-2.488072
H	1.091756	0.0	0.0
H	-0.314295	0.945852	0.460608
N	-1.985676	-0.037771	-1.444525
H	-2.316778	-0.087591	-2.401994
H	-2.283908	-0.874246	-0.957639
C	-0.133051	1.234648	-2.134779
N	0.138667	2.216459	-2.721809
C	-0.491544	-1.176297	0.832894
H	-1.541766	-1.098449	1.132029
H	-0.339168	-2.120236	0.305387
H	0.115245	-1.21989	1.739486
H	2.905952	0.0	0.0
