18

C	0.0	0.0	0.0
C	-0.426015	-0.039187	-1.474961
F	1.404508	0.0	0.0
H	-1.51192	-0.159473	-1.4425
N	-0.541553	1.196043	0.580459
H	-0.373222	1.148524	1.582413
H	-1.566771	0.994068	0.452886
C	-0.417904	-1.261335	0.738406
H	-0.048867	-1.207463	1.770608
H	-0.016896	-2.153235	0.255258
H	-1.510976	-1.252713	0.717858
N	0.201309	-1.182357	-2.128962
H	-0.003777	-1.084952	-3.117418
H	1.206297	-1.073932	-2.028216
N	-0.107971	1.210353	-2.184316
H	-0.679525	1.932449	-1.757329
H	0.844501	1.453275	-1.919761
F	-2.904157	0.0	0.0
