18

C	0.0	0.0	0.0
C	-0.550538	0.272309	-1.435512
F	1.425935	0.0	0.0
H	0.3428	0.391306	-2.065072
N	-0.367223	1.049899	0.910363
H	0.330103	1.075663	1.644875
H	-0.383366	1.926725	0.404148
C	-0.444914	-1.315378	0.597874
H	-1.536663	-1.260679	0.622435
H	-0.049118	-1.387551	1.615927
H	-0.085189	-2.175379	0.025933
N	-1.309722	1.518908	-1.411523
H	-2.137106	1.246356	-0.84049
H	-1.644754	1.646122	-2.360735
N	-1.400546	-0.774576	-2.002141
H	-0.950833	-1.679657	-1.910876
H	-2.226522	-0.752931	-1.375742
F	-3.095256	0.0	0.0
