18

C	0.0	0.0	0.0
C	-0.293992	0.179012	-1.538228
F	1.387588	0.0	0.0
H	0.515877	-0.407308	-1.99686
N	-0.563638	1.078834	0.760454
H	-1.582838	0.923681	0.617271
H	-0.373512	0.909683	1.744647
C	-0.452177	-1.366021	0.481392
H	-0.069742	-2.159614	-0.169002
H	-1.54434	-1.344011	0.479055
H	-0.073035	-1.538897	1.49536
N	-0.113453	1.591394	-1.890616
H	-0.864308	1.798185	-2.536924
H	-0.26053	2.138622	-1.047423
N	-1.543694	-0.31996	-2.082518
H	-2.294953	-0.125718	-1.387299
H	-1.480454	-1.330495	-2.142089
F	-3.060159	0.0	0.0
