18

C	0.0	0.0	0.0
C	-0.458678	-0.168948	-1.454167
F	1.394302	0.0	0.0
H	-1.53185	-0.365392	-1.362284
N	-0.539404	1.241079	0.48972
H	-1.565118	1.039211	0.386299
H	-0.351351	1.284922	1.487703
C	-0.421621	-1.197057	0.837796
H	-0.033627	-2.12051	0.406836
H	-0.025712	-1.07378	1.8536
H	-1.51417	-1.182614	0.841814
N	0.217606	-1.322251	-2.044027
H	1.171474	-1.019686	-2.217068
H	-0.19873	-1.475834	-2.95627
N	-0.184841	1.070204	-2.209117
H	-0.125939	1.814566	-1.518589
H	-1.006799	1.275021	-2.767408
F	-2.923492	0.0	0.0
