18

C	0.0	0.0	0.0
C	-0.301768	0.081376	-1.54067
F	1.410212	0.0	0.0
H	-0.207253	1.15808	-1.765395
N	-0.54853	1.156179	0.644306
H	-0.443856	1.026205	1.648348
H	-1.563645	1.032174	0.46527
C	-0.453416	-1.315086	0.595779
H	-0.075225	-2.151895	0.003748
H	-1.546312	-1.283015	0.593073
H	-0.079519	-1.403371	1.622652
N	-1.580907	-0.374436	-2.034899
H	-1.542474	-1.390184	-1.978237
H	-2.324106	-0.105416	-1.352991
N	0.693615	-0.728901	-2.256397
H	1.616901	-0.345737	-2.112132
H	0.450763	-0.639572	-3.237552
F	-3.118927	0.0	0.0
