18

C	0.0	0.0	0.0
C	-0.397213	0.084165	-1.480279
F	1.433774	0.0	0.0
H	-1.488992	0.155923	-1.439304
N	-0.50901	1.105353	0.753451
H	-1.530026	0.89403	0.711498
H	-0.382996	1.926473	0.16369
C	-0.450702	-1.285837	0.652117
H	0.009635	-2.156869	0.180232
H	-1.542612	-1.287661	0.558818
H	-0.157282	-1.253779	1.703833
N	-0.02286	-1.084302	-2.293174
H	0.898801	-1.391951	-1.994033
H	-0.667642	-1.836755	-2.075951
N	0.175705	1.31023	-2.032232
H	1.185901	1.216055	-1.988666
H	-0.07664	1.33204	-3.013864
F	-2.908209	0.0	0.0
