18

C	0.0	0.0	0.0
C	-0.206258	-0.05993	-1.550232
F	1.416533	0.0	0.0
H	0.541233	-0.794225	-1.901062
N	-0.554153	1.148244	0.630562
H	-0.448285	1.916318	-0.028027
H	-1.565913	0.929809	0.635796
C	-0.476385	-1.257283	0.684165
H	-1.568235	-1.245053	0.642084
H	-0.131017	-1.243932	1.721779
H	-0.080438	-2.139977	0.176702
N	0.165467	1.286985	-2.062191
H	1.167073	1.395426	-1.925683
H	0.004614	1.289693	-3.064388
N	-1.511902	-0.484128	-1.957158
H	-2.248336	-0.219564	-1.259818
H	-1.73467	-0.116326	-2.8742
F	-3.114208	0.0	0.0
