18

C	0.0	0.0	0.0
C	-0.460928	-0.227464	-1.453406
F	1.392477	0.0	0.0
H	-1.522507	0.030753	-1.450336
N	-0.519718	1.293312	0.368833
H	-1.545585	1.096442	0.319924
H	-0.295533	1.451224	1.348046
C	-0.432504	-1.109886	0.940797
H	-1.525661	-1.124407	0.886475
H	0.019848	-2.061308	0.651125
H	-0.105235	-0.863739	1.958175
N	-0.227605	-1.617497	-1.864782
H	-0.960046	-2.17734	-1.439116
H	-0.404202	-1.626842	-2.8646
N	0.260843	0.619774	-2.397692
H	1.248507	0.465458	-2.211692
H	0.071812	1.574385	-2.108031
F	-2.909636	0.0	0.0
