18
Coordinates from ORCA-job run
  C   0.84198895910795      0.14064313921731      0.27855972490615
  C   -0.55922876866342     -0.11356717473327     -0.28433102647599
  H   0.74320165749825      0.34892007196090      1.35157213861053
  H   -0.43956303654104     -0.32053079427322     -1.36123648156691
  N   1.39761186720029      1.35080329626154     -0.32796836910582
  H   2.30793904285206      1.54911985293964      0.07225463526368
  H   1.53275632496804      1.19344246314301     -1.32218589198839
  N   1.64016599906765     -1.08058834873428      0.16630379165956
  H   1.78113213275275     -1.29749778221373     -0.81582475027561
  H   2.55550162427611     -0.93195460373709      0.57651633856459
  C   -1.44871862803903      1.11701927680156     -0.12690330918985
  H   -2.44506054934454      0.92484486108696     -0.53477033747079
  H   -1.56390766618830      1.36059650954654      0.93452353638866
  H   -1.02323990707107      1.98879697971104     -0.62128695921978
  C   -1.20440388048730     -1.33205709999126      0.37091485037718
  H   -1.31207069595965     -1.16332020670182      1.44755740659700
  H   -2.20263137631460     -1.50543076887968     -0.04074857845510
  H   -0.60247309911414     -2.22923967140414      0.23605328138087
