18
Coordinates from ORCA-job run
  C   0.88396168547760      0.38730322525258     -0.22859675236486
  C   -0.62699009287853      0.20129815435665     -0.40396240517862
  H   1.10180760215728      1.45230937907405     -0.41440215884047
  H   -0.84742808944132      0.59902249121204     -1.40153439496140
  N   1.59896660474877     -0.35715868575582     -1.25045755833722
  H   1.63541203426428     -1.33092853840340     -0.96830348605119
  H   2.55455827670625     -0.02632248339385     -1.31716404951222
  N   1.29252222361497     -0.03827814784130      1.11641899515424
  H   0.85885742890895      0.54960221085022      1.82008482194448
  H   2.29519470255996      0.08582780524827      1.20671344557133
  C   -1.41246545252010      1.01162531455785      0.62599467395477
  H   -2.47413647393150      1.03661422024505      0.36727367306720
  H   -1.06072127198192      2.04742276821976      0.67867776675508
  H   -1.33566924549292      0.56799270363488      1.62307025807963
  C   -1.03437374482065     -1.26878318183601     -0.36918590428242
  H   -2.12052854518440     -1.36607248504914     -0.45118274865826
  H   -0.59303686033460     -1.81971685582522     -1.20237615923334
  H   -0.71693078185211     -1.73275789454662      0.56693198289329
