15
Coordinates from ORCA-job run
  C   0.47685544356530      0.21941735358710     -0.40635706024933
  C   -0.77926123252223     -0.10026508160473      0.42564177765470
  Br  -0.03302932550040      0.65431796697163     -2.23765284516721
  H   -0.39096848482247     -0.28866959380219      1.44696877076738
  N   1.09150472671032      1.39871682609902      0.14845391655980
  H   1.88437811972203      1.69299411984998     -0.40868338219548
  H   1.39898888723915      1.22044386298792      1.09939026148324
  N   1.26234064658212     -1.00951786108801     -0.47151502948006
  H   1.92026073095986     -0.97186525390214     -1.24054445141480
  H   1.78995180029457     -1.10240018445355      0.39198030688028
  N   -1.49634108122854     -1.22423835612523     -0.14143356414582
  H   -2.21476514341612     -1.54028302151482      0.49757102747802
  H   -0.82705353249863     -1.96831837462520     -0.30164508597008
  C   -1.66457678924912      1.06490315169710      0.52848288110595
  N   -2.41628476583584      1.95476444592309      0.67034247669343
