15
Coordinates from ORCA-job run
  C   0.67821482330623      0.03806240490442     -0.13450750169685
  C   -0.71909710861999     -0.41241114035012      0.30368167081052
  Br  0.75106982138055     -1.22114425147215     -2.12733777761955
  H   -0.71822550987746     -1.50900939651610      0.33446180455196
  N   0.72059594895902      1.35166200489659     -0.45861775887342
  H   -0.13305760836922      1.65919143388669     -0.90898394029798
  H   1.57069286215506      1.69833274973596     -0.87610790218272
  N   1.70515742227441     -0.46306357827749      0.62819029773854
  H   2.62054137138790     -0.11569257191918      0.37700910192747
  H   1.70514450867277     -1.47237968158367      0.66707995464380
  N   -1.70908619471469      0.16081473504215     -0.59719922240752
  H   -1.70535445810969     -0.37632432092610     -1.45774730288070
  H   -2.63051798706018      0.12917941915852     -0.17996554888280
  C   -0.95745428590795      0.08647476297686      1.66686767950170
  N   -1.17662360547676      0.44730743044360      2.76217644566754
