15
Coordinates from ORCA-job run
  C   0.63302712147258      0.01229266295585     -0.07016904629047
  C   -0.69284320958894     -0.50939840943910      0.53994121042322
  Br  2.04284394916119     -0.23700046622193      1.47928353588480
  H   -0.50933566907353     -1.52124793060440      0.91510992115153
  N   0.99969947352460     -0.79892488081023     -1.16854291996071
  H   1.76369182865654     -0.39739874754888     -1.69834285436947
  H   1.28072117896521     -1.71909483004719     -0.85402908083135
  N   0.51890008171765      1.36279392478855     -0.43676986660163
  H   0.30772835920926      1.94747673514051      0.36264769708909
  H   1.35296990941419      1.71513074362680     -0.88923691115653
  N   -1.78638405383388     -0.54967276098289     -0.41366879957505
  H   -1.94597017943944      0.38884804924420     -0.76373733146209
  H   -1.48685278620649     -1.10912507160413     -1.20441485897728
  C   -1.07732554673119      0.33717528722755      1.67500628150198
  N   -1.40087045724776      1.07714569427527      2.52692302317395
