15
Coordinates from ORCA-job run
  C   0.67328127135681      0.02039904476432     -0.19864446867591
  C   -0.73593994770115     -0.41426476356077      0.22188739862401
  Br  0.61610936180574      2.18487006675492      0.12871990339307
  H   -0.73707164888529     -1.49644717508680      0.04640567541602
  N   1.65913113827856     -0.51974080833142      0.62802304629747
  H   2.59266269055904     -0.38094167472315      0.26477649757346
  H   1.60308153981302     -0.16567374862252      1.57412276732407
  N   0.85948622190586     -0.23721095296445     -1.54891752124686
  H   0.04498525820943      0.05919005334236     -2.07329909950022
  H   1.70585736779495      0.16823098108171     -1.92475063757786
  N   -1.73141107526295      0.18389787529587     -0.64604027916128
  H   -2.61445580848440     -0.30203436006638     -0.55424041840703
  H   -1.86325420363958      1.15800741784299     -0.39810557989484
  C   -0.93839466522709     -0.20237096439157      1.66539382128450
  N   -1.13406750052296     -0.05791099133511      2.81466889455141
