15
Coordinates from ORCA-job run
  C   0.59376108136534     -0.14884377005962     -0.43674998607677
  C   -0.75300139934184     -0.65075096438880      0.12355685928310
  Br  0.84144045698065     -0.90694039154176     -2.21747490958575
  H   -0.69819643258734     -1.74094624975285      0.17234426154291
  N   0.49417893436328      1.29391446478009     -0.60210606477501
  H   0.60675865127405      1.73846589918775      0.30501783932141
  H   1.22144443146799      1.63610594867419     -1.21816759823861
  N   1.65287121258755     -0.68579461441362      0.38905804228803
  H   1.62911635161879     -0.25051668711960      1.30666504353614
  H   2.55577375599186     -0.50290603231927     -0.03238620956361
  N   -1.85079677026345     -0.24564346287462     -0.72351526272834
  H   -2.73732555619066     -0.50612774917576     -0.31100613786195
  H   -1.81390418019903      0.75886728067002     -0.85085055289425
  C   -0.83950864451664     -0.12907327503536      1.50966906689874
  N   -0.90461189255058      0.34218960336921      2.58494560885395
