15
Coordinates from ORCA-job run
  C   0.60633593939469     -0.06362038288251     -0.37060235759397
  C   -0.70916104175724     -0.62216712053454      0.21207041258626
  Br  0.85250499273697     -0.90980960170146     -2.17128869043330
  H   -0.60428937763509     -1.70566353511065      0.33754179399798
  N   0.44583594969494      1.35293923224513     -0.60152193441003
  H   1.03114735776081      1.67750741252282     -1.35903259454195
  H   0.68703927469592      1.84652388622577      0.25252649916348
  N   1.67599184818808     -0.35785188378234      0.51603902843532
  H   1.77491760209497     -1.35271407098344      0.68171873016208
  H   2.55231648163575      0.00443422985939      0.16031693646305
  N   -1.81369128111849     -0.35491511746577     -0.68160802096002
  H   -1.83748356041650      0.64266763242655     -0.86251213501052
  H   -2.68701145242102     -0.63631504195913     -0.25415289907682
  C   -0.87901719803307     -0.01438416363584      1.55177744197101
  N   -1.09543319762647      0.49239127333200      2.58972227675825
