15
Coordinates from ORCA-job run
  C   0.63426237108836     -0.00062422709256     -0.06052516576987
  C   -0.71439402398451     -0.53070267370302      0.48982096224531
  Br  2.01294594522811     -0.41034758030482      1.48198186317568
  H   -0.56413544747459     -1.57389632744679      0.78536896396366
  N   0.99457039372993     -0.73317939394170     -1.21492580277728
  H   1.77394776579051     -0.31083081887394     -1.70437193705345
  H   1.24887325767076     -1.68193404367373     -0.97076749873260
  N   0.56182253490565      1.37715666366119     -0.32156591514856
  H   1.41159031219631      1.74025911281890     -0.73476356089215
  H   0.35547500159971      1.90355138236443      0.51875616774827
  N   -1.79435621084906     -0.46465733050956     -0.47790805772507
  H   -1.49776804379539     -0.96811149452069     -1.30647188224399
  H   -1.92271307554381      0.50271151042192     -0.75452031354121
  C   -1.09242503783335      0.23453782223407      1.68326469553406
  N   -1.40869574272863      0.91406739856629      2.58662748121722
