15
Coordinates from ORCA-job run
  C   0.72177771767234     -0.08345166317094     -0.33115171129091
  C   -0.68336489606539     -0.46745826125779      0.20955732145544
  Br  0.81315059037578     -1.12317598655806     -2.09707059535380
  H   -0.72031852925547     -1.55962902016168      0.31247670865498
  N   0.88887190723720      1.28546706020037     -0.67084692906538
  H   0.10750735646724      1.58489472834672     -1.24257039392397
  H   0.92771942193524      1.83186632711977      0.18390635754722
  N   1.72316101026588     -0.46077696436602      0.57695239554338
  H   1.71048287955056     -1.44873360365807      0.79251101489020
  H   2.63593570984462     -0.19127285561347      0.23210031073736
  N   -1.71443542960857      0.04867519624749     -0.68452575051266
  H   -2.45157060494267      0.50959635561426     -0.16916570359636
  H   -2.11431126951510     -0.69555455089216     -1.23809999019873
  C   -0.83834784592634      0.12747670125622      1.54279908023734
  N   -1.00525801803531      0.64207653689336      2.58512788487591
