15
Coordinates from ORCA-job run
  C   0.68313730079741     -0.27135609183209     -0.41341605691964
  C   -0.81353075468266     -0.29997302826138     -0.02164423013888
  Br  1.14192839972843     -2.02837491837577     -1.13924806894076
  H   -1.38563845154109     -0.43822345493924     -0.94393037528541
  N   0.97555835872227      0.70045369781304     -1.44449681326002
  H   0.56945881933639      0.42434692401071     -2.33178012078328
  H   0.55100284944988      1.57813936515234     -1.15441335740898
  N   1.44551088104843     -0.05484911847524      0.78804615647183
  H   1.27804716415300      0.90294986824330      1.08529010819702
  H   2.43120990537715     -0.12242970733913      0.55761448068909
  N   -1.14063107533795      1.01238594538095      0.54322873577384
  H   -1.01707372126359      0.98961347169476      1.54909515409066
  H   -2.11177917458317      1.23699099399744      0.36708090407146
  C   -1.13894661337148     -1.40343535738217      0.89363260988417
  N   -1.46725388783302     -2.22623858968751      1.66494087355890
