15
Coordinates from ORCA-job run
  C   0.65602580312314     -0.08075109755334     -0.28027999091551
  C   -0.75130835290088     -0.49115550127987      0.19556722767015
  Br  0.85279196112153     -1.02821771247265     -2.09749412470668
  H   -0.77243676041753     -1.58733848650238      0.18607863647294
  N   0.72906100678332      1.31031038096817     -0.36832734337881
  H   -0.09113370840538      1.69941470603480     -0.81926754457278
  H   1.59092063396231      1.64778230011657     -0.77367036087504
  N   1.65227722684334     -0.69822886631056      0.55504225035616
  H   1.85011239227127     -0.06728505816633      1.32537727635087
  H   2.50543510112601     -0.88352864951661      0.04556756458415
  N   -1.76997228345637      0.15744485706768     -0.62456967772173
  H   -1.86615093059495     -0.35642403949871     -1.49269862322618
  H   -2.66403210139154      0.15429599372485     -0.14993984049222
  C   -0.89584658175374     -0.05516291545146      1.59027738408357
  N   -1.02574340631053      0.27784408883985      2.70833716637112
