15
Coordinates from ORCA-job run
  C   0.65987925619049      0.02236825192139     -0.21780214028193
  C   -0.68975428516504     -0.42456116833989      0.35876802399715
  Br  0.57499904728112     -1.15029291499223     -2.18848315751258
  H   -0.68599613796162     -1.52151594312451      0.39731964986484
  N   0.67756548847500      1.35788647120635     -0.49025938651792
  H   -0.20839871441935      1.67142053744692     -0.86807535848014
  H   1.48094469796222      1.69901020682039     -0.99678938581111
  N   1.74964437277624     -0.47807238992425      0.46929706517226
  H   1.78088118434049     -1.48782582961140      0.46325139915060
  H   2.63543430959502     -0.09647416780450      0.16621266721165
  N   -1.76638187570803      0.14575683691572     -0.44001308583439
  H   -1.85222755853734     -0.39237341588570     -1.29515563345864
  H   -2.64119653026507      0.10996415319862      0.06766241456489
  C   -0.79225720838456      0.08219345185694      1.73566526581613
  N   -0.92313604617957      0.46251592031615      2.83840166211919
