15
Coordinates from ORCA-job run
  C   0.79986416883931      0.00893217929203      0.01670626199626
  C   -0.60335414109343     -0.53828708113506      0.40772331962151
  Br  1.92616490457632     -0.43134444918452      1.68040716756802
  H   -0.47754019344354     -1.54448978830913      0.81675943147578
  N   1.24615063147060     -0.60623292239396     -1.15696851899392
  H   2.22208039299093     -0.40869972593616     -1.33064148023503
  H   1.04111247126738     -1.59292447135534     -1.20908458713709
  N   0.94533384810997      1.41802352665511     -0.14420176485632
  H   0.63773422763568      1.94871452383665      0.65944693214451
  H   0.50047761746207      1.72525202235108     -0.99930818058318
  N   -1.45709380123119     -0.64065731202321     -0.76834659326858
  H   -2.37835386577751     -0.96027974580940     -0.49060258436439
  H   -1.56719476594750      0.26908087261449     -1.20149603004972
  C   -1.16204613785130      0.31879968885047      1.47072132328585
  N   -1.67433535700781      1.03511268254695      2.24888530339628
