15
Coordinates from ORCA-job run
  C   0.54209979714362      0.15292243627654     -0.17272740034664
  C   -0.84078100723823     -0.40050759804343      0.26824127497977
  Br  0.58491049511234      2.10902102371123      0.34557736562641
  H   -0.83243633853630     -1.43497369311270     -0.10104392774028
  N   1.58105707291297     -0.60053957865768      0.41896289521926
  H   2.49354597764235     -0.26946776692909      0.13136905248701
  H   1.53059642584785     -0.61349895140938      1.43104088637073
  N   0.58494546653287      0.12940521527097     -1.61693705630318
  H   1.15323677323236      0.87852814620970     -1.98794919120319
  H   0.97410134469113     -0.76255323409204     -1.90629616312961
  N   -2.00260580999625      0.25902013453222     -0.27675623148484
  H   -2.07518649320250      1.19364808913830      0.10772601122787
  H   -1.85529228124999      0.34660459352662     -1.27670189560475
  C   -0.91518026233401     -0.46760186127470      1.73122398470801
  N   -0.92201116055822     -0.52000695514657      2.90427039519344
