15
Coordinates from ORCA-job run
  C   0.64525787519664      0.21654349682755     -0.31154363338598
  C   -0.62316029448869     -0.20037454139605      0.46974641094524
  Br  0.03728771900255      0.33535981582579     -2.26618986322156
  H   -0.27496479041396     -0.30293026309556      1.50437218447378
  N   1.14431383093653      1.43540402640449      0.18096267983815
  H   0.47391391230470      2.19052510893447      0.11283775289211
  H   1.99487947106945      1.68589972059075     -0.30825289501864
  N   1.68805862263526     -0.75328828434297     -0.28954703162242
  H   2.10058821352658     -0.75555563650036      0.63787990377766
  H   1.30272939304618     -1.66795422873972     -0.49350863210250
  N   -1.09556958446914     -1.49792575251495      0.02640446341116
  H   -1.57149482932482     -1.40853095397207     -0.86378444900634
  H   -1.74681339443705     -1.87992414425311      0.70080892065416
  C   -1.63193615934677      0.87466907900062      0.45202643084876
  N   -2.44208998523745      1.72608255723110      0.44778775751641
