15
Coordinates from ORCA-job run
  C   0.53387940341328     -0.08475642907051     -0.33774254357707
  C   -0.91171353331983     -0.43675334861186      0.09714204191773
  Br  1.38611522035412     -1.94920583320194     -0.83625702035009
  H   -1.36919288999022     -1.01413369907450     -0.71248412123254
  N   0.49463140658919      0.73291285728997     -1.49040592327406
  H   0.17954028594251      0.20353971953341     -2.29335278022511
  H   1.40083835983288      1.13001876540266     -1.70618205808602
  N   1.23759573995024      0.52866636418871      0.71066857200398
  H   1.30893231918946     -0.08054228668769      1.51657202227198
  H   2.16737960233536      0.82092765851856      0.43748653323616
  N   -1.73047993002364      0.73140614566947      0.36536508503287
  H   -1.29977039109765      1.26490641352261      1.11269022173989
  H   -1.71138027621299      1.31836461508935     -0.46106742973557
  C   -0.87239672373248     -1.28025561857753      1.29692624907478
  N   -0.81397859323023     -1.88609532399069      2.30064115120307
