15
Coordinates from ORCA-job run
  C   0.68016552696418     -0.32024225842883     -0.38198990684028
  C   -0.82119193376992     -0.27825117420617     -0.01019015046782
  Br  1.09780445101405     -2.13863596794708     -0.96822785136904
  H   -1.38540691768949     -0.47015261466887     -0.92770954955689
  N   1.01227893216658      0.56286222644077     -1.47883749365809
  H   0.60934374250030      1.47127055917411     -1.26182089226571
  H   0.60979078895248      0.23170798349123     -2.34873268744669
  N   1.43449210421564     -0.03504516738288      0.81016136940581
  H   1.28819795199260      0.94584803859806      1.03433291395168
  H   2.42050428982366     -0.14328859360636      0.59711661919917
  N   -1.11819483315592      1.08098855356413      0.45006355629449
  H   -1.00777474934007      1.13101910598175      1.45644202783830
  H   -2.08019772414182      1.31837206631612      0.24333006068900
  C   -1.18870894036758     -1.30088281210461      0.98019074394007
  N   -1.54910268916468     -2.05456994522139      1.80587124028601
