15
Coordinates from ORCA-job run
  C   0.53215781298739      0.12142383550953     -0.38735257536090
  C   -0.71770834532660     -0.17337671681320      0.49241463120723
  Br  -0.04224765893034      0.14277501153938     -2.26689131251206
  H   -0.32315457993674     -0.22079622554394      1.52031441721468
  N   1.16937305325684      1.39314639620632     -0.14667655628920
  H   0.54298821986288      2.16861493226468     -0.33359533751484
  H   1.47872244732741      1.44443232847908      0.81932029214875
  N   1.42675724052495     -0.99411606707223     -0.21325352894550
  H   1.75559864316518     -1.00822824701354      0.74902291218914
  H   2.23284392720944     -0.86575897516856     -0.81546203198172
  N   -1.43088510268887     -1.40643670891632      0.23679053177187
  H   -0.74134692738506     -2.14577868315351      0.15011502223055
  H   -1.91035005674266     -1.33563707326637     -0.65354225892311
  C   -1.63313624425053      0.97120674921884      0.44971526490577
  N   -2.34061242907330      1.90652944372984      0.39908052985932
