15
Coordinates from ORCA-job run
  C   0.58106072183818     -0.23940388270115     -0.37718273758093
  C   -0.88907665473121     -0.36064015549159      0.12557924648386
  Br  1.08784479081204     -2.11513636386474     -0.96384470967651
  H   -1.46479555981877     -0.86886559358775     -0.65317859801347
  N   0.76865629834004      0.57830689007083     -1.53853885216666
  H   0.50489305336203      1.53399537150729     -1.33069630537407
  H   0.26006296142526      0.22686013656341     -2.33871592578567
  N   1.38906360900853      0.28631870188045      0.65039911198343
  H   2.33073408985767      0.44143140008978      0.31298677260590
  H   1.40371218695708     -0.29843316984346      1.47684493214457
  N   -1.51888006841645      0.91507966909933      0.41133148775611
  H   -0.90682651515942      1.47750393300482      0.99098611188683
  H   -1.71678730787746      1.41155670185148     -0.44711584840478
  C   -0.92603392915872     -1.18857856300577      1.33930461883841
  N   -0.90362767643880     -1.80099507557294      2.34084069530300
