15
Coordinates from ORCA-job run
  C   0.66899933422579      0.13450985794045     -0.16512109294532
  C   -0.67762735989532     -0.53237097435162      0.14117190806510
  Br  0.30341165381676      2.21731938253710      0.39932830638158
  H   -0.52334741300458     -1.57651966862871     -0.15542091879396
  N   1.69618319589988     -0.36208519971138      0.63815422107339
  H   2.61154187419320     -0.05786890520656      0.33376139728853
  H   1.56481704261978     -0.13155578236492      1.61456077113430
  N   0.92747903604614      0.06391848509422     -1.52648524435021
  H   1.71980267099943      0.62096835648765     -1.81612813195301
  H   0.09532049968466      0.30917267488531     -2.04950498091886
  N   -1.72190219874676      0.02428983182270     -0.69633650939638
  H   -2.53103296492267     -0.58374950899974     -0.69828002298948
  H   -1.99492692131489      0.93551341898565     -0.34575457042281
  C   -0.94737623738214     -0.52167999020157      1.58925635284060
  N   -1.19334221221928     -0.54086197828855      2.73779851498651
