15
Coordinates from ORCA-job run
  C   0.85781811700733     -0.11810680500535      0.12213302739472
  C   -0.61162962759388     -0.56274414400094      0.34384185773137
  Br  1.85404731597536     -0.69963932294657      1.72871564435854
  H   -0.60143782228847     -1.64749986212129      0.47607892470562
  N   1.33740834585207     -0.83258897139212     -1.01250570025395
  H   2.22611133052046     -0.44526008333600     -1.30536256010729
  H   0.65026676937652     -0.75093736846093     -1.75471245394339
  N   1.06578146963972      1.30311404160842      0.01474301987640
  H   0.76020272697733      1.80966286905377      0.83760894892798
  H   0.60313697223309      1.65499908862745     -0.81592796614624
  N   -1.37732078515939     -0.23913547793977     -0.86151887024890
  H   -2.15286566141279     -0.88120383183836     -0.96514137467047
  H   -1.76321918449629      0.69505395897931     -0.79492852353137
  C   -1.17285250812955      0.06963539542290      1.54654332930244
  N   -1.67544745850151      0.64465051334948      2.43943269660453
