15
Coordinates from ORCA-job run
  C   0.68504939041067      0.24859329971904     -0.18434801293806
  C   -0.66375638579253     -0.42199310754670      0.16187760912307
  Br  0.45443026218976      2.20755514776694      0.40788855608183
  H   -0.53321196253993     -1.46476010714311     -0.15273667827619
  N   1.82942143696444     -0.20779280297793      0.53331691449306
  H   1.72657465219559     -0.10040649377206      1.53393366589205
  H   2.02116477201589     -1.17219512398519      0.28684511957683
  N   0.90663041578908      0.09344591234966     -1.55550185152725
  H   1.73978658134522      0.58274255119300     -1.85374975873133
  H   0.09130279048509      0.36079924634639     -2.09209628338716
  N   -1.74183808588368      0.14433106939398     -0.62864175189621
  H   -1.98911462341473      1.05747097864929     -0.26429194174757
  H   -2.55989209934597     -0.45117040300488     -0.58828553854276
  C   -0.88049965650347     -0.42589158591819      1.61963732573798
  N   -1.08604748791544     -0.45072858107023      2.77615262614173
