15
Coordinates from ORCA-job run
  C   0.67702039148332     -0.15432032878824     -0.40185437736152
  C   -0.72596616745197     -0.49610471495310      0.17104964508008
  Br  0.74506369621484     -1.07615808218592     -2.16440689790285
  H   -0.78857484336124     -1.58913250419266      0.25210643215140
  N   0.89371949941904      1.23775387206330     -0.65313344022050
  H   1.07363665204209      1.71192496380282      0.22576089654452
  H   0.06897775040405      1.64156346283085     -1.08602178149015
  N   1.67569304648056     -0.76442239564536      0.42294274354403
  H   1.63388278014748     -0.38318239624619      1.36361444344615
  H   2.59230826260833     -0.57389346263410      0.03442827937746
  N   -1.76328474995254      0.12505424216305     -0.64418199909499
  H   -1.87349061995903     -0.41218340470794     -1.49623269694215
  H   -2.64780814909110      0.12117123596563     -0.15123266978317
  C   -0.78364536467731      0.07116358003537      1.52390028665052
  N   -0.77653218430651      0.53876593249247      2.60126113600119
