15
Coordinates from ORCA-job run
  C   0.68455409814758      0.28564429980891     -0.19116052949075
  C   -0.66018280182623     -0.28367131216240      0.31571776417793
  Br  0.55061122449666      2.26079018360557     -0.06557303683819
  H   -0.55458459084959     -1.37497863428575      0.23744299973977
  N   1.72338055591824     -0.12966392442685      0.69797992992214
  H   1.74408474433841     -1.14157296571218      0.77428923709812
  H   2.61893133046433      0.19864420216900      0.35577920720392
  N   0.94780992723831     -0.01562795639139     -1.57120795769787
  H   1.18841752616368     -0.99886183329092     -1.64973706639108
  H   0.11325073756579      0.16053053028810     -2.12177380540930
  N   -1.74172562274941      0.10569609406099     -0.57463973396998
  H   -1.97760848340547      1.07845404114131     -0.41174291053427
  H   -2.56576498265723     -0.45047381831468     -0.38116427735886
  C   -0.89381270423580      0.03638807539375      1.73460922826873
  N   -1.17836095860927      0.27070301811656      2.85018095127966
