15
Coordinates from ORCA-job run
  C   0.74056651856642     -0.02347912612254      0.01528849646394
  C   -0.65485264309812     -0.51790126138148      0.50487115806848
  Br  1.98693183803247     -0.30265480790842      1.57803951839160
  H   -0.54702137203356     -1.56022615695044      0.82821931569602
  N   1.10515019982551     -0.78352283720086     -1.12425022039616
  H   1.21864976073489     -1.76513914043803     -0.90301731389244
  H   1.96978355794264     -0.42221575680076     -1.50915877387529
  N   0.83954717907281      1.36013431257611     -0.33504606650887
  H   0.22119477066789      1.55700100098457     -1.11364387953050
  H   0.62644743521013      1.96345017327269      0.44922905303100
  N   -1.68568685210221     -0.45118053509588     -0.51908589079520
  H   -1.30630536123990     -0.81429483830598     -1.38604837132790
  H   -1.98126263355741      0.50564806475202     -0.66910821896126
  C   -1.08488786208497      0.27788919593219      1.65700595708382
  N   -1.44825453593658      0.97749171268682      2.52670523655276
