15
Coordinates from ORCA-job run
  C   0.54312067090155     -0.04772388718811     -0.32871146751901
  C   -0.75946690436879     -0.58118322325491      0.33181002491670
  Br  0.61168780932007     -0.89969676951973     -2.16843565068447
  H   -0.65978735550413     -1.66433241814860      0.46633655045636
  N   0.40442970377580      1.36644681473494     -0.56267007359145
  H   0.99957528561960      1.68405493782362     -1.31593817725562
  H   0.64867911509844      1.85779748141811      0.29229435386086
  N   1.66257012270673     -0.38579166305722      0.46113890228119
  H   1.74451038022305     -1.38136641711449      0.62803705920334
  H   2.52737004381238     -0.03287488544908      0.07102051943431
  N   -1.98896254358086     -0.31042532383367     -0.37512032441974
  H   -1.97362946599365      0.66183099369673     -0.66597650049365
  H   -2.02816793266089     -0.88376691421265     -1.20824405746185
  C   -0.83437881669812      0.04109472191339      1.66572933905277
  N   -0.89755011265118      0.57593655219167      2.70872950222026
