15
Coordinates from ORCA-job run
  C   0.69381153938446      0.02564695247886     -0.33107924175541
  C   -0.66790106525028     -0.49191417755611      0.19428754930680
  Br  0.85283146972390     -0.96585942059696     -2.16619632985446
  H   -0.62233633273203     -1.58966648083348      0.18899735705137
  N   0.65931109804556      1.40494781658980     -0.42706093286452
  H   -0.19611501865846      1.74635674180249     -0.84441358615931
  H   1.49867326280299      1.79636028504993     -0.82954073122377
  N   1.85997108596828     -0.38246100749940      0.37601478736291
  H   1.86859483694288      0.04711031309620      1.29445495465308
  H   1.94148601538123     -1.38783447871805      0.44128448414370
  N   -1.75650623009461      0.07044470575041     -0.59670685746756
  H   -2.64305948099649     -0.05670985101952     -0.12357440428157
  H   -1.79152094654060     -0.41552387237569     -1.48579820105477
  C   -0.80027099290903     -0.05866784490761      1.59186563482170
  N   -0.89496924106781      0.25777031873912      2.71846551732181
