15
Coordinates from ORCA-job run
  C   0.59096544909851     -0.13922565320283     -0.44411742799704
  C   -0.74008466728613     -0.66328512032639      0.13362968199191
  Br  0.82917695661213     -0.89595533485804     -2.22684900659053
  H   -0.66538093825759     -1.75227743760520      0.18314877359927
  N   0.46462333800724      1.30090302603202     -0.61026719659142
  H   1.18002458395872      1.65598659230703     -1.23298751391445
  H   0.57586464072957      1.74907667451826      0.29543520561367
  N   1.66917233153330     -0.65714176700295      0.36905818623283
  H   2.56367748454646     -0.46119984389521     -0.06431253379410
  H   1.65038829615107     -0.22040445592658      1.28632415035078
  N   -1.85504117306653     -0.27808062947611     -0.70022700669801
  H   -2.73192781390303     -0.54888995977031     -0.27393224332071
  H   -1.83421840417175      0.72627980730831     -0.83214265899575
  C   -0.81828630989820     -0.14232802319206      1.52058465570542
  N   -0.87995377405377      0.32754212509007      2.59665493440815
