15
Coordinates from ORCA-job run
  C   0.70018519154478      0.01771316203889     -0.31934171931517
  C   -0.67915677841238     -0.48329428150159      0.17531601307713
  Br  0.87267311878338     -0.94629756973274     -2.16710685722823
  H   -0.65257659342648     -1.58151336223475      0.15478631055052
  N   0.69147679833223      1.39927143270640     -0.39415936246331
  H   -0.15109169016600      1.76000524993223     -0.82145738607233
  H   1.54322824029191      1.78091410431813     -0.77974176683094
  N   1.84644317456790     -0.42199917251806      0.40101170227163
  H   1.84877740310746     -0.00337474141085      1.32453285328870
  H   1.90684033287585     -1.42963455505288      0.45548019048071
  N   -1.74434091880608      0.10924561414320     -0.62551209024860
  H   -1.77626944748375     -0.36541941864810     -1.52063182784623
  H   -2.64000172703833     -0.00443801998460     -0.16695767565489
  C   -0.82818441646242     -0.06751093644136      1.57638869307806
  N   -0.93800268770808      0.23533249438609      2.70539292291294
