15
Coordinates from ORCA-job run
  C   0.63697165657949      0.11868288097169     -0.19289033243697
  C   -0.76453071191119     -0.30670360406760      0.34317476283515
  Br  0.75638925182535      2.13113136729469      0.14522712636070
  H   -0.81843438713360     -1.37792040040655      0.10892408446485
  N   1.63798361992009     -0.62725323986869      0.44683489113312
  H   2.54960500234678     -0.39703594469430      0.07269673208616
  H   1.63011858075738     -0.53128252422506      1.45392110171000
  N   0.81830796556688     -0.02555577166662     -1.60577994232607
  H   0.17223311536835      0.54209051761450     -2.13570979462957
  H   0.74183748249059     -1.00393791314642     -1.86181523558431
  N   -1.92709111273375      0.33084816531985     -0.22791470850803
  H   -2.01187560391823      0.10005395168408     -1.20892907915466
  H   -1.86869578296207      1.33653923622406     -0.12252522082603
  C   -0.79269510883332     -0.18719004426870      1.80654212048927
  N   -0.76012396736276     -0.10446667676495      2.97724349438640
