15
Coordinates from ORCA-job run
  C   0.62297100503645     -0.02912739608078     -0.49684660660251
  C   -0.65997706052346     -0.64440038214527      0.12005659076358
  Br  0.83481059616748     -0.79460178272200     -2.28631807423241
  H   -0.51730733951277     -1.72850520681624      0.17349162544562
  N   0.40331974554007      1.38896737127997     -0.63463937801094
  H   0.38102746171347      1.81401039563855      0.28936276768662
  H   1.18147918631679      1.79342416963764     -1.14318475780531
  N   1.83948986441813     -0.33685545073778      0.21786967465528
  H   1.78685911227216      0.02156226842406      1.16647684618743
  H   2.01699789708024     -1.33428666698331      0.24634730020360
  N   -1.82609265203319     -0.35271652891198     -0.68048915373097
  H   -1.86662363632583      0.64474639920992     -0.85273073075769
  H   -2.67270988392033     -0.65594088259946     -0.21648075302702
  C   -0.73154198812734     -0.12647447860174      1.50854188025845
  N   -0.79270230810186      0.33919817140842      2.58654276896627
