15
Coordinates from ORCA-job run
  C   0.69192350777764     -0.32920773641156     -0.61155288049961
  C   -0.76484203287406     -0.29627195971372     -0.11540678114157
  Br  0.91486285120238     -1.59035291746266     -2.06230565112375
  H   -1.38070199944113     -0.07864636501681     -0.99403750426072
  C   1.62550422187839     -0.64306101946015      0.45641436918364
  N   2.33012769399123     -0.93023633472481      1.35349530362183
  N   1.00260895703339      1.07285191122756     -1.16871707924733
  O   1.98699070774711      1.64461308821595     -0.72238329751704
  O   0.20925924903567      1.49177240693388     -1.99762972054629
  C   -0.96749502121647      0.78345361729484      0.95433107845189
  H   -2.00441584478685      0.76194376862912      1.29263294346541
  H   -0.76646917438428      1.77507734336280      0.54571360706128
  H   -0.32086410902279      0.60834102568100      1.81616233816428
  C   -1.12541056189354     -1.61522688797292      0.40180448029769
  N   -1.43207844504669     -2.65504994058252      0.85347879409029
