15
Coordinates from ORCA-job run
  C   0.69136133206370      0.22699959904419     -0.50719280383338
  C   -0.42799962251231     -0.16476000744001      0.48267532350620
  Br  0.35264240298507      1.90699347124617     -1.37569743872937
  H   -0.08909723011690     -1.10263873030123      0.93878430438798
  C   0.87307158664833     -0.81417799651432     -1.50701898993458
  N   0.97866320002353     -1.66560636412853     -2.31165306877420
  N   2.00416978759583      0.29509455157803      0.32855515179809
  O   2.34329834637107     -0.79739958753743      0.76515431565493
  O   2.53507835918659      1.37369291228811      0.51057611843050
  C   -1.77992811381643     -0.38925525222582     -0.19648600606193
  H   -2.15002745398392      0.53170819580965     -0.64624514191713
  H   -1.69342239166977     -1.15867180617522     -0.96616090233127
  H   -2.50164460030683     -0.72640209215500      0.54937907502292
  C   -0.51795266499717      0.84326339061235      1.53959412573045
  N   -0.61821293747080      1.64015971589906      2.39673593705082
