15
Coordinates from ORCA-job run
  C   0.66584365109385     -0.25980507705953     -0.70169141005948
  C   -0.62437392908269     -0.49630760732295      0.12576843235475
  Br  0.25180015901515     -0.16642797612580     -2.58449976886078
  H   -1.10108603207876     -1.37288851892041     -0.32730525560267
  C   1.64460960183469     -1.31385616652527     -0.49025798591546
  N   2.40152116683678     -2.20127953695909     -0.33788348850503
  N   1.27638920046683      1.07568514412278     -0.22057882913108
  O   0.97363738469278      2.09289502004291     -0.81982090328676
  O   1.95050813648132      0.97455561244201      0.79695139710414
  C   -1.59134754847453      0.69122007180598      0.10392923348949
  H   -2.52344147215788      0.39307579308812      0.58616672641206
  H   -1.18266057494672      1.54078257121196      0.65197891747755
  H   -1.80720823785481      0.99738465758504     -0.91926737092932
  C   -0.27692048783306     -0.84361362728160      1.50648576433850
  N   -0.05727101799296     -1.11142036010414      2.62902454111406
