16

C	0.0	0.0	0.0
C	-0.488989	0.047766	-1.438224
Br	1.963868	0.0	0.0
H	-1.58112	0.165352	-1.318116
H	-0.074179	0.936394	-1.929773
C	-0.432292	1.263643	0.731229
H	-0.075217	1.245488	1.765387
H	-0.045092	2.163206	0.243972
H	-1.530199	1.25752	0.716658
N	-0.523816	-1.206582	0.595497
H	-0.300209	-1.20937	1.588889
H	-1.554381	-1.072005	0.512991
N	-0.114166	-1.158873	-2.185587
H	-0.833974	-1.317876	-2.885492
H	-0.194324	-1.924632	-1.519517
H	-3.208779	0.0	0.0
