16

C	0.0	0.0	0.0
C	-0.301027	-0.055409	-1.524686
Br	1.969133	0.0	0.0
H	0.431338	-0.733597	-1.97968
H	-0.080707	0.948087	-1.928008
C	-0.507789	1.268664	0.651402
H	-1.601297	1.260736	0.555782
H	-0.239452	1.272807	1.710051
H	-0.092075	2.153195	0.165169
N	-0.493978	-1.130436	0.734677
H	-1.50416	-0.971857	0.83694
H	-0.399761	-1.95989	0.156382
N	-1.640241	-0.55408	-1.811879
H	-2.339305	-0.305267	-1.074059
H	-1.98025	-0.108502	-2.656145
H	-3.479204	0.0	0.0
