16

C	0.0	0.0	0.0
C	-0.437926	-0.036216	-1.459479
Br	1.991473	0.0	0.0
H	-0.158101	-1.020839	-1.87284
H	-1.536717	0.002557	-1.375562
C	-0.441988	1.283759	0.66876
H	-0.113438	1.290931	1.709947
H	-0.052451	2.149739	0.135916
H	-1.540298	1.273407	0.624055
N	-0.519738	-1.11165	0.740702
H	-0.379308	-1.960255	0.197221
H	-1.544982	-0.92907	0.73584
N	0.041167	1.093275	-2.251756
H	0.996846	0.923112	-2.541177
H	-0.531777	1.17469	-3.082587
H	-3.191806	0.0	0.0
