13
Coordinates from ORCA-job run
  C   -0.54101569044079      0.17251495954740      0.29633189589419
  C   0.67934553203969     -0.62460835723375     -0.13185878078128
  F   -0.34330605088155      0.57390279908029      1.61187396254232
  H   0.68070512545590     -1.52708005020813      0.49442499169136
  H   0.54963868522802     -0.92872812295941     -1.17482811763583
  N   -1.71641676181487     -0.64485546210914      0.28020336927570
  H   -2.53620582066755     -0.09145950398912      0.49945916756093
  H   -1.84524316206793     -1.06814002144707     -0.63023055378115
  C   -0.66368003905715      1.41930846334279     -0.50200701761764
  N   -0.85818142562166      2.35988843119257     -1.17735866337214
  N   1.85586059226103      0.21888016105693     -0.02639341262053
  H   2.64496035062680     -0.21205155256088     -0.48795615028642
  H   2.09353866494006      0.35342825628753      0.94733930913050
