13

C	0.0	0.0	0.0
C	-0.219423	0.144851	-1.496187
F	1.347201	0.0	0.0
H	0.504273	-0.540091	-1.95202
H	-1.219252	-0.149207	-1.813236
N	-0.207238	1.314658	0.985379
O	0.707045	2.125986	0.915113
O	-1.139099	1.45102	1.757948
C	-0.650811	-1.147189	0.588654
N	-0.852979	-2.216177	1.077467
C	0.037604	1.479906	-2.012447
N	0.281033	2.518155	-2.509749
H	-2.051391	0.0	0.0
