13

C	0.0	0.0	0.0
C	-0.350955	0.009784	-1.505942
F	1.368181	0.0	0.0
H	-0.344231	-1.037686	-1.826084
H	-1.36008	0.388215	-1.635636
N	-0.330378	1.355458	0.624492
O	-0.424494	2.321226	-0.128691
O	-0.302032	1.401721	1.850177
C	-0.774067	-1.025853	0.696191
N	-0.715329	-2.055235	1.30314
C	0.596746	0.758232	-2.327459
N	1.311547	1.333337	-3.060401
H	-2.196402	0.0	0.0
