13

C	0.0	0.0	0.0
C	-0.368039	-0.017828	-1.505055
F	1.345712	0.0	0.0
H	-1.362819	0.39601	-1.63619
H	-0.408596	-1.072553	-1.798994
N	-0.337034	1.370319	0.596054
O	-0.40438	2.321754	-0.178949
O	-0.327317	1.443994	1.820518
C	-0.774084	-1.011554	0.721737
N	-0.711993	-2.027257	1.350659
C	0.606366	0.670952	-2.347238
N	1.358168	1.189895	-3.084583
H	-2.211247	0.0	0.0
