14
Coordinates from ORCA-job run
  C   0.60926523799651      0.10327051697925      0.75771187138090
  C   -0.86532198120196      0.30856287133949      0.36985960312164
  F   1.00925202349093      1.29335793345565      1.34599130077083
  H   -1.43854659020185      0.54697468885794      1.26837974509255
  H   0.64194652022741     -0.67279972924670      1.52671924277593
  C   1.50771856684179     -0.21534762442034     -0.40963300284615
  H   1.22267269665270     -1.15669095251256     -0.88313146513462
  H   1.46584062045513      0.58184772780202     -1.15355964757837
  H   2.53482993464971     -0.30702003810769     -0.05394995957024
  N   -1.39285664761924     -1.01574584197970     -0.12599585285160
  O   -1.55194882335948     -1.16632513052939     -1.33110952363269
  O   -1.56405725055569     -1.85712318677770      0.75066084597928
  C   -1.03392827883196      1.34670807189027     -0.63677929041074
  N   -1.14386602854400      2.20933069324945     -1.42516386709672
