14
Coordinates from ORCA-job run
  C   0.63215036791982     -0.37520425511581      0.31895210003238
  C   -0.74481181282391      0.23452438442518      0.06695136000712
  F   0.73578207966514     -0.51638879491948      1.69636816358854
  H   -0.84358710942318      1.18285486303395      0.59910506412383
  H   0.65692230290674     -1.37725472814456     -0.11604086951520
  C   1.75355469165648      0.49877183123462     -0.18599981446088
  H   1.71971652112995      0.59420482097887     -1.27253477613142
  H   1.69487866149619      1.49189009059772      0.26399519146246
  H   2.70812961187426      0.05083004640978      0.09264383830566
  N   -1.79470585850526     -0.68234930575389      0.65770766185962
  O   -1.81778430417777     -1.82675183275449      0.22201810734663
  O   -2.51520232995244     -0.20324932118599      1.52401345818096
  C   -1.00586558557631      0.39638097052381     -1.35691989563584
  N   -1.17917723618971      0.53274123067027     -2.51025958916386
