14
Coordinates from ORCA-job run
  C   0.62690576833544     -0.43456639977611      0.24201184711011
  C   -0.73325590643059      0.25061238502058      0.12660063007008
  F   0.77455173576249     -0.75837844148561      1.58387442055834
  H   -0.77560702224904      1.12543951604451      0.77855051997999
  H   0.59507654188527     -1.37113605017529     -0.31993595380431
  C   1.76345469011033      0.45785178486244     -0.19178483531344
  H   1.69218695665108      0.69796840737885     -1.25379996068921
  H   2.70852493366388     -0.05706011918316     -0.01564622660241
  H   1.76306251268272      1.38377169036347      0.38690156348846
  N   -1.79558752814802     -0.69844236533166      0.63879960627950
  O   -2.46032616765119     -0.31306189417863      1.59204792283919
  O   -1.88114701343967     -1.77479025326983      0.06090680244644
  C   -1.03660641354506      0.60183583084222     -1.25416311133801
  N   -1.24123308762764      0.88795590888821     -2.37436322502473
