14
Coordinates from ORCA-job run
  C   0.63274648163756      0.63449487141861     -0.09752903948808
  C   -0.72081114722184      0.21918825253838      0.49572866808890
  F   0.41998347400326      1.10876862181754     -1.37756162099892
  H   -0.59144719853705     -0.04742681757964      1.54686212256444
  H   0.99329001895147      1.47396579747425      0.50650083078646
  C   1.64461432349951     -0.48590679828638     -0.14194505196229
  H   2.59999031455856     -0.08685262533132     -0.48431286242660
  H   1.32591753190960     -1.25969765821454     -0.84117563061386
  H   1.78086598589744     -0.93778279505062      0.84207922489814
  N   -1.19965235932118     -1.03901662893339     -0.18569197753553
  O   -0.90444752107564     -2.08883054603722      0.37884001434856
  O   -1.77170575376638     -0.91481891596764     -1.26081884693867
  C   -1.71588441632808      1.27426579682013      0.35080926250819
  N   -2.49545973420719      2.14764944533181      0.26921490676926
