14
Coordinates from ORCA-job run
  C   0.57653158278945      0.11388016435511      0.78129796111352
  C   -0.88550297346476      0.28836130023529      0.33452086365265
  F   0.92506658826748      1.30962870739089      1.39014667296776
  H   -1.49851995886378      0.51443892096449      1.20966095806808
  H   0.59510637066939     -0.66491745564112      1.54787667594206
  C   1.52841462646273     -0.17921950046014     -0.34953253369563
  H   1.49964003994031      0.62004701488226     -1.09169792707805
  H   2.54213204321920     -0.25077191884932      0.04687014153818
  H   1.28259910405782     -1.12425370548612     -0.83743521154788
  N   -1.36641373116934     -1.04626024831393     -0.18070226250366
  O   -1.47740162712377     -1.19898850487324     -1.39093334404313
  O   -1.55329720010457     -1.89160502967561      0.68885685503178
  C   -1.03538149903784      1.32319987009747     -0.67818922969776
  N   -1.13297336564235      2.18346038537395     -1.47073961974793
