14
Coordinates from ORCA-job run
  C   0.67377886950131      0.59648932200829     -0.06756003511886
  C   -0.77917773556564      0.30633106935855      0.33368184730776
  F   0.70099530386279      0.90548019759338     -1.41378177735765
  H   -0.83988740759071      0.18078341714200      1.41688025377162
  H   0.97429058941176      1.49596121858834      0.48041423485653
  C   1.61736761548069     -0.55200104780695      0.20042934497853
  H   2.63648723648945     -0.23204316124337     -0.01912133981010
  H   1.56356481592277     -0.87628683654816      1.24111292723741
  H   1.37782628548870     -1.39929066673612     -0.44301756129938
  N   -1.20436834334678     -1.01738813648179     -0.25246113487056
  O   -1.58324850790162     -1.02231094545330     -1.41663346068257
  O   -1.06932845943283     -1.98903323776928      0.48627104408351
  C   -1.68009044526340      1.36147146422134     -0.11296996240462
  N   -2.38820981705648      2.24083734312707     -0.43324438069162
