14
Coordinates from ORCA-job run
  C   0.57665063656276      0.12443487132881      0.77967140499133
  C   -0.88470163787937      0.29334517439315      0.32898795230996
  F   0.92693889945433      1.32962252589012      1.36866812708515
  H   -1.49935690097813      0.53109709972436      1.19988548950050
  H   0.59355638261790     -0.64159651460606      1.55919910315212
  C   1.52879812115802     -0.18838542012157     -0.34590337989841
  H   2.54210273838371     -0.25512112846275      0.05242031052039
  H   1.28232145538671     -1.14023282048054     -0.82008369261313
  H   1.50147141969419      0.59990727226666     -1.09995461905971
  N   -1.36485369267345     -1.04788194876124     -0.16913311371025
  O   -1.55866791321557     -1.88029082645609      0.71136173165803
  O   -1.47763407298076     -1.21537545030007     -1.37731637199877
  C   -1.03358363063360      1.31467707672379     -0.69768153817450
  N   -1.13304180489670      2.17580008886145     -1.48912140376269
