16
Coordinates from ORCA-job run
  C   -0.70132662997029     -0.45172504859916     -0.19117635929155
  C   0.68783431029903      0.08977886246599     -0.52575301909559
  F   -1.04199198744777     -1.35684129529248     -1.15115223653031
  H   0.78112743045673      0.28288960376971     -1.59051865285420
  N   -0.80066538368047     -1.03800342864036      1.05928475707728
  H   -1.73851035479613     -1.37923750450463      1.22936860019485
  H   -0.50551268151167     -0.40915028798096      1.79436632398264
  N   -1.70967213264629      0.71119352680931     -0.45863321794484
  O   -1.39175811774035      1.52682132507126     -1.31771267220998
  O   -2.75868160314376      0.66426636454994      0.16794513037573
  N   1.71211063748805     -0.94419671016607     -0.14270923507583
  O   2.25119154261939     -0.81861092798904      0.94842749695927
  O   1.87362888066785     -1.83339769310268     -0.96646317860489
  N   1.02049015265601      1.34879668724862      0.20253454542584
  O   0.39190481083988      1.59691578016088      1.22817682103225
  O   1.92883112590980      2.00950074619967     -0.28398510344067
