16
Coordinates from ORCA-job run
  C   -0.72334899990107     -0.49532208382784      0.05481281581460
  C   0.80627489874776     -0.39399693205647      0.04128743922268
  F   -1.07251750257245     -1.61260598532274     -0.62999648717214
  H   1.19656946141002     -1.32100884837646      0.45842588376129
  N   -1.18073167687123     -0.59824371219692      1.37697338021071
  H   -1.24560469859234      0.31417634572476      1.81024107448839
  H   -2.09481107345369     -1.03480470024608      1.38431527090242
  N   -1.38152833659099      0.65833094128746     -0.75098640173876
  O   -2.31881982995850      1.23803554923310     -0.22190722377349
  O   -0.93269165636974      0.83735706071775     -1.87576541042196
  N   1.27819197529674      0.73025930862766      0.89470755778263
  O   2.40156582043343      0.61001744007961      1.36627299577490
  O   0.51734892501408      1.68782357960356      1.02180277409774
  N   1.43320741444841     -0.23272060687549     -1.32297839886442
  O   1.92886134496910      0.85084001328032     -1.59348386190073
  O   1.38903393399047     -1.23813736965223     -2.01572140818387
