16
Coordinates from ORCA-job run
  C   -0.68615728151371     -0.24522533071071     -0.18469869065709
  C   0.66596924624828      0.31219347669362      0.25326217454564
  F   -0.67358385290703     -0.46654317815730     -1.53006435398398
  H   0.56253404609247      0.89510338602183      1.16521928156366
  N   -1.07603535887863     -1.34332933024387      0.59517570516071
  H   -0.49184636927611     -2.14554935702622      0.39379759370373
  H   -2.04739322189907     -1.57729389584355      0.42524565418934
  N   -1.75230336587957      0.83985994095408      0.06624578933896
  O   -2.66933827778710      0.87220686533979     -0.73983192751244
  O   -1.62489698652062      1.51137142683533      1.07944886428154
  N   1.20847306606537      1.22557350099913     -0.81756759531883
  O   2.32741702135108      1.00359324862361     -1.25416619041295
  O   0.44581911245551      2.13053714246764     -1.12674206562935
  N   1.67981411706693     -0.75237412937836      0.50254536950462
  O   1.62420823104698     -1.76073834716760     -0.19684849059101
  O   2.50931987433523     -0.49938541940742      1.36897888181748
