16
Coordinates from ORCA-job run
  C   -0.69381436656338     -0.49587485374530      0.09637461954395
  C   0.81860511260886     -0.26086021417090      0.06049856078658
  F   -0.94587006023928     -1.68218826159415     -0.55386202434209
  H   1.30602749737088     -1.06392902948918      0.61351926456729
  N   -1.12964603376068     -0.45164536930327      1.41983305055500
  H   -2.10757864775389     -0.19983504367213      1.48623447246490
  H   -0.92717470103490     -1.31226806460579      1.91070929488240
  N   -1.45502773029808      0.54302235126823     -0.72784495085754
  O   -2.47542444127342      1.01365407177065     -0.24618889858910
  O   -1.00009413930025      0.74070119802430     -1.84479625755380
  N   1.16575938248680      1.02206276303281      0.73592262903970
  O   0.43033722939912      1.97865250358582      0.52803837039941
  O   2.18519237667029      1.00023306337035      1.41826234746117
  N   1.45081286634231     -0.26342484039642     -1.31300202323463
  O   1.91709553443741      0.78797760647504     -1.72407824044885
  O   1.45980012090820     -1.35627788055008     -1.85962021467439
