16
Coordinates from ORCA-job run
  C   -0.60146934969813     -0.28896129794411     -0.35854817655185
  C   0.64862507273396      0.25179489579767      0.33340766838620
  F   -0.44749466905580     -0.34652592541746     -1.68889761630831
  H   0.45423186397413      0.48048206474994      1.37949494497420
  N   -0.90342574265959     -1.57343217781279      0.13015843796848
  H   -1.09478345001612     -1.58241847225306      1.12367626895817
  H   -1.66442558534050     -1.99076188240505     -0.39197109920859
  N   -1.75772470263064      0.70956673945264     -0.08724401985965
  O   -2.51108416416288      0.97154787070218     -1.00781867311345
  O   -1.85599394244647      1.05867508049157      1.08598071774051
  N   1.16379830308782      1.51039611998849     -0.30479421020811
  O   0.33214781471608      2.21208071392027     -0.86716269645495
  O   2.35139435279515      1.74788074964524     -0.13943855001229
  N   1.71554520122453     -0.79434192404033      0.27617094702539
  O   1.95715050924103     -1.36013349310350      1.33714982505535
  O   2.21350848823742     -1.00784906177169     -0.82016376839111
