16
Coordinates from ORCA-job run
  C   -0.66214333899264     -0.55195472615475      0.03305180410428
  C   0.81349300787069     -0.16432030982185      0.09546411854478
  F   -0.67251964194760     -1.75120235111334     -0.64564109704438
  H   1.34685135297805     -0.94213405807707      0.64207171676085
  N   -1.26433342127830     -0.58205508553362      1.28618347616497
  H   -0.70549839507798     -1.00499854772680      2.01216191581277
  H   -2.19666372004906     -0.97402900609518      1.24809591883479
  N   -1.48642633351930      0.42387289543465     -0.80909269261208
  O   -2.34847208972052     -0.05853291998653     -1.52523671066859
  O   -1.24235844374244      1.60406540193988     -0.60958067464343
  N   1.10914675821829      1.12468248574991      0.81788582491405
  O   1.49432210271759      2.07748115559316      0.15982433343003
  O   0.96220246922532      1.05567479218524      2.03129795930843
  N   1.45039801486285     -0.10440183209484     -1.25885942737161
  O   0.74216949576439      0.16115958406908     -2.22121463054424
  O   2.65883218269067     -0.31230747836794     -1.25641183499062
