16
Coordinates from ORCA-job run
  C   -0.71786329005413     -0.19525673114449     -0.10822055329373
  C   0.71134462552293      0.25249964679380      0.18793203937692
  F   -0.91926714588114     -0.21434112519457     -1.45670891705474
  H   0.77604681172526      0.69697560711384      1.17806109764569
  N   -1.04050865535265     -1.38573453822364      0.55832260173466
  H   -0.53522444112198     -2.16565410990525      0.15618711609568
  H   -2.03702332212968     -1.56455754732449      0.51314474754409
  N   -1.67779881035423      0.86966787401955      0.45819355796207
  O   -2.70344975554494      1.04617896872559     -0.18100360134263
  O   -1.36505884932031      1.38031748484554      1.52364420448675
  N   1.13278478642599      1.29857568123410     -0.81414090163918
  O   0.37963448646764      2.26078143862943     -0.86883134675905
  O   2.15983474812840      1.11115859510235     -1.44802329119592
  N   1.69528819030415     -0.86570527575788      0.12212400400621
  O   2.65618326235743     -0.76910403975154      0.87723047286608
  O   1.48507735882727     -1.75580192916234     -0.69791123043288
