16
Coordinates from ORCA-job run
  C   -0.67546964777717     -0.30596092756965     -0.19876030087791
  C   0.65995557060825      0.18540272315526      0.35875330661674
  F   -0.51367938048909     -0.64512494747770     -1.51401853029339
  H   0.63758478264441      0.26891603803363      1.44199919758582
  N   -1.23470250049070     -1.31085302944399      0.59780562790934
  H   -0.58220016810237     -2.06719658426522      0.76056706241207
  H   -2.09428024348436     -1.65436563805898      0.18470355531295
  N   -1.67429961136604      0.85026701996029     -0.16023019601336
  O   -2.60929503838178      0.77168009355889     -0.94154632498336
  O   -1.48839436098737      1.69308620046232      0.70775438031100
  N   1.09990753109593      1.50386905671511     -0.19344609053450
  O   0.64555683698730      1.85300499123554     -1.27468768059954
  O   1.92417717342082      2.09066086476460      0.49804715838709
  N   1.72215298528001     -0.82485595522742     -0.00817313207102
  O   1.60300330105184     -1.90838513086551      0.55520728699845
  O   2.57898276999031     -0.50014477497714     -0.81397532016038
