16
Coordinates from ORCA-job run
  C   -0.71669971717384     -0.33159180932679     -0.14099628945491
  C   0.68983175181228      0.17143955237368     -0.45200845273691
  F   -0.93314814816600     -1.37643563309211     -1.03524284257761
  H   0.72562585795014      0.63010599515992     -1.43748048335688
  N   -0.92752932580683     -0.61065253779303      1.19274927660471
  H   -0.32674586578494     -1.35244873967526      1.52465586045544
  H   -1.90288026532672     -0.74695525510353      1.41812109152504
  N   -1.73798859001166      0.71913312772110     -0.60807032667739
  O   -2.73528727451627      0.86625230886572      0.08394857065941
  O   -1.49904743073814      1.25198504592097     -1.68240274090715
  N   1.69052261019606     -0.93778756698334     -0.42758842890116
  O   2.58132326660556     -0.86234811137165     -1.26644508384140
  O   1.56171168928209     -1.80126410060130      0.43453639652599
  N   1.09108073648135      1.20598081959619      0.56196647577027
  O   0.36001743645020      2.18577008010171      0.58279031427266
  O   2.07821326874673      0.98981682420771      1.24946666263991
