16
Coordinates from ORCA-job run
  C   -0.64006550705219     -0.38272274710432     -0.13257070206681
  C   0.68401322861505      0.33839798078041      0.11415965165064
  F   -0.70413971960331     -0.89493920582103     -1.36964743354533
  H   0.65501081850778      0.91387437717182      1.03739474793202
  N   -0.80602034723192     -1.41664968054314      0.80720973448453
  H   -0.83398407921589     -1.08181228641209      1.76156756674894
  H   -1.62283249899472     -1.97545790086505      0.59190056813245
  N   -1.77503040592135      0.67005636220973     -0.02728556124800
  O   -2.67816312064631      0.61698297799849     -0.84279234169866
  O   -1.69416288178848      1.39977932642291      0.95709879840845
  N   1.03639741197196      1.29400973102799     -0.99026130982112
  O   0.09636976915204      1.77519563968252     -1.61070082560293
  O   2.22433804975245      1.55314323870738     -1.11593283472551
  N   1.76830333450089     -0.68398858080448      0.23711199000720
  O   2.08673496714194     -1.26890315923579     -0.78852182184251
  O   2.20423098081207     -0.85696607321536      1.37026977318663
