16
Coordinates from ORCA-job run
  C   -0.68566026021745     -0.28667594513325     -0.14541378505235
  C   0.72310349098023      0.24471642707694      0.11279411628532
  F   -0.90786522619362     -0.49164661393576     -1.45128055615807
  H   0.83261897996441      0.59504783512888      1.13733376757269
  N   -0.88025616745989     -1.49204684877299      0.55394838274174
  H   -1.76840734842315     -1.91362408191105      0.31031585328124
  H   -0.78965451495607     -1.38557785084623      1.55606771214353
  N   -1.69027549244524      0.80449028522443      0.31093863609624
  O   -1.44942740080803      1.27897470650732      1.41761983304004
  O   -2.66023330215755      1.01582650633012     -0.39485306867296
  N   1.08026025877312      1.39459204370922     -0.78597719623283
  O   2.27375415272784      1.57263065870729     -0.98065126101156
  O   0.14758804756295      2.08513539604127     -1.17771496975654
  N   1.69957042197147     -0.86591831782731     -0.10681956961178
  O   1.86720358129907     -1.22559489472638     -1.26352565691948
  O   2.20868077938192     -1.32932930557251      0.90821776225478
