16
Coordinates from ORCA-job run
  C   -0.68542512749047     -0.33572459696508     -0.08380695533979
  C   0.68355943431022      0.24739428002292      0.26476489578442
  F   -0.62187244698462     -0.91973904740718     -1.31908983462258
  H   0.74461990646078      0.53436208966554      1.31108831161084
  N   -1.17031731825016     -1.16853583624398      0.93034168259311
  H   -2.05411253121164     -1.58315024567182      0.65732154178120
  H   -0.49792015786997     -1.88127476097371      1.18377285666192
  N   -1.69042733291541      0.81115695524085     -0.18855702146012
  O   -2.67889605352792      0.59288379935005     -0.87115273444007
  O   -1.44937683654532      1.79980062844906      0.49178073858021
  N   1.06433130635995      1.43601863075328     -0.55943914653702
  O   1.93272128475096      2.14052453343199     -0.05796848015842
  O   0.52342249005391      1.57559561948403     -1.64819776180364
  N   1.72526781892170     -0.81785111724449      0.01332059356627
  O   2.51271755463057     -0.65503637291600     -0.90449202093005
  O   1.66270800930740     -1.77442455897545      0.77931333471371
