16
Coordinates from ORCA-job run
  C   -0.69250583329136     -0.61646980638295     -0.03303400846892
  C   0.79108770624542     -0.20681569899338      0.09143237831185
  F   -0.66993134801054     -1.76981093680825     -0.73763430584800
  H   1.30917668924653     -0.97291978227843      0.66846863137883
  N   -1.41680312044878     -0.81502822154416      1.15901711333117
  H   -1.03452451572646     -1.58632436721165      1.69158001985487
  H   -1.43783345159130      0.02233330283387      1.72659937584910
  N   -1.47078347656567      0.42899933503066     -0.82264330021048
  O   -2.09414113997724      0.06672630948926     -1.80033483556408
  O   -1.42026416246063      1.54768360698332     -0.32098925913335
  N   1.00549794084643      1.09452573425406      0.81967820424338
  O   1.50826921734993      2.02131405139997      0.20485991920663
  O   0.66942281129214      1.07362588348718      1.99737102256842
  N   1.47816199626704     -0.12141004186647     -1.23138933836905
  O   0.83815180837873      0.35664690067457     -2.16074112143153
  O   2.63701887844577     -0.52307626906758     -1.25024049571885
