16
Coordinates from ORCA-job run
  C   -0.66038388493739     -0.57990871321300     -0.01722600128906
  C   0.83918185998690     -0.29499127713046      0.12401570556113
  F   -0.80105511739875     -1.72458341670246     -0.73082976892760
  H   1.29497938198127     -1.17298594472266      0.57905542182812
  N   -1.23361081143156     -0.74937174907546      1.25161490346597
  H   -2.08700683130237     -1.28861240928902      1.16731970657201
  H   -1.44612311402371      0.14471523583958      1.67577624767535
  N   -1.36767374698509      0.49389624069358     -0.88981324298675
  O   -2.41191729159136      0.95909628476891     -0.45654459757324
  O   -0.83613800948256      0.72974307555463     -1.96711606753631
  N   1.08444828146133      0.86857899413915      1.01874432982940
  O   0.20519234228294      1.72674740499934      1.06754749989461
  O   2.16147779327742      0.87851183581368      1.60097425119965
  N   1.57543653465195     -0.04503969133016     -1.17077344338572
  O   1.95773732408952      1.09393685252169     -1.39347009140384
  O   1.72545528942146     -1.04173272286734     -1.86127485292372
