16
Coordinates from ORCA-job run
  C   -0.69190091119999     -0.32273196795225     -0.08159417026109
  C   0.68935836661060      0.23329455699481      0.26244134864842
  F   -0.64615658090410     -0.89983353697313     -1.32091607712091
  H   0.76157188234104      0.51102844269040      1.31055124983990
  N   -1.18597836339063     -1.15317532040324      0.93010066003510
  H   -2.07905608743438     -1.54929261268210      0.65972488098478
  H   -0.52570845188268     -1.88045184577006      1.17405507852565
  N   -1.67638400964577      0.84290079081068     -0.17291656033845
  O   -1.41358098416215      1.82241839363418      0.51259597314377
  O   -2.67240296494945      0.64755501981421     -0.85154287945148
  N   1.08713655361148      1.42001951701672     -0.55575957053868
  O   0.54196551427758      1.57733036545859     -1.64005188978369
  O   1.97217172543611      2.10438672032556     -0.05538714923898
  N   1.71006072997111     -0.84943057762922     -0.00276225470836
  O   2.49448357646549     -0.69505769974098     -0.92459782356395
  O   1.63442000485574     -1.80996024559418      0.75705918382798
