16
Coordinates from ORCA-job run
  C   -0.68481888495616     -0.24827562136830     -0.18510714666950
  C   0.66439816475127      0.31439700638353      0.25471645444579
  F   -0.67605210745753     -0.45148385352512     -1.53358420975233
  H   0.55969637910827      0.88548424979094      1.17397552971366
  N   -1.06301025179481     -1.35937161761346      0.58146896900823
  H   -0.47262208153546     -2.15428252377542      0.36971074443889
  H   -2.03291551244202     -1.59950361431259      0.41208332268715
  N   -1.75912162168285      0.82506292663283      0.08410111579812
  O   -2.68019056536620      0.85940380821159     -0.71722086690303
  O   -1.63230189616941      1.48512227064859      1.10488454325954
  N   1.19553870612722      1.24541161794868     -0.80701471134465
  O   2.31366237090078      1.03639679719384     -1.25205441874790
  O   0.42503206406294      2.14858685978664     -1.10148886178568
  N   1.68761525149705     -0.74508131526396      0.48676049579599
  O   2.51839144644885     -0.49615688592465      1.35322510056376
  O   1.63769853850806     -1.74471010481313     -0.22545606050803
