16
Coordinates from ORCA-job run
  C   -0.70347035822636     -0.30853252335402     -0.29616830996014
  C   0.60502436629815      0.29696439678936      0.24698189937742
  F   -0.55963400894514     -0.53838090085707     -1.61157986950683
  H   0.43402146334827      0.81822373227624      1.18709166395103
  N   -1.20638590610614     -1.45730311491101      0.34477031019202
  H   -1.44773784489307     -1.28897568767444      1.31148128267358
  H   -0.58494485065730     -2.24638806961387      0.23301036113340
  N   -1.78381895386636      0.76830703627503     -0.10691085105342
  O   -2.37084407393926      1.16409012540414     -1.09566865021969
  O   -1.96791863053187      1.08809819781350      1.06326886850078
  N   1.15639234670906      1.30042185521470     -0.73253328400046
  O   0.43603452057474      2.27864850278156     -0.88553337843511
  O   2.22115510894996      1.05585435669408     -1.27839934421223
  N   1.65696355475887     -0.73428617324071      0.48368788451918
  O   1.64124995831783     -1.73865882077047     -0.22168400639958
  O   2.47291330820862     -0.45708291282700      1.35718542344006
