16
Coordinates from ORCA-job run
  C   -0.69870171349748     -0.45822201791484     -0.18791893372330
  C   0.68627818544217      0.09082869084688     -0.52811568745163
  F   -1.03599291791721     -1.36971966474197     -1.14268308168860
  H   0.77639120943125      0.27775818056731     -1.59427179449387
  N   -0.79090055986845     -1.03889007004012      1.06578046683202
  H   -1.72586609558324     -1.38593884368091      1.23993816444116
  H   -0.49917559663104     -0.40369602459082      1.79682116470272
  N   -1.71439448858238      0.69769988273091     -0.45804337478361
  O   -1.40758294600280      1.50385468506726     -1.32999977501930
  O   -2.75669402165560      0.65561513676595      0.17984321806047
  N   1.71819034618449     -0.93337281549472     -0.13996326945459
  O   1.88056212487982     -1.82926740314957     -0.95617503659405
  O   2.26180524537905     -0.79460178898551      0.94724887960637
  N   1.01026513365793      1.35702503231670      0.19104476755232
  O   0.38436908716968      1.60493437963085      1.21841716726852
  O   1.90944700759379      2.02399264067258     -0.30392287525464
