16
Coordinates from ORCA-job run
  C   -0.71705087444612     -0.39277662701453     -0.17637294577558
  C   0.64918322971558      0.20304114269273      0.22997764199994
  F   -0.59223184892975     -0.96946614737898     -1.38393273443362
  H   0.67638686600920      0.45534977811747      1.28677739172909
  N   -1.30415622870526     -1.30616627262176      0.72444759137149
  H   -0.69851594266004     -2.10375447963475      0.87387295173901
  H   -1.52886264713088     -0.86556548525944      1.60730290800286
  N   -1.69044688435648      0.77909985689736     -0.27125606082296
  O   -1.67930270333869      1.50250988150386      0.72337267235837
  O   -2.39854682968505      0.86251844225850     -1.25500107367840
  N   1.04490192018270      1.42793290631874     -0.52898986771736
  O   0.52015459634236      1.61171362701316     -1.62156035092480
  O   1.89295208251315      2.12160797211256      0.02122424181562
  N   1.70083066933765     -0.84537494609069     -0.02212499803278
  O   1.62216837608590     -1.82333196587303      0.71489692919244
  O   2.50353621906574     -0.65733768304121     -0.92263429682332
