16
Coordinates from ORCA-job run
  C   -0.63635931239613     -0.54415002205213      0.18722874179804
  C   0.83892935893238     -0.19561012462597     -0.02696933938286
  F   -0.86451946946738     -1.76738521110391     -0.39956364200212
  H   1.44660296101268     -0.94037258402370      0.48730879084561
  N   -0.92318788146252     -0.48927436777897      1.55084685779684
  H   -1.90283883698894     -0.29966664586310      1.72064576795489
  H   -0.61194264214748     -1.32221945933981      2.03263923035975
  N   -1.56533957070978      0.40579347440074     -0.57048209240655
  O   -2.56019610737718      0.81242311923567      0.01223022115408
  O   -1.25453899861573      0.60032102227235     -1.73625331090230
  N   1.15640468932745      1.13233220174792      0.57261049640961
  O   2.24593941596539      1.21203855213439      1.13077562224241
  O   0.32586955228570      2.02078732497803      0.43137519145434
  N   1.31296514760765     -0.19580594176566     -1.46244822298600
  O   1.64364118634780      0.87414179604950     -1.95020089281642
  O   1.34857050768608     -1.30235313426537     -1.97974341951933
