16
Coordinates from ORCA-job run
  C   -0.69104391472653     -0.49083646177341     -0.11592587624974
  C   0.61641764391382      0.13475072367223     -0.60015413155042
  F   -1.08705274451929     -1.40744721602745     -1.04292127536889
  H   0.57392772338130      0.34190158491554     -1.66554749452542
  N   -0.61059202339664     -1.09127413487121      1.12930143403591
  H   -0.27236752940640     -0.45065403766228      1.83505518055148
  H   -1.50005418560572     -1.49190618963831      1.39992208910409
  N   -1.78941061153814      0.61212565547554     -0.24879359293623
  O   -2.75421338247112      0.49852502901699      0.49377370815738
  O   -1.62102655133250      1.45132521175034     -1.12725041665868
  N   1.73609740503866     -0.83981534996355     -0.35272569847746
  O   2.39114898023482     -0.68970982291939      0.66962074102907
  O   1.85083911351522     -1.71258257531878     -1.20146920290350
  N   0.95729224690851      1.40555238352690      0.10353022749911
  O   0.43661143143801      1.60880783771436      1.19724040462999
  O   1.76442639856602      2.12223736210248     -0.47365609633669
