16
Coordinates from ORCA-job run
  C   -0.72682583277131     -0.40928292608859     -0.04884558181420
  C   0.66673232061317      0.23196606408902      0.13040098657758
  F   -0.72548053647341     -1.12731503545025     -1.18517665492898
  H   0.80304668747035      0.61659258200601      1.13767442185330
  N   -1.19761194442990     -1.20851056567056      1.01434179713698
  H   -0.56714643035858     -1.98068567933372      1.19192154765458
  H   -1.33324034199208     -0.66454274066972      1.85679482655623
  N   -1.72220745468125      0.74058708070249     -0.17543297988361
  O   -2.53525739133134      0.70212782823074     -1.07739220082991
  O   -1.61173968349346      1.58029707761100      0.71627238841814
  N   0.96634697505869      1.34983646936780     -0.81542803335861
  O   1.87758311115453      2.08973105315565     -0.46164364704398
  O   0.30906287829273      1.41231713381566     -1.84825981126971
  N   1.69684369638184     -0.84208472389687     -0.09815397876999
  O   2.37771882073586     -0.78599385082906     -1.11012570821427
  O   1.72417512582417     -1.70603976703958      0.77305262791646
