16
Coordinates from ORCA-job run
  C   -0.80031631700771     -0.25140685222352     -0.39616340079870
  C   0.72398769100793     -0.00474902380298     -0.39293289926561
  F   -1.20196773972379      0.11617411862135     -1.63346715310657
  H   1.17856303114594     -0.66653411681565     -1.13030680231928
  N   -1.25003331787946     -1.55987861856905     -0.13130536944746
  H   -0.95907838951840     -1.87637553843196      0.78457190234960
  H   -0.92809973117784     -2.20590685699484     -0.84095171960581
  N   -1.48844060500297      0.63955664728732      0.63105562524260
  O   -2.38753912772456      1.36429455609354      0.25405245219699
  O   -1.07477049730270      0.46742854582980      1.77332983305404
  N   1.38831974942211     -0.31409087750465      0.92380119766237
  O   1.34321984587793     -1.49522705723214      1.24498111585254
  O   1.92370500247917      0.60183243296457      1.52714117829809
  N   1.08235932820832      1.39136455775658     -0.78123997480334
  O   2.08334170094041      1.50394640001713     -1.48127478233608
  O   0.36674937625563      2.28857168300449     -0.35129120297339
