16
Coordinates from ORCA-job run
  C   -0.63880528734607     -0.38384934874430     -0.13458977537776
  C   0.68319423802019      0.33946635472600      0.11683170979462
  F   -0.69383237763772     -0.90361041556211     -1.36891257971777
  H   0.64705867563905      0.92178083582748      1.03552925715378
  N   -0.81137131305833     -1.41199123211193      0.81049282769745
  H   -0.84660625549935     -1.07074610551006      1.76238681808869
  H   -1.62728526694023     -1.97127430294706      0.59274605544083
  N   -1.77504646991150      0.66911815707429     -0.04379322821755
  O   -1.70125330105066      1.40534053426225      0.93625027172369
  O   -2.67253001269942      0.60998503777499     -0.86512196037757
  N   1.04339660463907      1.28698052234654     -0.99184565738982
  O   2.23238665566685      1.54366188726160     -1.11243165762494
  O   0.10757533413825      1.76587141594852     -1.62044492333461
  N   1.76668939865009     -0.68166028623873      0.25513732535268
  O   2.19459215677717     -0.84620031856037      1.39264276431413
  O   2.09283722061260     -1.27387273554710     -0.76387724752586
