16
Coordinates from ORCA-job run
  C   -0.61810303420467     -0.35677775603599     -0.25334710504581
  C   0.66435783326123      0.31538289538830      0.23369504065248
  F   -0.54590713770763     -0.68405716389411     -1.55112934241881
  H   0.53161228801702      0.75209863653675      1.22165048297775
  N   -0.87083461779830     -1.51529445826311      0.50432950088035
  H   -1.65410999307242     -2.03306758769942      0.12446677878208
  H   -1.00437516451847     -1.32150007502714      1.48840600228336
  N   -1.76973126659172      0.67456772964963     -0.11772158520398
  O   -1.80062309678288      1.25480888666573      0.96409302949325
  O   -2.58196740603867      0.74254222356184     -1.02284075710416
  N   1.12087726543859      1.41870487869881     -0.67816199543321
  O   0.24630729958968      1.98947160873965     -1.31812025763576
  O   2.31270029279097      1.68736342296288     -0.63898023314936
  N   1.74076335213337     -0.71853987934848      0.32243429887763
  O   2.05695967374876     -1.05529398763521      1.45852126112251
  O   2.17207371173515     -1.15040937430012     -0.73729511907830
