16
Coordinates from ORCA-job run
  C   -0.69153869455532     -0.48471663685301     -0.13737109776642
  C   0.62687043607383      0.14411831121300     -0.58600256469897
  F   -1.07444470059233     -1.38060008180530     -1.09010775182514
  H   0.60302701319752      0.37463777027003     -1.64713389269716
  N   -0.63634723258323     -1.11064553842763      1.09652392610595
  H   -0.30412815909332     -0.48734525379272      1.82037908234921
  H   -1.53368353329794     -1.50838463956852      1.34453601294448
  N   -1.78258914347610      0.62551131325258     -0.26743362836141
  O   -2.76148616252038      0.50068905345471      0.45463538661508
  O   -1.59474968615265      1.48213850412803     -1.12489790006720
  N   1.73731084389086     -0.84162250994696     -0.34159841996108
  O   2.37127711069426     -0.72085884614707      0.69787739648095
  O   1.86651008593438     -1.69287449151892     -1.20990918046429
  N   0.96345180405477      1.39733944001185      0.15030864306143
  O   1.78863071868257      2.11799093934745     -0.39566253738403
  O   0.42188929974305      1.58362266638250      1.23685652566859
