16
Coordinates from ORCA-job run
  C   -0.69330638704161     -0.32429400425763     -0.06088394000263
  C   0.69756581262164      0.23228814191968      0.23984038528975
  F   -0.69154312982607     -0.88406151315743     -1.30903247551581
  H   0.80748538853956      0.49878376647591      1.28760995195010
  N   -1.14749175228970     -1.17019655977978      0.95646541213397
  H   -0.47583710011758     -1.89706774736880      1.16816156408661
  H   -2.04815018124306     -1.56653190040543      0.71305232849214
  N   -1.68480222058770      0.83858212946032     -0.10028376974870
  O   -1.39893360207644      1.81262599110795      0.58362671170844
  O   -2.70687751422072      0.64492792500192     -0.73953859896050
  N   1.06123751549388      1.43102813384275     -0.57752765944047
  O   0.47906358309531      1.59817229340097     -1.64075790331015
  O   1.95895388068395      2.11440740597290     -0.09899895529162
  N   1.71207030302528     -0.84273736965474     -0.07532191567711
  O   2.46399259782168     -0.67236312173120     -1.02103838395112
  O   1.66657280612160     -1.81356357082739      0.67362724823711
