16
Coordinates from ORCA-job run
  C   -0.71134214949459     -0.36854107173934      0.03376672385583
  C   0.57372586946794      0.16146685366017     -0.59532974173733
  F   -1.04796231354746     -1.48902542540404     -0.72154492368757
  H   0.38388720415485      0.54316830809980     -1.59585328537851
  N   -0.63214327700214     -0.54867150071307      1.39832131611159
  H   -1.53262067387615     -0.70432637971232      1.82911672511502
  H   0.06336594395145     -1.23707149252741      1.65074289172510
  N   -1.86149053948513      0.60120631084440     -0.28517510670421
  O   -2.70530954535488      0.76223827904230      0.58498091959445
  O   -1.87370655314552      1.05753427266478     -1.41951140956199
  N   1.61583552455158     -0.90356098060850     -0.70123425717408
  O   1.71234132771229     -1.69891691685925      0.22800442342078
  O   2.31077575727413     -0.86269461910626     -1.71036604380330
  N   1.11684593306652      1.28757032627935      0.23978673368025
  O   0.35406127412880      2.23730980972336      0.34374655007111
  O   2.23373621759833      1.16431422635601      0.72054848447286
