16
Coordinates from ORCA-job run
  C   -0.76682537448558     -0.22773160182204     -0.19539772879567
  C   0.66078686655837      0.22794379916678      0.16349276008700
  F   -0.86948190378820     -0.31384245532787     -1.53164669926240
  H   0.69623951271740      0.64784750029312      1.16708448731475
  N   -1.24578010587708     -1.40811687562059      0.40520205393696
  H   -0.71930529367277     -2.21684646223621      0.10491113620218
  H   -1.30280881636759     -1.33617965231316      1.41156600141830
  N   -1.70627011203404      0.88671936212330      0.29277270353416
  O   -2.41843515863447      1.43023082458547     -0.52962664132573
  O   -1.66101523052930      1.08091447675241      1.50342056023939
  N   1.11696239407522      1.29984096938224     -0.79168845425814
  O   0.46507939944684      2.33327240006045     -0.71227903968884
  O   2.04727597485764      1.05148779649487     -1.54300709571344
  N   1.64911076567041     -0.88812907281119      0.10240398783491
  O   2.62183235396054     -0.76551905606152      0.84022755573932
  O   1.43063472810260     -1.80189195266606     -0.68743558726278
