16
Coordinates from ORCA-job run
  C   -0.69351480299922     -0.27276497192520     -0.13460632571421
  C   0.72965414586368      0.22974025972126      0.10177832882451
  F   -0.93547464162955     -0.48588100271080     -1.43563753185372
  H   0.85922461240206      0.58643618224075      1.12178529062847
  N   -0.90575309607658     -1.46699018007155      0.57915663310733
  H   -0.80222636989062     -1.35157775713581      1.57908449879680
  H   -1.80585444377111     -1.87105587723232      0.34996378584561
  N   -1.66860600375224      0.84397754299687      0.32237025030254
  O   -2.64181080606506      1.06978197534326     -0.37438635876017
  O   -1.40458982334080      1.32393455488061      1.42140086282553
  N   1.10125849031811      1.36297573983319     -0.81181341936633
  O   2.29598915448183      1.51304074104291     -1.02183442136988
  O   0.17938672052027      2.07026119260699     -1.19923794819676
  N   1.67885253283474     -0.90434489573476     -0.11896445217932
  O   1.82458197886552     -1.27790005540965     -1.27421552537728
  O   2.18988235223897     -1.36963344844576      0.89415633248688
