16
Coordinates from ORCA-job run
  C   -0.71247980849388     -0.35057631379034     -0.11349605969244
  C   0.67542477498245      0.17140415718449     -0.47415312034270
  F   -0.92821911197610     -1.42663615728115     -0.97007979720827
  H   0.67779379662102      0.60174002164362     -1.47292016257902
  N   -0.88513056521148     -0.59239339022121      1.23259405294230
  H   -1.85119708294782     -0.73936027960450      1.48855562567690
  H   -0.25922959660104     -1.30808873378922      1.57481925933362
  N   -1.76651954551325      0.66420365323953     -0.58706579328897
  O   -1.56636552535065      1.16612628684557     -1.68398313252021
  O   -2.74804057337735      0.81486024719586      0.12647006350853
  N   1.69896717875275     -0.91656205041389     -0.44214858636431
  O   1.61012066538434     -1.75471500789560      0.44952473177438
  O   2.56572248064178     -0.85051802084047     -1.30666854419411
  N   1.07825656870580      1.24350030613470      0.49956038939002
  O   0.33004229865777      2.21050466983331      0.50504237781894
  O   2.08185404572569      1.06551061175930      1.17394869574533
