16
Coordinates from ORCA-job run
  C   -0.71718587206152     -0.33341023787756     -0.13324166185423
  C   0.68746500657193      0.16721087532741     -0.45750671639850
  F   -0.93823610057168     -1.38728862639825     -1.01564736047428
  H   0.71639253514291      0.61790564043540     -1.44688273169732
  N   -0.92025167178610     -0.59865764229347      1.20423014883368
  H   -1.89371788076172     -0.73320835293380      1.43823166975179
  H   -0.31515944390447     -1.33402516371740      1.54235254687284
  N   -1.74179627422213      0.71199879908102     -0.60558073959355
  O   -2.73553805131425      0.86502458245190      0.09037753984094
  O   -1.50926481643493      1.23430236727700     -1.68643923234490
  N   1.68780733255360     -0.94180587940642     -0.42941093500410
  O   1.56598323039245     -1.79480059814705      0.44425553801958
  O   2.57104175456394     -0.87751314102085     -1.27717925696173
  N   1.09427743857056      1.21124942455398      0.54478311749681
  O   2.08479039335476      1.00170230112918      1.22934778845429
  O   0.36339241990664      2.19131565153891      0.55931028505868
