16
Coordinates from ORCA-job run
  C   -0.67766308978949     -0.29501205168191     -0.16321102383568
  C   0.71730149722788      0.25180317781201      0.13454506106267
  F   -0.83084227392712     -0.58331272806303     -1.46341574231218
  H   0.77218698568718      0.66939409584462      1.13807473166714
  N   -0.91384383432547     -1.45286375805782      0.60080608327969
  H   -0.87589874353972     -1.28069691019472      1.59722663654393
  H   -1.79058120020076     -1.88719522174821      0.33874392965188
  N   -1.70164485223031      0.82323314629121      0.16828010719165
  O   -2.63107965701191      0.99017559339413     -0.60098764149514
  O   -1.51980113433062      1.36536353104856      1.25500167057478
  N   1.12583954267586      1.33890496422353     -0.81875824422182
  O   2.32861114154419      1.49886342769479     -0.96665982533154
  O   0.21815716332543      2.00642493949825     -1.29889487221797
  N   1.69954033899515     -0.87163829000318      0.04302856953651
  O   1.92575557725939     -1.31030342449864     -1.07574041618281
  O   2.15296253864033     -1.26414049155959      1.11296097608891
