16
Coordinates from ORCA-job run
  C   -0.60701560301003     -0.64091642449551      0.12954352637856
  C   0.85013423414584     -0.17025904211616      0.11658798010065
  F   -0.62058155194121     -1.86413421028987     -0.45277309700998
  H   1.41379514022218     -0.80805487633908      0.79722806466404
  N   -1.11353942108254     -0.73543014015663      1.43082662690449
  H   -2.08175196121289     -1.03237238642849      1.43285776149154
  H   -0.97333893348539      0.11138375480151      1.96543977629225
  N   -1.48062525738629      0.26042915361045     -0.77078821213034
  O   -1.31631339078667      1.46156300525510     -0.58811100639608
  O   -2.30944069648906     -0.28039423107437     -1.48265323262472
  N   1.06844221850120      1.25076109359549      0.57683286500422
  O   1.62842488725219      2.01850811191670     -0.18669561404753
  O   0.69445287950742      1.47767875063017      1.72048433427205
  N   1.45999248824330     -0.31976012110361     -1.23821274913274
  O   0.75363651013619     -0.05348866084945     -2.20309866348311
  O   2.63372845738576     -0.67451377695623     -1.24646836028332
