16
Coordinates from ORCA-job run
  C   -0.58585554930627     -0.60605188339615      0.29379170399905
  C   0.85875510876454     -0.14909963330189      0.07168771783595
  F   -0.63281726182509     -1.91445015461890     -0.05487142930423
  H   1.48584119584032     -0.65558953919239      0.80516750675143
  N   -0.97903375009197     -0.46196306981862      1.62899709964875
  H   -0.80330470219826      0.46629045742542      1.98938126454870
  H   -1.93933211809841     -0.75123825631891      1.76883924413814
  N   -1.54396982734474      0.12007829796225     -0.67630547797075
  O   -1.38104966425539      1.33427092731202     -0.72611160148640
  O   -2.42195873742559     -0.53833532941874     -1.20721511558524
  N   1.09696523684633      1.33142288468236      0.24983890708888
  O   1.57939773634827      1.94824595152038     -0.68441420469906
  O   0.81973275079778      1.76025604545113      1.36277967878537
  N   1.35379200860507     -0.54040275972283     -1.28138091721232
  O   2.52895915477664     -0.88779207128739     -1.32718116783748
  O   0.56387841856677     -0.45464186727773     -2.21400320870078
