16
Coordinates from ORCA-job run
  C   -0.65401896334960     -0.39935218913585     -0.15839451518635
  C   0.70238291757512      0.23639059398591      0.13933971888400
  F   -0.80394033900594     -0.75939795312486     -1.43563184475472
  H   0.75247682469381      0.56329561945893      1.17384671542843
  N   -0.84868762416510     -1.51198852488016      0.67517062404851
  H   -1.67004212533497     -2.03574900296840      0.39856391050472
  H   -0.89237421098767     -1.25845655550748      1.65330361731518
  N   -1.68561209160487      0.74464173933676      0.10238438980103
  O   -1.71990668356313      1.11691092910099      1.27265408541515
  O   -2.35817712843109      1.15168435348307     -0.83198417292512
  N   0.95486256987739      1.44889820268460     -0.70795637154330
  O   0.94200269030319      1.30782294878409     -1.92442338205509
  O   1.14330982966350      2.48823179600211     -0.07707650879043
  N   1.78889429855504     -0.78111157625147     -0.05785035181293
  O   2.35331150399402     -1.13163701698502      0.97441106272055
  O   1.99551853178030     -1.17918336398323     -1.19535697704964
