18

C	0.0	0.0	0.0
C	-0.439755	0.257329	-1.461587
Cl	1.848299	0.0	0.0
H	0.33815	0.816775	-1.989794
C	-0.433609	1.144927	0.898274
H	0.012419	1.004903	1.886852
H	-0.105179	2.101351	0.495396
H	-1.521973	1.139914	0.972567
N	-0.54237	-1.211888	0.473842
H	-0.557855	-1.265992	1.481202
H	-0.109737	-2.027564	0.064753
N	-1.669335	0.918552	-1.529684
H	-1.96523	1.055055	-2.485312
H	-2.439272	0.471683	-1.010371
N	-0.421216	-1.097306	-2.260171
O	0.491299	-1.895989	-2.050026
O	-1.281445	-1.232071	-3.121904
Cl	-4.350649	0.0	0.0
