18

C	0.0	0.0	0.0
C	-0.126059	0.214349	-1.550216
Cl	1.892831	0.0	0.0
H	0.460748	-0.585828	-2.010014
C	-0.465394	1.178185	0.816892
H	-1.556596	1.234466	0.724483
H	-0.000495	2.09427	0.462902
H	-0.201501	1.004323	1.862734
N	-0.511379	-1.21659	0.484634
H	-0.697308	-1.868134	-0.264973
H	-1.404254	-1.033576	0.939669
N	0.300201	1.534549	-1.942923
H	-0.399007	1.928697	-2.563109
H	1.197047	1.48561	-2.406152
N	-1.502516	-0.074291	-2.131684
O	-1.830793	-1.255692	-2.121084
O	-2.140185	0.842357	-2.63386
Cl	-3.875918	0.0	0.0
