18

C	0.0	0.0	0.0
C	-0.506831	0.063856	-1.452316
Cl	1.807449	0.0	0.0
H	-1.57968	0.282529	-1.388527
C	-0.412629	1.218041	0.821078
H	-0.072938	1.061137	1.849226
H	-1.502944	1.280811	0.804437
H	0.024065	2.143776	0.451306
N	-0.468822	-1.242328	0.552457
H	-1.452294	-1.329952	0.290059
H	-0.445702	-1.15745	1.563903
N	-0.268682	-1.13495	-2.158406
H	-0.63983	-1.077298	-3.096739
H	0.720434	-1.343097	-2.195971
N	0.10376	1.289167	-2.159365
O	0.975116	1.08443	-3.004198
O	-0.339391	2.397303	-1.865929
Cl	-3.678578	0.0	0.0
