15
Coordinates from ORCA-job run
  C   -0.71505171761373      0.10990945623686      0.13012537501813
  C   0.65903818907063     -0.04565816976031      0.76112822388708
  Cl  -1.89539511332549      0.37436472241066      1.66417545552643
  H   0.61727119721303     -0.87989136744213      1.46692095099469
  H   0.86283797649550      0.84762337485026      1.35807364569308
  N   -0.78976854466969      1.24456788595628     -0.70444048932335
  H   -0.57518829251733      2.08342383157234     -0.18202046301874
  H   -1.70788808765677      1.35025354404784     -1.11808898759631
  N   -1.11639660073449     -1.05312099623381     -0.55966316926823
  H   -2.03487405342060     -0.94984772155123     -0.97312951243803
  H   -1.13399744535936     -1.84766203330920      0.06567076529486
  C   1.75073894329483     -0.26653976721007     -0.28147040887248
  H   2.72132574584432     -0.37364277650044      0.20923457456321
  H   1.80247592442030      0.57432445636801     -0.97308502978670
  H   1.55487187895885     -1.16710443943507     -0.86343093067363
