15
Coordinates from ORCA-job run
  C   -0.71823074935132      0.15967425144460      0.28018222782762
  C   0.68789976534314     -0.10588921800416      0.80028999790910
  Cl  -1.77208823450534      0.47378746294432      1.76736477119648
  H   0.67115232090559     -1.01569852971970      1.40986337244690
  H   0.94848490092130      0.72333441100029      1.45967752567552
  N   -0.76311186865883      1.38851607343396     -0.48209353597462
  H   -1.70357620085309      1.76288291351239     -0.49773614340914
  H   -0.48669205709554      1.17407371698331     -1.43395769335717
  N   -1.19583119980181     -0.95710133974153     -0.46982970623720
  H   -1.16374666922285     -1.81053333757751      0.07521798871571
  H   -2.14872999818784     -0.80317882547681     -0.77725744483317
  C   1.71125961003614     -0.22787765849183     -0.32413648268433
  H   1.43832185854810     -1.01660537992975     -1.02629625949983
  H   2.69582148847035     -0.46023781716210      0.08803367444891
  H   1.79806703345200      0.71385327678452     -0.86932229222476
