15
Coordinates from ORCA-job run
  C   -0.66777110131983      0.22875317050858     -0.02561197676973
  C   0.83221092034154      0.47225526869573     -0.05889715900388
  Cl  -1.08025667291358     -0.03945857196975      1.86996605164909
  H   1.05755560457976      1.29369417259994      0.62643061877364
  H   1.04291868506765      0.81310121409018     -1.07734415144144
  N   -1.37656145659008      1.36071754492573     -0.48102727569715
  H   -2.37595935014293      1.24877765734199     -0.35933712714714
  H   -1.08760438835100      2.18601721784773      0.02693573009974
  N   -1.04568150524738     -0.92360091362539     -0.74396741506026
  H   -0.68207731966200     -1.75927823171512     -0.30755010819953
  H   -2.05202307141110     -1.00858435611563     -0.81427712845597
  C   1.68730838109807     -0.74124663002740      0.27560011986759
  H   2.74307766317478     -0.46325504970328      0.28516176598555
  H   1.56740220123249     -1.52586777620490     -0.47435840325585
  H   1.43746141014363     -1.14402471664842      1.25827645865533
