15
Coordinates from ORCA-job run
  C   -0.72538797886174      0.23772839189387      0.11395796627290
  C   0.77821205998648      0.44375842792067     -0.08336595760644
  Cl  -0.98288696498834      0.01778225422371      1.94616060356126
  H   1.08726998288549      1.31860332662770      0.49780889351754
  H   0.90246469523658      0.69726164107430     -1.14218267505732
  N   -1.43240578067159      1.35289783891651     -0.39683214231724
  H   -2.42426400525607      1.23343076289342     -0.23185084978378
  H   -1.11593810874348      2.21985309597945      0.01685619879485
  N   -1.31176339673497     -0.93318339492247     -0.48391145456526
  H   -0.90875698216148     -1.77964127680039     -0.10614526017514
  H   -1.15864484411942     -0.89468738763802     -1.48540759771123
  C   1.64943568440038     -0.75153878225124      0.27433921471808
  H   1.41230191161980     -1.61721339971758     -0.34810040419842
  H   1.52960017074304     -1.03389931991366      1.32079436881587
  H   2.70176355666532     -0.51215217828625      0.10787909573433
