15
Coordinates from ORCA-job run
  C   -0.76485869364658      0.00553046800921      0.25632171072912
  C   0.60489767769006     -0.66098779015139      0.11360923320157
  Cl  -0.88208571506893      0.69403209264260      1.92967547809112
  H   0.60796425689912     -1.16039183019547     -0.86535493173586
  H   0.67262162308314     -1.44274114085049      0.87380178693945
  N   -1.02116632575003      1.12875584520526     -0.63060390137584
  H   -0.39627447322414      1.90223430228632     -0.43796241138030
  H   -0.87961876296027      0.82719874831482     -1.58955939947401
  N   -1.77935142211678     -1.00001554024316      0.13317179753380
  H   -1.60825582860376     -1.57169100188993     -0.68530249570915
  H   -2.68157396299199     -0.54703585663979      0.04341619164232
  C   1.79770335998153      0.28019665561158      0.19934200367931
  H   1.82039040779441      0.80214294375794      1.15671609469349
  H   2.72840715364416     -0.28244586356472      0.10189254698688
  H   1.78120070527006      1.02421796770720     -0.60016370382188
