13
Coordinates from ORCA-job run
  C   -0.70692158872098      0.08271554207550      0.03828040403167
  C   0.66621199515869      0.69427616469947     -0.15704662784217
  F   -1.33654137903407     -0.07084034841975     -1.14362745231466
  H   0.57402026035510      1.71194556664175     -0.53354931115458
  H   1.22428164981709      0.67547381952647      0.77906167859764
  C   -1.50497002327215      0.91725619491845      0.94161469518522
  N   -2.14558250003371      1.60569111813838      1.64612391213505
  N   -0.59665080776449     -1.30041061979719      0.71587532769959
  O   -1.19477410021417     -2.22008796274902      0.19494779089720
  O   0.06473819230683     -1.29593147007897      1.74298145170824
  N   1.45077094832650     -0.07770047323572     -1.16946415120139
  O   1.35089124631490     -1.29972824669644     -1.12769292616524
  O   2.15352610676045      0.57734071497706     -1.92850479157656
