13
Coordinates from ORCA-job run
  C   -0.64442369409184     -0.09639102221293      0.05054182998273
  C   0.81901108573258     -0.22623046341776     -0.31589565656584
  F   -1.42772005530707     -0.15427404827181     -1.05575272429179
  H   1.44377020566453     -0.32271061472378      0.57278526235319
  H   0.96004574623260     -1.09874549262988     -0.95190712855404
  C   -0.94644838785932      1.08667631609874      0.85457964522694
  N   -1.14900966913449      2.02359135486591      1.53342878070094
  N   -1.03110383782614     -1.34566329162481      0.87471175816946
  O   -1.89641179263910     -1.20153605689842      1.72649866239482
  O   -0.48254784273986     -2.38798336773982      0.53722798665489
  N   1.32040260762839      0.96045356044226     -1.08223286079870
  O   0.52340620085784      1.84413329413340     -1.37969912884377
  O   2.51102943348188      0.91967983197890     -1.36328642642883
