15

C	0.0	0.0	0.0
C	-0.216606	-0.112504	-1.54131
Cl	1.836347	0.0	0.0
H	0.318953	-0.981471	-1.911785
H	-0.31921	-0.958396	0.40529
N	-0.563671	1.042084	0.736141
H	-1.604454	0.7605	0.638682
H	-0.404533	1.916519	0.252205
N	0.367915	1.036967	-2.305541
O	0.248015	2.172944	-1.858798
O	0.92486	0.748341	-3.365584
N	-1.615907	-0.289787	-2.082321
O	-2.178443	0.688928	-2.55035
O	-1.982892	-1.453782	-2.150443
F	-2.688785	0.0	0.0
