15

C	0.0	0.0	0.0
C	-0.428282	0.295497	-1.450421
Cl	1.780246	0.0	0.0
H	0.38134	0.028467	-2.128217
H	-0.298864	-1.032787	0.189727
N	-0.511662	0.983069	0.897623
H	-0.248624	0.704463	1.837219
H	-1.548905	0.79174	0.756294
N	-0.613495	1.76444	-1.683584
O	-1.661411	2.314071	-1.393321
O	0.39091	2.318254	-2.145894
N	-1.570526	-0.529913	-1.971557
O	-1.459193	-1.729551	-1.756822
O	-2.336643	-0.006404	-2.764683
F	-2.626423	0.0	0.0
