15

C	0.0	0.0	0.0
C	-0.258546	-0.205799	-1.499741
Cl	1.82435	0.0	0.0
H	0.357292	0.495496	-2.056214
H	-0.306994	-0.884598	0.554839
N	-0.508863	1.257801	0.417028
H	-1.550479	1.013409	0.361258
H	-0.260316	1.371969	1.395316
N	-1.639607	-0.02722	-2.098906
O	-2.240963	-1.028554	-2.45565
O	-1.930187	1.132275	-2.345685
N	0.187925	-1.56853	-1.934258
O	0.672145	-1.639558	-3.063537
O	0.022268	-2.511687	-1.169908
F	-2.615979	0.0	0.0
