15

C	0.0	0.0	0.0
C	-0.257341	-0.162964	-1.505902
Cl	1.824278	0.0	0.0
H	0.350706	0.561646	-2.041254
H	-0.309372	-0.899883	0.528657
N	-0.511364	1.245969	0.451203
H	-0.268286	1.332875	1.433789
H	-1.553257	0.999788	0.385256
N	-1.641469	0.01804	-2.099101
O	-1.941438	1.179723	-2.32395
O	-2.237973	-0.980106	-2.47246
N	0.200943	-1.508414	-1.979291
O	0.694796	-1.542132	-3.105992
O	0.034595	-2.475861	-1.246318
F	-2.620072	0.0	0.0
