19

C	-0.470242	0.023549	-1.457583
C	0.0	0.0	0.0
F	-1.794431	0.560722	-1.509508
H	1.090588	0.0	0.0
C	0.402297	0.971402	-2.254191
H	0.348737	1.977424	-1.837438
H	0.032497	1.011366	-3.283699
H	1.439373	0.634541	-2.225412
N	-0.439365	-1.272871	-2.035191
H	-0.600437	-1.213282	-3.031705
H	-1.145511	-1.859244	-1.610312
N	-0.442576	-1.247245	0.700666
O	0.339838	-1.780099	1.477906
O	-1.600006	-1.637067	0.501666
C	-0.523125	1.156872	0.836568
H	-0.079048	1.104486	1.832787
H	-0.223203	2.103523	0.386431
H	-1.611142	1.122612	0.905573
Br	3.560695	0.0	0.0
