19

C	-0.377828	0.02494	-1.488979
C	0.0	0.0	0.0
F	-0.181063	-1.30457	-1.96196
H	1.092222	0.0	0.0
C	-1.819258	0.35036	-1.81954
H	-2.059266	1.371595	-1.52548
H	-2.486534	-0.345108	-1.311838
H	-1.961109	0.251577	-2.899657
N	0.517263	0.932995	-2.106035
H	1.481699	0.717587	-1.852938
H	0.411852	0.910476	-3.112443
N	-0.507036	-1.259397	0.612661
O	-1.718978	-1.313018	0.855669
O	0.286179	-2.166804	0.831165
C	-0.50034	1.197018	0.782691
H	-0.131045	2.099862	0.294809
H	-1.588674	1.221331	0.839643
H	-0.090727	1.165697	1.794818
Br	3.564379	0.0	0.0
