19

C	-0.512076	0.012128	-1.457666
C	0.0	0.0	0.0
F	-0.594084	1.35829	-1.83658
H	1.095293	0.0	0.0
C	0.446843	-0.630556	-2.438947
H	1.436372	-0.180478	-2.338265
H	0.06434	-0.48232	-3.454227
H	0.537678	-1.694777	-2.229765
N	-1.888835	-0.457305	-1.507942
H	-1.884002	-1.468732	-1.448344
H	-2.259752	-0.20237	-2.417643
N	-0.393623	-1.298702	0.638615
O	-0.761974	-1.29541	1.811456
O	-0.299847	-2.324746	-0.042312
C	-0.518727	1.16234	0.816927
H	-1.61001	1.183925	0.814791
H	-0.135142	2.084422	0.383551
H	-0.155551	1.083963	1.840009
Br	3.525419	0.0	0.0
