19

C	-0.41521	0.03042	-1.471618
C	0.0	0.0	0.0
F	-1.820464	-0.122007	-1.538735
H	1.092767	0.0	0.0
C	-0.117744	1.383552	-2.094778
H	-0.713482	2.175471	-1.63927
H	-0.377807	1.336169	-3.157132
H	0.946251	1.608158	-1.991601
N	0.182413	-1.06268	-2.16895
H	1.053451	-1.345891	-1.733796
H	0.355881	-0.818075	-3.134946
N	-0.442018	-1.308586	0.58253
O	0.260666	-2.293121	0.365693
O	-1.487823	-1.326449	1.234998
C	-0.54473	1.139256	0.832514
H	-0.038086	2.06331	0.550556
H	-1.622534	1.246633	0.707595
H	-0.331246	0.956433	1.88646
Br	3.507343	0.0	0.0
