19

C	-0.472979	-0.014603	-1.474595
C	0.0	0.0	0.0
F	-0.055774	1.21748	-1.974295
H	1.090477	0.0	0.0
C	0.214229	-1.100617	-2.268896
H	-0.146973	-2.090112	-1.982458
H	1.289442	-1.056873	-2.082467
H	-0.000952	-0.934387	-3.325156
N	-1.902661	-0.043558	-1.690048
H	-2.324863	0.726541	-1.182083
H	-2.286619	-0.899176	-1.31005
N	-0.45695	-1.27931	0.6204
O	-1.59487	-1.305639	1.106992
O	0.295514	-2.249502	0.575661
C	-0.508681	1.180587	0.798812
H	-1.597268	1.223005	0.843072
H	-0.117717	2.090097	0.34368
H	-0.125201	1.122068	1.819232
Br	3.555866	0.0	0.0
