19

C	-0.398416	0.0265	-1.492166
C	0.0	0.0	0.0
F	-0.252655	-1.289873	-1.943927
H	1.091857	0.0	0.0
C	-1.831097	0.424551	-1.777739
H	-2.511787	-0.211889	-1.212828
H	-2.018635	1.466644	-1.510428
H	-2.005641	0.295594	-2.846917
N	0.516524	0.825651	-2.256207
H	0.307509	1.809211	-2.149058
H	1.471572	0.660633	-1.936325
N	-0.518728	-1.240321	0.639962
O	-1.722211	-1.259948	0.929653
O	0.254314	-2.173424	0.821456
C	-0.472379	1.211096	0.781575
H	-1.558959	1.26134	0.848147
H	-0.086518	2.11569	0.30616
H	-0.054755	1.17474	1.790057
Br	3.546827	0.0	0.0
