19

C	-0.484871	-0.021189	-1.453543
C	0.0	0.0	0.0
F	-1.922208	-0.126162	-1.390946
H	1.090602	0.0	0.0
C	-0.178729	1.289092	-2.150595
H	-0.767237	2.108749	-1.739292
H	-0.417713	1.187778	-3.212785
H	0.888517	1.496624	-2.049719
N	0.061163	-1.086024	-2.201653
H	-0.444163	-1.202352	-3.069029
H	0.104445	-1.948409	-1.678561
N	-0.476723	-1.245165	0.688625
O	-1.304281	-1.140246	1.593852
O	-0.020516	-2.323982	0.303809
C	-0.474384	1.217096	0.769888
H	-0.217576	1.104026	1.822551
H	0.05711	2.093105	0.396835
H	-1.551606	1.362505	0.682798
Br	3.505923	0.0	0.0
