13

C	0.0	0.0	0.0
C	-0.471792	-0.242485	-1.424923
F	1.359734	0.0	0.0
H	-1.584791	-0.262015	-1.283774
H	-0.161811	0.612013	-2.029196
N	-0.404615	1.388227	0.473059
O	-0.504133	1.546774	1.682061
O	-0.449292	2.269246	-0.376485
C	-0.474804	-0.999689	0.961137
N	-0.575605	-1.881818	1.731229
C	0.09002	-1.469722	-1.959778
N	0.515993	-2.459094	-2.430085
F	-2.477395	0.0	0.0
