13

C	0.0	0.0	0.0
C	-0.307385	0.05734	-1.503574
F	1.355446	0.0	0.0
H	-0.114637	-0.95322	-1.878395
H	0.46226	0.706937	-1.928982
N	-0.368137	1.270721	0.724582
O	-0.383067	1.213887	1.947645
O	-0.458094	2.286425	0.047192
C	-0.490877	-1.178412	0.70862
N	-0.578952	-2.2363	1.216855
C	-1.601547	0.505937	-2.01326
N	-2.39746	0.886275	-2.792017
F	-2.251303	0.0	0.0
