13

C	0.0	0.0	0.0
C	-0.455168	-0.23021	-1.4343
F	1.35985	0.0	0.0
H	-1.565868	-0.25125	-1.318313
H	-0.130849	0.627777	-2.025786
N	-0.403427	1.385507	0.48014
O	-0.502261	1.537439	1.689874
O	-0.446332	2.271641	-0.364173
C	-0.480964	-1.006113	0.948193
N	-0.582844	-1.897238	1.707501
C	0.117822	-1.452699	-1.9702
N	0.55972	-2.436583	-2.437036
F	-2.457732	0.0	0.0
