13

C	0.0	0.0	0.0
C	-0.333333	0.007701	-1.497776
F	1.355096	0.0	0.0
H	-0.293344	-1.037436	-1.822851
H	0.498798	0.529419	-1.983851
N	-0.364366	1.305737	0.676356
O	-0.49689	1.292876	1.892792
O	-0.34095	2.299542	-0.039681
C	-0.512552	-1.135732	0.758228
N	-0.550035	-2.135544	1.379625
C	-1.576575	0.59875	-1.987989
N	-2.352624	1.089505	-2.725792
F	-2.260093	0.0	0.0
