15
Coordinates from ORCA-job run
  C   -0.80632217752567      0.34202647691671      0.01287392482312
  C   0.68662454597276     -0.01339761385091     -0.17536111536452
  Br  -1.86661934968334     -1.38351519941378      0.09184022409516
  H   1.19462785773852      0.95958187448229     -0.16872956572513
  N   -1.23829061139915      1.21860166401884     -1.00764723352786
  H   -2.19376055179220      1.52461983145526     -0.87194891803610
  H   -1.14017394613225      0.79983816642146     -1.92610424866382
  C   -1.00016671260281      0.96418894308441      1.32242513143315
  N   -1.12667887620405      1.48079979567307      2.37047846637443
  C   0.87025006115995     -0.58853828420784     -1.50864814044083
  N   1.01073754457969     -1.03919282183418     -2.58419134311906
  C   1.28516214550175     -0.90603201551617      0.91076890460313
  H   2.36207333521542     -0.98869298860091      0.75487220265586
  H   0.85065596325971     -1.90420368645971      0.88410591996625
  H   1.11288077191167     -0.46708414216856      1.89526579092622
