15
Coordinates from ORCA-job run
  C   -0.93336129885139      0.02395866278122     -0.09260476964472
  C   0.61587774942531      0.16736486032365     -0.02093375339408
  Br  -1.37672774897095     -1.73782316928051     -0.84533712886886
  H   0.77878678707475      1.15747069625749      0.42811883477800
  N   -1.61428652951605      1.01130943120249     -0.88515352418970
  H   -1.51195377871147      1.93319371319820     -0.47440053619003
  H   -1.26016088239091      1.01416096949751     -1.83553066435554
  C   -1.45674919925639      0.06982396406397      1.27558632933464
  N   -1.82617741342838      0.15347694170330      2.38814621587637
  C   1.14179502553544      0.22242234081395     -1.38506101751594
  N   1.54981243988268      0.27468532912357     -2.48520524086512
  C   1.33630135046398     -0.88287831000512      0.82451064729667
  H   0.90707876544581     -0.91681899016307      1.82766998901108
  H   1.25720459088541     -1.86933501477077      0.36947622433051
  H   2.39256014241218     -0.62201142474587      0.91071839439671
