15
Coordinates from ORCA-job run
  C   -0.92712210977083      0.10841221784339     -0.09420466438358
  C   0.62692636740992      0.12022785852084      0.00495676234896
  Br  -1.49149691722315     -1.49935368053392     -1.07624339308752
  H   0.85788675979720      1.02700133087436      0.58205729799820
  N   -1.51811945266880      1.24126839401497     -0.75304682923963
  H   -1.35281330148846      2.09018504453962     -0.22274647690167
  H   -1.14882716958757      1.34210758092468     -1.69229986222301
  C   -1.46773309498926      0.01415846012275      1.26464968923879
  N   -1.84649290219958     -0.02077838661368      2.37667070035098
  C   1.17795389528333      0.31300614657096     -1.33651963890452
  N   1.60782540725328      0.47774479911028     -2.41709550170429
  C   1.25166096458987     -1.08452535742725      0.70875973218155
  H   2.32348081906196     -0.92025538996600      0.83321879574290
  H   1.10367618525346     -1.99406766220670      0.12798823107068
  H   0.80619454927864     -1.21513135577430      1.69685515751215
