15
Coordinates from ORCA-job run
  C   -0.97859658410860      0.07961731292020     -0.27842436991993
  C   0.50648960513779     -0.31205854252045     -0.52487163717599
  Br  -2.04192975687795     -0.71352840475116     -1.73666985883973
  H   0.76119100455137      0.07337062553889     -1.51976314653330
  N   -1.25156224943591      1.48831279883495     -0.26210648155998
  H   -0.91185183939758      1.92628420409333      0.58528299327264
  H   -0.87387991995735      1.94835954465963     -1.08178730776705
  C   -1.43387135278994     -0.50519850648942      0.98463148503124
  N   -1.74409251576930     -0.94528847657287      2.02947704335738
  C   0.67042292327928     -1.76569768061685     -0.54825817982360
  N   0.84067545842929     -2.92759308844781     -0.52778610545323
  C   1.43529662561204      0.30186409193447      0.52784157281913
  H   2.46668584892736      0.01028516025947      0.32354542575214
  H   1.38124727937602      1.39099662863505      0.50139216010107
  H   1.17477547302347     -0.04972566747743      1.52849640673921
