13
Coordinates from ORCA-job run
  C   0.50192699318583     -0.06777892913021     -0.83361863695378
  C   -0.67756801914876     -0.05097518731729      0.12770738924105
  F   1.03970136436396      1.16941822499992     -0.93301798814156
  H   -1.04225009631148     -1.07846870393550      0.20416823026885
  H   0.24923961923791     -0.44573863423817     -1.82570260130601
  N   1.53340306168109     -1.01264300081317     -0.26189069520329
  O   1.15160610967809     -2.17513393957761     -0.18768999675227
  O   2.61852785286119     -0.56068378455856      0.06039329144368
  C   -1.74731111726450      0.78728764566737     -0.45059288600295
  N   -2.59969663298668      1.47761049995750     -0.87086038294840
  N   -0.19459820097984      0.36899853025595      1.42761869998156
  H   0.07439859204360      1.34502684736194      1.40944101007655
  H   -0.90737952636040      0.24308043132782      2.13404456629656
