13
Coordinates from ORCA-job run
  C   0.58899323961582     -0.71133735152694     -0.07292287279470
  C   -0.60121409625875      0.23158714949850      0.04147347992890
  F   0.17592545011243     -1.83951189255975     -0.70973842905136
  H   -0.91655034313448      0.46580955546303     -0.98624149676050
  H   1.02848754830888     -0.95986821829943      0.89163917833808
  N   1.65485285722032     -0.06502418789321     -0.91223293275008
  O   2.65936497667059      0.31779151457356     -0.31901703467110
  O   1.40784594335456      0.05005988613283     -2.10807413913393
  C   -0.17951982967338      1.47688583613016      0.68807695594267
  N   0.13837053077263      2.48081314213545      1.20605086494865
  N   -1.60428332328255     -0.44188825818993      0.85602797584639
  H   -2.00421826987642     -1.20519818686746      0.32404957139904
  H   -2.34805468382967      0.19988101140320      1.09990887875792
