19

C	-0.140787	0.021727	-1.525168
C	0.0	0.0	0.0
Cl	-1.891915	0.081065	-2.06615
H	1.098995	0.0	0.0
C	0.583156	1.24699	-2.061901
H	0.650062	1.202672	-3.152062
H	1.581953	1.209954	-1.610747
H	0.076842	2.173286	-1.785781
C	0.505774	-1.233767	-2.087461
H	1.521352	-1.24028	-1.675672
H	-0.026812	-2.132436	-1.771076
H	0.531949	-1.203123	-3.179878
C	-0.531783	-1.22018	0.578557
N	-0.957287	-2.197244	1.077208
C	-0.521728	1.228533	0.73759
H	-1.576596	1.424835	0.518865
H	0.073294	2.102072	0.466331
H	-0.410769	1.082694	1.815086
F	2.643601	0.0	0.0
