14

C	-0.421078	0.050624	-1.471911
C	0.0	0.0	0.0
F	-0.077127	-1.178413	-2.029646
H	1.093881	0.0	0.0
H	-0.363269	-0.927989	0.448556
C	-1.887382	0.178366	-1.619378
N	-3.05101	0.277543	-1.746265
C	0.314402	1.142665	-2.221097
H	0.074102	1.088131	-3.284666
H	0.032783	2.124903	-1.836265
H	1.385253	0.990003	-2.063419
C	-0.506618	1.150903	0.734487
N	-0.915382	2.090234	1.308399
Br	3.493836	0.0	0.0
