14

C	-0.43084	0.050972	-1.466463
C	0.0	0.0	0.0
F	-0.184243	-1.190545	-2.042898
H	1.09393	0.0	0.0
H	-0.318849	0.919791	0.500751
C	-1.884291	0.296717	-1.592528
N	-3.031819	0.526147	-1.691175
C	0.372917	1.09356	-2.219674
H	0.15689	2.092613	-1.834088
H	1.433196	0.875954	-2.068776
H	0.122767	1.055673	-3.281364
C	-0.559302	-1.147391	0.700261
N	-1.044448	-2.053395	1.266278
Br	3.503526	0.0	0.0
