14

C	-0.542267	-0.030204	-1.429061
C	0.0	0.0	0.0
F	-0.051831	1.098836	-2.074108
H	1.093064	0.0	0.0
H	-0.324042	0.945383	0.448049
C	-0.070219	-1.218971	-2.166234
N	0.202252	-2.177718	-2.786269
C	-2.059903	0.030353	-1.49582
H	-2.398998	0.925318	-0.969059
H	-2.503629	-0.851317	-1.031456
H	-2.378331	0.087809	-2.538179
C	-0.52891	-1.110104	0.781129
N	-0.990175	-2.003444	1.387847
Br	3.477552	0.0	0.0
