15

C	-0.562135	0.029321	-1.391909
C	0.0	0.0	0.0
F	-1.872281	-0.285193	-1.422286
H	1.091238	0.0	0.0
H	-0.32906	-0.957458	0.413117
N	-0.410726	1.37511	-2.068706
O	-1.241825	1.643679	-2.92919
O	0.538877	2.059858	-1.717246
N	0.138672	-0.977955	-2.290679
O	0.834948	-0.560765	-3.206451
O	-0.075343	-2.145368	-1.988328
N	-0.576052	1.126073	0.737052
H	-0.888732	0.812385	1.644583
H	0.162935	1.802271	0.884952
Br	3.538126	0.0	0.0
