15

C	-0.564069	-0.033765	-1.391186
C	0.0	0.0	0.0
F	-1.871172	0.292651	-1.42136
H	1.091236	0.0	0.0
H	-0.328567	0.958493	0.410833
N	0.141415	0.961445	-2.2999
O	0.803823	0.533855	-3.235437
O	-0.044257	2.132265	-1.991674
N	-0.424703	-1.386678	-2.055476
O	-1.272953	-1.669658	-2.893501
O	0.535544	-2.062797	-1.716447
N	-0.576381	-1.123913	0.740777
H	-0.883771	-0.807935	1.649378
H	0.161792	-1.801699	0.886834
Br	3.538007	0.0	0.0
