15

C	-0.524732	0.012027	-1.411008
C	0.0	0.0	0.0
F	-1.87647	0.130518	-1.440644
H	1.08912	0.0	0.0
H	-0.337474	0.932954	0.459198
N	-0.011842	1.139522	-2.282746
O	0.529215	2.080046	-1.716828
O	-0.266691	1.039107	-3.479483
N	-0.168821	-1.267477	-2.136133
O	-1.053654	-2.109116	-2.24186
O	0.995091	-1.356053	-2.497172
N	-0.478807	-1.148705	0.750274
H	-1.429023	-1.396585	0.505676
H	0.130337	-1.941305	0.595269
Br	3.565618	0.0	0.0
