15

C	-0.578449	-0.102173	-1.383673
C	0.0	0.0	0.0
F	-1.916657	0.028393	-1.384242
H	1.091419	0.0	0.0
H	-0.339106	0.972609	0.371203
N	-0.025087	0.984897	-2.290014
O	0.965506	0.713011	-2.953103
O	-0.616172	2.05636	-2.231628
N	-0.27812	-1.407075	-2.097833
O	0.577309	-2.134803	-1.617255
O	-0.93657	-1.606915	-3.114407
N	-0.552343	-1.098792	0.795503
H	-0.893702	-0.742141	1.676082
H	0.205091	-1.740248	0.992792
Br	3.538095	0.0	0.0
