15

C	-0.499081	-0.01549	-1.417583
C	0.0	0.0	0.0
F	0.14718	-0.899406	-2.183725
H	1.092451	0.0	0.0
H	-0.316685	-0.949219	0.450802
N	-1.98458	-0.366394	-1.526459
O	-2.383749	-0.668113	-2.644542
O	-2.654885	-0.328035	-0.499848
N	-0.393367	1.353437	-2.070481
O	-1.401379	2.049661	-2.070217
O	0.708553	1.634886	-2.512868
N	-0.46175	1.191806	0.687959
H	-1.302839	1.013987	1.215716
H	0.272191	1.514639	1.302875
Br	3.529178	0.0	0.0
