15

C	-0.489907	-0.017232	-1.414636
C	0.0	0.0	0.0
F	-0.019404	-1.043375	-2.119723
H	1.093893	0.0	0.0
H	-0.365847	0.90716	0.474927
N	-2.015945	-0.102861	-1.439859
O	-2.590869	0.821531	-0.875433
O	-2.527036	-1.061159	-1.99514
N	-0.194408	1.256319	-2.194557
O	0.05102	2.266544	-1.549627
O	-0.28816	1.161264	-3.415176
N	-0.560355	-1.195755	0.641602
H	0.139507	-1.92651	0.593068
H	-0.704994	-0.998656	1.621671
Br	3.533552	0.0	0.0
