18

C	-0.323543	0.042215	-1.48784
C	0.0	0.0	0.0
Cl	-1.998784	0.530579	-1.870365
H	1.091056	0.0	0.0
N	0.580735	0.959138	-2.0768
H	0.503127	0.958667	-3.08373
H	1.536333	0.769644	-1.766069
N	-0.113629	-1.360877	-2.139527
O	-0.544874	-1.51452	-3.277461
O	0.596494	-2.146564	-1.525586
N	-0.539835	-1.184719	0.708357
O	-0.03246	-1.446616	1.79256
O	-1.503868	-1.772364	0.218165
C	-0.469973	1.238802	0.741774
H	0.010236	1.254917	1.720742
H	-1.555396	1.245812	0.860308
H	-0.1615	2.121107	0.183416
Cl	3.292441	0.0	0.0
