18

C	-0.472193	0.088167	-1.453286
C	0.0	0.0	0.0
Cl	-2.234071	0.306011	-1.521794
H	1.094332	0.0	0.0
N	0.165357	1.149552	-2.183699
H	1.166121	1.088278	-1.999141
H	-0.181638	2.03941	-1.855622
N	-0.09995	-1.175056	-2.267005
O	1.105773	-1.305812	-2.408705
O	-0.976202	-1.883808	-2.730684
N	-0.458536	-1.252507	0.675546
O	-0.837528	-1.178583	1.842668
O	-0.392907	-2.297202	0.032534
C	-0.399358	1.211831	0.823756
H	-0.047869	2.117407	0.328211
H	-1.473792	1.272155	0.990172
H	0.106983	1.153031	1.784655
Cl	3.235228	0.0	0.0
