18

C	-0.432153	0.013533	-1.468088
C	0.0	0.0	0.0
Cl	0.202015	1.495746	-2.223076
H	1.091342	0.0	0.0
N	0.047436	-1.092577	-2.181601
H	-0.133574	-0.994247	-3.170868
H	-0.379682	-1.939745	-1.831714
N	-1.997415	0.168932	-1.630936
O	-2.560915	1.049513	-0.992646
O	-2.541428	-0.594124	-2.4211
N	-0.449235	-1.268111	0.654253
O	-1.329904	-1.938742	0.098427
O	0.043994	-1.538941	1.741332
C	-0.437699	1.137022	0.916251
H	0.171689	1.069532	1.817954
H	-0.237528	2.094158	0.43826
H	-1.495565	1.081412	1.17206
Cl	3.280891	0.0	0.0
