18

C	-0.546192	-0.018864	-1.432349
C	0.0	0.0	0.0
Cl	0.416874	-1.035504	-2.51758
H	1.088432	0.0	0.0
N	-1.892619	-0.418114	-1.490771
H	-2.277761	-0.25693	-2.411516
H	-2.448689	0.062803	-0.796209
N	-0.340925	1.439141	-1.982361
O	0.793745	1.88458	-1.995562
O	-1.360866	2.028421	-2.341006
N	-0.463554	-1.277747	0.6349
O	-1.493963	-1.23448	1.31423
O	0.19553	-2.287581	0.418124
C	-0.481895	1.189924	0.812397
H	-0.173637	1.045947	1.848266
H	0.017086	2.087355	0.446208
H	-1.564082	1.330847	0.796461
Cl	3.334186	0.0	0.0
