18

C	-0.568519	-0.023643	-1.424632
C	0.0	0.0	0.0
Cl	0.39647	-0.996855	-2.540762
H	1.088526	0.0	0.0
N	-1.904079	-0.466058	-1.453737
H	-2.461213	0.014384	-0.760199
H	-2.311463	-0.337284	-2.369835
N	-0.430915	1.451158	-1.947892
O	0.691541	1.903094	-2.099857
O	-1.489964	2.055468	-2.123685
N	-0.45254	-1.278276	0.641902
O	-1.42131	-1.224007	1.406788
O	0.151912	-2.300261	0.343539
C	-0.468984	1.193049	0.815307
H	-0.159662	1.044742	1.849773
H	-1.548847	1.349615	0.80023
H	0.040448	2.083995	0.44749
Cl	3.299427	0.0	0.0
