18

C	-0.361182	0.265703	-1.471981
C	0.0	0.0	0.0
Cl	-2.050286	0.798483	-1.659717
H	1.093065	0.0	0.0
N	0.502453	1.22178	-2.087814
H	0.289991	2.14225	-1.725157
H	1.467008	0.984591	-1.845626
N	-0.197272	-1.048162	-2.272734
O	-1.154273	-1.809563	-2.327888
O	0.912315	-1.229109	-2.750884
N	-0.49545	-1.322086	0.482606
O	0.117759	-2.31655	0.100655
O	-1.476253	-1.340904	1.230774
C	-0.440965	1.106276	0.935576
H	-0.05129	2.058905	0.572361
H	-1.522158	1.160553	1.039449
H	0.006185	0.925202	1.914279
Cl	3.264932	0.0	0.0
