17

C	-0.532548	-0.0119	-1.430953
C	0.0	0.0	0.0
Br	0.054284	1.688669	-2.23936
H	1.089125	0.0	0.0
C	0.111496	-1.147355	-2.226322
H	1.194632	-1.094431	-2.094404
H	-0.265664	-2.101799	-1.860472
H	-0.143939	-1.041981	-3.281464
C	-1.990241	-0.030636	-1.543577
N	-3.149938	-0.054617	-1.736482
N	-0.460579	-1.183175	0.801145
O	-1.205893	-2.009595	0.275839
O	-0.040164	-1.221151	1.951447
N	-0.51014	1.178483	0.778268
O	-1.713507	1.15901	1.044192
O	0.287243	2.054977	1.07989
Cl	3.188175	0.0	0.0
