19

C	-0.372077	0.01274	-1.49448
C	0.0	0.0	0.0
Cl	-0.241456	-1.674343	-2.185521
H	1.095969	0.0	0.0
N	-1.748313	0.431717	-1.683036
H	-1.811909	1.294156	-1.14568
H	-1.892093	0.656057	-2.663439
C	0.683806	0.845779	-2.21762
H	0.596143	0.749111	-3.303757
H	0.528027	1.892846	-1.938536
H	1.671221	0.540702	-1.852921
C	-0.623471	-1.113578	0.814564
H	-0.258512	-2.089164	0.495692
H	-0.346996	-0.984003	1.866108
H	-1.716881	-1.106869	0.72656
N	-0.38871	1.340646	0.521553
H	0.469313	1.760521	0.862759
H	-1.00875	1.231166	1.316093
F	2.740061	0.0	0.0
