19

C	-0.361333	0.081285	-1.484546
C	0.0	0.0	0.0
Cl	0.126336	-1.562183	-2.269426
H	1.094877	0.0	0.0
N	-1.749518	0.317657	-1.727212
H	-2.293882	-0.466196	-1.386193
H	-1.914117	0.39646	-2.724619
C	0.537923	1.105984	-2.1464
H	0.473873	1.052076	-3.237691
H	0.230239	2.092445	-1.797682
H	1.55535	0.900312	-1.79641
C	-0.589055	-1.175159	0.763422
H	-0.281034	-2.134169	0.345567
H	-1.689514	-1.140929	0.796018
H	-0.230167	-1.127889	1.795767
N	-0.362518	1.300009	0.586197
H	0.315047	1.490473	1.315257
H	-1.289915	1.268919	0.995634
F	2.720876	0.0	0.0
