19

C	-0.272472	-0.072463	-1.488276
C	0.0	0.0	0.0
Cl	-2.165123	-0.727592	-1.763004
H	1.097118	0.0	0.0
N	-0.164484	1.18101	-2.066389
H	-0.472805	1.211461	-3.025927
H	-0.591882	1.876727	-1.466509
C	0.600342	-1.099747	-2.170973
H	1.609983	-0.883741	-1.796343
H	0.548149	-1.000956	-3.258829
H	0.315115	-2.115172	-1.900105
C	-0.430981	-1.220687	0.793517
H	0.03538	-1.167333	1.781893
H	-0.091278	-2.145548	0.323533
H	-1.51913	-1.276024	0.906527
N	-0.500575	1.257434	0.559558
H	0.220204	1.632482	1.163503
H	-1.331969	1.089419	1.115223
F	2.692274	0.0	0.0
