19

C	-0.035395	0.06155	-1.519369
C	0.0	0.0	0.0
Cl	-1.726051	0.357031	-2.203669
H	1.108662	0.0	0.0
N	0.797025	1.198434	-1.877431
H	1.680784	1.01881	-1.368693
H	0.984673	1.171421	-2.874563
C	0.482281	-1.234625	-2.124179
H	1.470412	-1.380168	-1.674164
H	-0.166951	-2.08771	-1.917692
H	0.579091	-1.126445	-3.209097
C	-0.634964	-1.219071	0.629603
H	-0.122848	-2.142855	0.350415
H	-0.571816	-1.122916	1.717655
H	-1.695809	-1.287913	0.362447
N	-0.547227	1.229043	0.606886
H	-0.496714	1.948307	-0.109061
H	0.131184	1.512117	1.308603
F	2.758041	0.0	0.0
