19

C	-0.070046	0.010828	-1.525622
C	0.0	0.0	0.0
Cl	-1.813121	0.181735	-2.112059
H	1.09903	0.0	0.0
N	0.691323	1.136158	-2.039138
H	0.330475	1.940525	-1.532921
H	1.61821	0.96982	-1.615906
C	0.52292	-1.255848	-2.108685
H	0.617034	-1.142551	-3.189476
H	1.513834	-1.344233	-1.650056
H	-0.079885	-2.1375	-1.887629
C	-0.601147	-1.205261	0.696919
H	-0.429717	-1.120677	1.775412
H	-1.684052	-1.270109	0.524688
H	-0.140926	-2.139752	0.368411
N	-0.46264	1.283066	0.529248
H	-1.433367	1.215764	0.815427
H	0.095173	1.505263	1.343837
F	2.723676	0.0	0.0
