19

C	-0.404144	0.071586	-1.487399
C	0.0	0.0	0.0
Cl	-0.229433	-1.573652	-2.239889
H	1.100271	0.0	0.0
N	-1.777852	0.492722	-1.750718
H	-2.399717	-0.213476	-1.365766
H	-1.880813	1.320511	-1.164971
C	0.583815	0.993652	-2.180626
H	0.375886	2.017904	-1.856334
H	0.471463	0.93708	-3.265288
H	1.589828	0.721755	-1.843797
C	-0.609322	-1.130304	0.801306
H	-0.301649	-2.104017	0.421963
H	-1.709288	-1.090107	0.801665
H	-0.267809	-1.053965	1.838147
N	-0.384558	1.324374	0.566582
H	-0.946229	1.191257	1.400057
H	0.486028	1.755309	0.861218
F	2.72842	0.0	0.0
