19

C	-0.190889	0.049166	-1.533113
C	0.0	0.0	0.0
Cl	-0.066696	1.818221	-2.053085
H	1.096067	0.0	0.0
N	0.920336	-0.623022	-2.168589
H	0.7297	-1.618935	-2.170818
H	1.755057	-0.456456	-1.571653
C	-1.530612	-0.425466	-2.059906
H	-2.335542	0.122518	-1.567293
H	-1.586461	-0.268887	-3.138488
H	-1.655984	-1.494109	-1.851921
C	-0.456855	-1.342864	0.550646
H	-0.079819	-1.449929	1.574272
H	-0.034901	-2.171003	-0.02498
H	-1.549769	-1.427579	0.575321
N	-0.698177	1.060113	0.739165
H	-0.509967	0.887903	1.723129
H	-0.221126	1.931598	0.525854
F	2.763673	0.0	0.0
