19

C	-0.399165	0.080233	-1.489396
C	0.0	0.0	0.0
Cl	-0.226073	-1.561508	-2.246455
H	1.10033	0.0	0.0
N	-1.767528	0.512148	-1.753879
H	-2.395961	-0.201365	-1.395321
H	-1.87168	1.319733	-1.140136
C	0.600036	0.998363	-2.174182
H	1.602794	0.721334	-1.831209
H	0.496169	0.947914	-3.260756
H	0.39426	2.02174	-1.852436
C	-0.62484	-1.127408	0.791507
H	-0.288402	-1.062484	1.830781
H	-1.72361	-1.076405	0.784561
H	-0.322413	-2.100455	0.406223
N	-0.391332	1.323715	0.571602
H	0.486626	1.799793	0.759871
H	-0.837284	1.181297	1.47126
F	2.733442	0.0	0.0
