17

C	0.0	0.0	0.0
C	-0.47575	0.100724	-1.45838
F	1.346695	0.0	0.0
H	-1.559857	0.265857	-1.367822
N	-0.412241	1.213981	0.820562
O	-0.203403	1.108887	2.026908
O	-0.793466	2.213725	0.233417
C	-0.507858	-1.207375	0.654324
N	-0.583984	-2.279979	1.132667
C	-0.137717	-1.166649	-2.226811
H	0.93632	-1.373794	-2.205017
H	-0.461176	-1.052203	-3.262018
H	-0.674642	-2.007582	-1.788481
N	0.120152	1.251609	-2.209897
O	1.107126	1.854179	-1.796338
O	-0.450138	1.50918	-3.272317
F	-2.456745	0.0	0.0
