17

C	0.0	0.0	0.0
C	-0.528359	0.057587	-1.432614
F	1.348996	0.0	0.0
H	-1.571705	0.414524	-1.28814
N	-0.383336	1.250029	0.812991
O	-0.897241	2.202547	0.255127
O	-0.033544	1.195885	1.990466
C	-0.491014	-1.164862	0.74252
N	-0.600364	-2.171198	1.341367
C	-0.548179	-1.320228	-2.066536
H	-0.814681	-1.235141	-3.117951
H	-1.316688	-1.8953	-1.551889
H	0.417538	-1.828438	-1.981052
N	0.243176	1.023762	-2.277314
O	0.058373	0.94939	-3.494482
O	0.945786	1.880865	-1.744442
F	-2.494982	0.0	0.0
