17

C	0.0	0.0	0.0
C	-0.479069	0.07061	-1.456201
F	1.346793	0.0	0.0
H	-1.567826	0.218576	-1.350083
N	-0.420106	1.224742	0.808685
O	-0.250154	1.118898	2.01825
O	-0.766995	2.230024	0.211861
C	-0.496148	-1.198613	0.680283
N	-0.573696	-2.254805	1.191856
C	-0.111287	-1.201457	-2.203493
H	-0.438358	-1.116253	-3.23977
H	0.96785	-1.375234	-2.180415
H	-0.618862	-2.050646	-1.748716
N	0.097235	1.219482	-2.226155
O	-0.502095	1.477798	-3.271599
O	1.104732	1.809845	-1.84648
F	-2.458751	0.0	0.0
