17

C	0.0	0.0	0.0
C	-0.213186	0.040351	-1.554608
F	1.352241	0.0	0.0
H	0.260554	0.978565	-1.841693
N	-0.412683	1.299273	0.653256
O	-0.493338	2.291056	-0.062633
O	-0.471157	1.290024	1.875696
C	-0.514119	-1.136576	0.750967
N	-0.610435	-2.116452	1.396508
C	-1.515734	-0.136469	-2.300134
H	-1.994639	-1.07026	-2.0263
H	-1.27837	-0.11479	-3.373027
H	-2.191701	0.6659	-2.030568
N	0.723567	-1.003968	-2.115913
O	1.618445	-0.622476	-2.871003
O	0.497436	-2.17748	-1.831056
F	-2.264596	0.0	0.0
