17

C	-0.271823	-0.078518	-1.475696
C	0.0	0.0	0.0
Br	-2.374283	-0.672482	-1.81929
H	1.090424	0.0	0.0
N	-0.097775	1.158737	-2.113866
H	-0.143466	1.051755	-3.118001
H	-0.767787	1.84389	-1.790529
N	0.497091	-1.136764	-1.979538
H	1.426564	-1.092266	-1.537179
H	0.568819	-1.093015	-2.987204
N	-0.419226	-1.206065	0.747685
O	-1.414788	-1.127288	1.468615
O	0.277604	-2.206148	0.591218
N	-0.460423	1.172597	0.733727
O	-0.029673	1.252552	1.886326
O	-1.171686	2.028119	0.191215
H	2.447116	0.0	0.0
