17

C	-0.467762	-0.095482	-1.419936
C	0.0	0.0	0.0
Br	0.243638	1.982423	-2.280558
H	1.086086	0.0	0.0
N	0.283616	-1.020286	-2.08755
H	1.27058	-0.942814	-1.829417
H	0.132177	-1.030824	-3.087459
N	-1.834724	-0.091214	-1.64382
H	-2.253686	0.657585	-1.104874
H	-2.060903	0.0149	-2.624262
N	-0.369826	-1.245829	0.726696
O	-1.290832	-1.197344	1.548774
O	0.290721	-2.245212	0.449045
N	-0.515708	1.113431	0.805161
O	-1.494316	1.768861	0.431689
O	0.108229	1.315013	1.8468
H	2.470337	0.0	0.0
