17

C	-0.34263	0.077251	-1.491871
C	0.0	0.0	0.0
Br	-0.233463	-1.882199	-2.221094
H	1.087817	0.0	0.0
N	-1.700437	0.426847	-1.802718
H	-1.875956	0.274607	-2.7878
H	-1.800861	1.411108	-1.578284
N	0.663942	0.868621	-2.041958
H	1.590332	0.643271	-1.642543
H	0.662207	0.881236	-3.052552
N	-0.572995	-1.154512	0.730362
O	-1.766485	-1.086244	1.024159
O	0.178094	-2.087432	0.994049
N	-0.397705	1.200399	0.761293
O	-0.190207	1.133687	1.974219
O	-0.796979	2.209652	0.17251
H	2.582993	0.0	0.0
