17

C	-0.529216	-0.098241	-1.431313
C	0.0	0.0	0.0
Br	-0.068464	-1.877034	-2.18819
H	1.10362	0.0	0.0
N	-1.974814	-0.049552	-1.42967
H	-2.302003	-0.027877	-2.390399
H	-2.218982	0.830833	-0.981752
N	0.202635	0.847197	-2.239894
H	0.064699	1.758167	-1.812648
H	-0.177844	0.846119	-3.180149
N	-0.355667	-1.174908	0.855657
O	0.491925	-2.053466	0.98167
O	-1.472994	-1.184549	1.364375
N	-0.362906	1.171133	0.674835
O	0.01848	1.243411	1.876556
O	-0.779814	2.181364	0.01259
H	2.272271	0.0	0.0
