17

C	-0.563015	0.094491	-1.418645
C	0.0	0.0	0.0
Br	-0.08418	1.842049	-2.227928
H	1.103324	0.0	0.0
N	0.116209	-0.881951	-2.236695
H	-0.27528	-0.862892	-3.171368
H	-0.056854	-1.786663	-1.808218
N	-2.01045	0.086282	-1.36459
H	-2.265379	-0.787589	-0.911079
H	-2.374774	0.082265	-2.312393
N	-0.346292	-1.176632	0.682724
O	0.092136	-1.256869	1.862483
O	-0.810259	-2.178076	0.041478
N	-0.350459	1.173486	0.858091
O	0.451632	2.105324	0.875481
O	-1.413405	1.1372	1.473413
H	2.278625	0.0	0.0
