16

C	-0.676798	0.045739	-1.530603
C	0.135948	-0.020685	-0.256862
Cl	-0.428382	-1.3406	-2.626902
H	1.194944	-0.073788	-0.526967
H	-1.746305	0.11703	-1.336732
N	-0.335051	1.298165	-2.292458
O	-1.254338	2.091269	-2.483193
O	0.821485	1.435183	-2.665903
C	-0.208556	-1.233923	0.601337
H	-1.27844	-1.230386	0.849684
H	0.040494	-2.187993	0.126822
H	0.388565	-1.07241	1.506438
N	-0.053993	1.25009	0.428519
H	-0.972598	1.218784	0.868919
H	0.643912	1.138141	1.229361
F	1.575452	0.386888	2.213761
