16

C	-0.762819	0.043583	-1.487465
C	0.115124	-0.009692	-0.257158
Cl	-0.522754	-1.319673	-2.614097
H	1.162498	-0.023409	-0.582163
H	-1.823033	0.074658	-1.239351
N	-0.50367	1.316554	-2.247799
O	-1.458034	2.079532	-2.380194
O	0.626919	1.498577	-2.677379
C	-0.143766	-1.244312	0.60059
H	0.493798	-1.073468	1.475954
H	-1.198685	-1.279616	0.904408
H	0.111265	-2.183692	0.100637
N	-0.082354	1.245266	0.454492
H	0.658603	1.147519	1.21764
H	-0.975986	1.177325	0.939775
F	1.66364	0.417007	2.1439
