16

C	-0.573945	-0.075231	-1.639294
C	0.112157	-0.060453	-0.276992
Cl	0.00127	1.236283	-2.696588
H	1.191409	-0.033847	-0.498432
H	-0.405465	-1.011482	-2.168595
N	-2.069456	0.02687	-1.489531
O	-2.612547	1.120817	-1.50475
O	-2.632917	-1.054854	-1.31658
C	-0.137797	-1.341199	0.508995
H	0.175564	-2.232973	-0.045602
H	-1.19284	-1.429154	0.775215
H	0.469785	-1.198498	1.409897
N	-0.322469	1.05936	0.530325
H	0.305665	0.935528	1.377268
H	-0.025456	1.918221	0.074651
F	1.475241	0.312472	2.240089
