16

C	-0.594945	-0.060409	-1.626666
C	0.106668	-0.050974	-0.27219
Cl	-0.0015	1.229272	-2.700637
H	1.183684	-0.05209	-0.506129
H	-0.453795	-1.004359	-2.15025
N	-2.085765	0.077347	-1.461199
O	-2.603673	1.183413	-1.478629
O	-2.672017	-0.989741	-1.273519
C	-0.164379	-1.319384	0.526948
H	0.122891	-2.222375	-0.023656
H	-1.218278	-1.381309	0.804669
H	0.456194	-1.183491	1.419995
N	-0.29221	1.085009	0.530863
H	0.020009	1.933026	0.065103
H	0.343226	0.952874	1.371298
F	1.50872	0.309459	2.224467
