16

C	-0.565148	-0.050167	-1.577844
C	0.164001	0.036671	-0.241333
Cl	-2.329789	-0.020303	-1.420997
H	1.23943	0.017485	-0.489067
H	-0.274444	0.789287	-2.204386
N	-0.137634	-1.289459	-2.322689
O	0.936882	-1.175084	-2.912516
O	-0.803393	-2.315913	-2.252645
C	-0.102976	-1.118613	0.715153
H	-1.1593	-1.153082	1.000802
H	0.520662	-0.862366	1.577635
H	0.182075	-2.095326	0.309579
N	-0.080329	1.351003	0.327613
H	0.661434	1.354451	1.092486
H	-0.978831	1.310486	0.803466
F	1.748277	0.746973	2.029892
