16

C	-0.103076	-0.026257	-1.414494
C	0.132537	-0.185721	0.101873
Cl	-1.761288	0.492364	-1.783561
H	1.183063	-0.491524	0.151315
H	0.614577	0.794094	-1.712652
N	0.210489	-1.309756	-2.109748
O	-0.640984	-1.92097	-2.75324
O	1.371922	-1.695203	-1.956613
C	-0.748124	-1.248259	0.737755
H	-1.803491	-0.971676	0.66492
H	-0.619084	-2.225672	0.263332
H	-0.489339	-1.33339	1.795432
N	0.037556	1.086849	0.79121
H	-0.916468	1.423293	0.696117
H	0.635412	1.711546	0.21382
F	1.492229	2.044098	-1.233009
