16

C	-0.544134	0.010681	-1.371038
C	0.01694	-0.166734	0.043205
Cl	-0.287552	-1.410296	-2.426493
H	1.104453	-0.238082	-0.052782
H	-1.621361	0.178819	-1.33308
N	-0.007258	1.237556	-2.081389
O	-0.675772	2.251192	-1.890868
O	0.971609	1.137258	-2.796782
C	-0.589413	-1.415144	0.681865
H	-0.320781	-2.343463	0.173016
H	-1.683069	-1.335723	0.708664
H	-0.236977	-1.451704	1.71361
N	-0.217011	1.004658	0.862159
H	0.586688	1.632624	0.552809
H	-1.107894	1.429258	0.624028
F	1.849393	1.898349	-0.252058
