18

C	-0.474195	-0.00666	-1.447914
C	0.0	0.0	0.0
F	-0.226145	-1.235538	-1.993315
H	1.09544	0.0	0.0
C	-1.926664	0.338375	-1.693771
H	-2.133976	0.272123	-2.765567
H	-2.146883	1.342848	-1.335553
H	-2.555907	-0.380721	-1.166147
N	0.347335	0.992086	-2.261529
O	0.331207	2.143246	-1.841267
O	0.880945	0.602517	-3.289411
C	-0.381429	-1.293848	0.724747
H	-1.461688	-1.472876	0.764815
H	0.114734	-2.132526	0.233173
H	0.004971	-1.232763	1.744715
C	-0.512431	1.147457	0.724993
N	-0.947894	2.026844	1.37415
H	2.682337	0.0	0.0
