18

C	-0.33528	-0.080674	-1.479557
C	0.0	0.0	0.0
F	-0.036067	1.117377	-2.064879
H	1.09712	0.0	0.0
C	0.410646	-1.174817	-2.197397
H	1.467485	-1.044137	-1.942656
H	0.256137	-1.06643	-3.273707
H	0.071699	-2.158696	-1.882139
N	-1.845031	-0.25206	-1.675553
O	-2.518704	0.742717	-1.925618
O	-2.28828	-1.391087	-1.516886
C	-0.398208	-1.216554	0.833638
H	0.068101	-2.113432	0.422458
H	-1.477961	-1.366956	0.893974
H	0.00395	-1.077029	1.839836
C	-0.518478	1.225576	0.583035
N	-0.943726	2.192503	1.099959
H	2.695726	0.0	0.0
