18

C	-0.47931	-0.032231	-1.445311
C	0.0	0.0	0.0
F	-0.216396	-1.264264	-1.973837
H	1.095557	0.0	0.0
C	-1.93689	0.290786	-1.687643
H	-2.16856	1.29513	-1.334954
H	-2.556123	-0.432996	-1.153918
H	-2.149196	0.214331	-2.757705
N	0.323896	0.966015	-2.278626
O	0.286255	2.122831	-1.878446
O	0.855585	0.57008	-3.304535
C	-0.38141	-1.278784	0.750402
H	-1.460623	-1.44446	0.812729
H	0.021945	-1.20753	1.762053
H	0.096091	-2.128705	0.263459
C	-0.509936	1.160577	0.705721
N	-0.931994	2.049827	1.351121
H	2.678517	0.0	0.0
