18

C	-0.459164	0.046814	-1.446147
C	0.0	0.0	0.0
F	-1.830955	0.177848	-1.538115
H	1.094247	0.0	0.0
C	0.219971	1.129655	-2.240431
H	-0.025077	1.036712	-3.300844
H	1.298597	1.054464	-2.079903
H	-0.138389	2.092653	-1.872426
N	-0.148813	-1.306931	-2.072493
O	0.994507	-1.471093	-2.485017
O	-1.04774	-2.14494	-2.086375
C	-0.456836	-1.23613	0.772702
H	-1.53713	-1.389388	0.723685
H	0.052626	-2.117854	0.378223
H	-0.151439	-1.127661	1.815625
C	-0.449292	1.221744	0.645922
N	-0.793789	2.209523	1.18375
H	2.702315	0.0	0.0
