18

C	-0.461654	0.037561	-1.445023
C	0.0	0.0	0.0
F	-1.836793	0.141768	-1.534144
H	1.094351	0.0	0.0
C	0.192245	1.132483	-2.242746
H	-0.063397	1.038146	-3.300631
H	-0.175659	2.089597	-1.868893
H	1.273255	1.072689	-2.096173
N	-0.129443	-1.311489	-2.074738
O	-1.005121	-2.174073	-2.056105
O	1.002201	-1.445944	-2.526364
C	-0.458239	-1.230244	0.781759
H	-1.539048	-1.380186	0.735418
H	0.046921	-2.116435	0.392464
H	-0.151006	-1.114673	1.823253
C	-0.449737	1.225245	0.64015
N	-0.797788	2.212646	1.176506
H	2.701199	0.0	0.0
