15

C	-0.416796	-0.13756	-1.435746
C	0.0	0.0	0.0
F	-1.731966	-0.512092	-1.593969
H	1.094337	0.0	0.0
H	0.223107	-0.862404	-1.941832
N	-0.248451	1.150273	-2.202169
O	0.781294	1.267707	-2.8596
O	-1.151386	1.977931	-2.107396
C	-0.356955	-1.276959	0.766632
H	-1.433577	-1.447023	0.83079
H	0.122309	-2.127844	0.274025
H	0.06446	-1.206942	1.771345
C	-0.535706	1.173564	0.661674
N	-0.935941	2.098629	1.268833
H	2.656242	0.0	0.0
