15

C	-0.415502	-0.132346	-1.437074
C	0.0	0.0	0.0
F	-1.736478	-0.488137	-1.597591
H	1.094355	0.0	0.0
H	0.213975	-0.867155	-1.942768
N	-0.227756	1.154479	-2.200645
O	0.813752	1.266163	-2.837341
O	-1.12536	1.986673	-2.11892
C	-0.358955	-1.277677	0.763349
H	0.12077	-2.128521	0.270185
H	-1.435716	-1.447784	0.823914
H	0.060051	-1.210073	1.769286
C	-0.542612	1.174023	0.655928
N	-0.987005	2.093986	1.239063
H	2.661098	0.0	0.0
