15

C	-0.364032	0.023975	-1.463259
C	0.0	0.0	0.0
F	0.024885	-1.127169	-2.073094
H	1.096584	0.0	0.0
H	0.070689	0.880142	-1.982518
N	-1.859391	0.132611	-1.660949
O	-2.517353	-0.905923	-1.644043
O	-2.311738	1.271861	-1.773879
C	-0.459483	-1.257438	0.730444
H	-0.012249	-1.254711	1.726831
H	-1.546073	-1.33232	0.820666
H	-0.082122	-2.132115	0.1994
C	-0.45305	1.212771	0.656233
N	-0.793767	2.186829	1.220941
H	2.654043	0.0	0.0
