15

C	-0.412211	-0.157199	-1.430782
C	0.0	0.0	0.0
F	-1.772459	-0.304308	-1.60342
H	1.097002	0.0	0.0
H	0.095036	-1.01099	-1.877317
N	-0.015014	1.022658	-2.284746
O	0.854194	0.82489	-3.128107
O	-0.60903	2.079255	-2.089005
C	-0.373452	-1.260168	0.788767
H	-1.451517	-1.43355	0.821064
H	0.009751	-1.161575	1.806837
H	0.126935	-2.119932	0.336079
C	-0.538606	1.183208	0.643418
N	-0.972863	2.093204	1.249083
H	2.66666	0.0	0.0
