15

C	-0.343323	0.040446	-1.469475
C	0.0	0.0	0.0
F	-0.007762	-1.132221	-2.070273
H	1.096588	0.0	0.0
H	0.151482	0.867369	-1.980947
N	-1.824536	0.235204	-1.694561
O	-2.544101	-0.760846	-1.681884
O	-2.205027	1.397533	-1.829374
C	-0.4759	-1.25966	0.715031
H	-1.564321	-1.337219	0.770372
H	-0.079561	-2.132224	0.195059
H	-0.061486	-1.256638	1.725298
C	-0.449705	1.210987	0.661879
N	-0.782727	2.179979	1.239775
H	2.654812	0.0	0.0
