15

C	-0.516922	-0.084506	-1.422856
C	0.0	0.0	0.0
F	-0.295914	1.068484	-2.10446
H	1.095899	0.0	0.0
H	-1.582238	-0.330327	-1.490285
N	0.169054	-1.202623	-2.185872
O	1.002872	-0.913215	-3.02832
O	-0.218387	-2.334877	-1.897583
C	-0.398477	-1.1958	0.86797
H	-0.077502	-0.996659	1.89259
H	-1.476063	-1.389472	0.861261
H	0.129318	-2.084547	0.523334
C	-0.504904	1.235001	0.573681
N	-0.924886	2.223213	1.054432
H	2.676837	0.0	0.0
