16
Coordinates from ORCA-job run
  C   0.63535955079100      0.36669136441541      0.20244230491774
  C   -0.80353300872943      0.54212593031089     -0.30978831809342
  Cl  1.58784168729902      1.80207620056281     -0.22326020358202
  H   -1.17163579940737      1.48013467504583      0.11093239282042
  C   1.31022809082052     -0.88796005272879     -0.28487836254584
  H   2.31631506885692     -0.96022999136796      0.12330453193455
  H   1.36894678516533     -0.86222328194879     -1.37430400613936
  H   0.74304138160992     -1.76035637013223      0.04095493549483
  N   0.51673945334584      0.35668357419065      1.72884595751594
  O   1.14856941059452     -0.49747874021381      2.33660817922902
  O   -0.19367381317299      1.22211738174112      2.22423070151555
  N   -1.60689378875636     -0.55835332786929      0.19701658086635
  H   -2.53974759257948     -0.24555745403268      0.42771966057174
  H   -1.67514786916002     -1.31253496517545     -0.47382457868097
  C   -0.80144379068780      0.65071969921572     -1.77588876577011
  N   -0.83596576598961      0.66614535798657     -2.95011101005443
