16
Coordinates from ORCA-job run
  C   0.35198832230978      0.13484153552199      0.49840652389995
  C   -0.72086957397208     -0.14996346959995     -0.56677212258864
  Cl  -0.16133652628458      1.49201616542575      1.50151404841331
  H   -0.35553150876346     -0.99525926417389     -1.15384854778490
  C   1.71530349711045      0.39797435498034     -0.10508242852930
  H   1.65005094008734      1.26085499095065     -0.76476589520602
  H   2.03140214341789     -0.47586628190033     -0.67889662419605
  H   2.43781205444218      0.59206128953664      0.68926360073464
  N   0.48337366326076     -1.12018827833704      1.36884139005177
  O   0.63280579515083     -0.99978125915518      2.57400490575292
  O   0.49756393755965     -2.17100575988532      0.73189702261931
  N   -0.84742640516966      0.99743522380841     -1.44567914216112
  H   -1.36980535063646      1.73521533601385     -0.98838323738072
  H   -1.34786810088895      0.73165380085224     -2.28452568888803
  C   -1.98151706392418     -0.56896369399158      0.07641502747239
  N   -3.01694582369950     -0.86102469004659      0.54861116779050
