16
Coordinates from ORCA-job run
  C   0.57207121685722      0.39907997370360      0.13905675152017
  C   -0.87012366311678      0.52147870358821     -0.41783712952940
  Cl  1.49438396182678      1.84130091237026     -0.32886939967819
  H   -1.23142335793144      1.51276753702250     -0.13348082229714
  C   1.30506546289927     -0.85040385990444     -0.27653615697009
  H   1.39803257889029     -0.86411202498230     -1.36300300047974
  H   0.76529687190882     -1.73843149572445      0.05706485553209
  H   2.29817564972250     -0.87305289929358      0.16744326274565
  N   0.43296642689413      0.45300472313777      1.66149642678731
  O   1.10487593807058     -0.32935643680420      2.32355173233860
  O   -0.35012666462071      1.28635464026673      2.10692878966091
  N   -1.81721575070666     -0.45296111473176      0.06878886184279
  H   -1.54137371647548     -1.40628797501589     -0.12086485073401
  H   -2.01712221871403     -0.32206764893599      1.05042969713911
  C   -0.80364337923801      0.45654339230022     -1.88282093203158
  N   -0.73983935626647      0.36614357300331     -3.05134808584649
