16
Coordinates from ORCA-job run
  C   0.43793193596307      0.08418166227966      0.44475950954702
  C   -0.80407885087426     -0.07432019262229     -0.45034386252250
  Cl  0.16139033695654      1.37506873297473      1.61326370845231
  H   -0.57722610073818     -0.88520914670128     -1.14654390418598
  C   1.69914719314310      0.34180941567858     -0.35177878127254
  H   1.86952951498557     -0.48830003089930     -1.03977179086913
  H   2.55040729112107      0.43351819521735      0.32491275270000
  H   1.57717726592518      1.26336303841859     -0.91734466683761
  N   0.62682395414556     -1.24650701198152      1.18363283231649
  O   0.82466783145700     -1.25043763975402      2.38748662936309
  O   0.60463152527806     -2.22668835792851      0.44247344476909
  N   -1.01297136755898      1.14077463271657     -1.21388819296767
  H   -1.42054789435964      1.85965163205105     -0.62773149406108
  H   -1.65008695112196      0.95956034961471     -1.97941229977657
  C   -1.96456336865826     -0.49609603945623      0.35899167836148
  N   -2.92323231566388     -0.79036923960811      0.97129443698361
