16
Coordinates from ORCA-job run
  C   0.57625569369133      0.31068331209455      0.26396282435681
  C   -0.73753675462470      0.36399883312280     -0.54287929842086
  Cl  0.99951407450176      1.97521507286636      0.69880301861180
  H   -0.54922577950643      1.08578525675639     -1.35316614117101
  C   1.72660060173902     -0.34153246351688     -0.47040001271407
  H   1.91895996791890      0.19764416402935     -1.39976050126597
  H   1.48612113981643     -1.38017900826197     -0.69434643053935
  H   2.62698048169023     -0.30260622721744      0.14484363087204
  N   0.27788839033551     -0.48855608996244      1.53497101003016
  O   0.26715939399351      0.07100012573452      2.61769105670811
  O   0.05625992222702     -1.67453278300347      1.31637818525661
  N   -1.83374579538307      0.72146398727447      0.34279708204217
  H   -1.75111697602882      1.69267843871369      0.61852877921411
  H   -2.72286293975095      0.59238086069585     -0.12306275430051
  C   -1.03006371699788     -0.92050179784253     -1.18818731944254
  N   -1.31118770362187     -1.90294168148323     -1.76617312923753
