16
Coordinates from ORCA-job run
  C   0.29571885324330      0.13673856445307      0.48220460956220
  C   -0.81217932996751     -0.15288704770956     -0.56922090013111
  Cl  -0.09433005390212      1.60753930484854      1.36898354678980
  H   -0.52953394317584     -1.09507589335444     -1.04861105638225
  C   1.67552494274449      0.23990385292698     -0.13436682403650
  H   1.90098923807188     -0.66871680206416     -0.69438895126867
  H   2.42287267142173      0.37371655157307      0.64943475579872
  H   1.71954899463081      1.10559265227276     -0.79511285226029
  N   0.30770713928339     -1.06123081176654      1.43713008671262
  O   0.12755172284218     -0.89682078729191      2.63241556860246
  O   0.51496219315474     -2.13072081664631      0.86686039231415
  N   -0.99009620751155      0.84440812866424     -1.59541069529615
  H   -1.15735787968535      1.76047953541262     -1.19914302606748
  H   -0.19708494447342      0.87748058862266     -2.22104387501120
  C   -2.08656489699864     -0.38082603489791      0.12684341295013
  N   -3.09872849967810     -0.56058098504311      0.69342580772358
