19

C	0.0	0.0	0.0
C	-0.379237	0.040025	-1.521181
Cl	1.800391	0.0	0.0
H	0.4481	-0.37768	-2.102133
C	-0.554208	1.181769	0.769919
H	-0.305776	1.073232	1.829321
H	-0.148753	2.130779	0.415261
H	-1.643999	1.134467	0.63813
C	-0.508089	-1.294899	0.609334
H	-0.129349	-1.38548	1.631931
H	-1.600255	-1.221995	0.610371
H	-0.189531	-2.161708	0.028116
N	-0.296761	1.54144	-1.973319
O	-1.341614	2.179951	-2.058069
O	0.821193	1.990982	-2.240189
N	-1.599723	-0.565661	-1.812465
H	-1.84974	-0.425027	-2.782235
H	-2.38591	-0.289129	-1.136123
F	-3.257388	0.0	0.0
