19

C	0.0	0.0	0.0
C	-0.316516	-0.050009	-1.523356
Cl	1.80216	0.0	0.0
H	0.204933	-0.928764	-1.917894
C	-0.554339	1.203191	0.734689
H	-0.19164	2.137761	0.314248
H	-0.270376	1.141391	1.789854
H	-1.645354	1.13205	0.647742
C	-0.545317	-1.276156	0.614211
H	-1.637601	-1.188799	0.561589
H	-0.196622	-2.160708	0.073589
H	-0.228852	-1.355587	1.657936
N	0.457915	1.070318	-2.275085
O	0.256425	2.242506	-1.97484
O	1.170653	0.707173	-3.214303
N	-1.663574	0.03883	-1.899687
H	-2.387176	0.085275	-1.104798
H	-1.902136	-0.699779	-2.543759
F	-3.307893	0.0	0.0
