19

C	0.0	0.0	0.0
C	-0.270947	-0.047554	-1.543876
Cl	1.814219	0.0	0.0
H	0.409202	0.681708	-1.987698
C	-0.487119	1.284373	0.634732
H	-0.149354	2.16107	0.079446
H	-1.583868	1.188718	0.609283
H	-0.115269	1.343183	1.662444
C	-0.520697	-1.208845	0.739582
H	-1.617992	-1.11578	0.623957
H	-0.237995	-1.139857	1.793582
H	-0.124406	-2.143952	0.337771
N	-1.613282	0.466432	-2.032461
O	-2.380373	-0.322249	-2.560238
O	-1.742264	1.687738	-2.014317
N	-0.061089	-1.327675	-2.181135
H	-0.841616	-1.927211	-1.935816
H	0.792496	-1.728093	-1.809945
F	-2.879389	0.0	0.0
