19

C	0.0	0.0	0.0
C	-0.593062	-0.051869	-1.420547
Cl	1.805373	0.0	0.0
H	-1.674386	-0.196227	-1.203885
C	-0.498389	1.276293	0.65961
H	-0.121851	2.16889	0.155117
H	-0.164252	1.302798	1.700089
H	-1.594846	1.198795	0.603966
C	-0.472502	-1.19399	0.817345
H	-0.107164	-1.098252	1.843971
H	-1.567878	-1.13739	0.782526
H	-0.115632	-2.138157	0.404996
N	-0.074143	-1.256692	-2.151637
O	0.907177	-1.109377	-2.87987
O	-0.64793	-2.331497	-1.967009
N	-0.388665	1.089545	-2.264386
H	0.549146	1.457715	-2.161495
H	-1.06398	1.793108	-1.999612
F	-2.987646	0.0	0.0
