19

C	0.0	0.0	0.0
C	-0.28199	0.008847	-1.541732
Cl	1.81049	0.0	0.0
H	0.410143	0.737681	-1.967217
C	-0.47875	1.260867	0.688641
H	-0.139288	2.157178	0.166898
H	-0.098467	1.276516	1.715066
H	-1.575118	1.174713	0.667131
C	-0.517693	-1.232275	0.704532
H	-1.615013	-1.133574	0.603688
H	-0.219152	-1.200741	1.756336
H	-0.131938	-2.155259	0.266134
N	-1.615689	0.573258	-2.004659
O	-1.725297	1.79242	-1.911467
O	-2.389184	-0.166031	-2.591371
N	-0.108049	-1.256159	-2.218317
H	0.698133	-1.720039	-1.819022
H	-0.932446	-1.815247	-2.031821
F	-2.868107	0.0	0.0
