19

C	0.0	0.0	0.0
C	-0.587549	-0.124279	-1.405386
Cl	1.804274	0.0	0.0
H	-1.68358	-0.153137	-1.186534
C	-0.488516	1.325173	0.567223
H	-0.136039	2.163208	-0.032424
H	-0.133092	1.431241	1.596296
H	-1.583892	1.244174	0.53647
C	-0.479627	-1.128338	0.899755
H	-0.137051	-0.938706	1.920799
H	-0.105508	-2.102143	0.58251
H	-1.574878	-1.082	0.839075
N	-0.208287	-1.472987	-2.01418
O	-0.865414	-2.461883	-1.693347
O	0.736092	-1.500163	-2.811089
N	-0.210451	0.947759	-2.265387
H	0.750738	0.828237	-2.560321
H	-0.803301	0.94774	-3.084268
F	-2.995014	0.0	0.0
