19

C	0.0	0.0	0.0
C	-0.292205	-0.038847	-1.526166
Cl	1.813949	0.0	0.0
H	0.349134	0.731975	-1.973556
C	-0.483486	1.277328	0.65368
H	-0.154079	2.164039	0.108901
H	-0.098889	1.319192	1.67725
H	-1.58001	1.181117	0.639142
C	-0.508733	-1.218565	0.733852
H	-0.195705	-1.164558	1.781389
H	-0.14249	-2.139798	0.283463
H	-1.604635	-1.125001	0.641787
N	-1.655013	0.449294	-1.998496
O	-1.833214	1.656258	-1.900664
O	-2.354543	-0.321027	-2.643649
N	-0.068269	-1.362536	-2.06579
H	0.930061	-1.506609	-2.146211
H	-0.498928	-1.425244	-2.97834
F	-2.887946	0.0	0.0
