19

C	0.0	0.0	0.0
C	-0.317971	0.10434	-1.522012
Cl	1.803022	0.0	0.0
H	0.244656	-0.697835	-2.008718
C	-0.559245	1.11556	0.856921
H	-1.649788	1.054376	0.750723
H	-0.193569	2.091874	0.548264
H	-0.286824	0.936083	1.901497
C	-0.541563	-1.335433	0.476463
H	-0.216836	-1.528307	1.502882
H	-0.197765	-2.155864	-0.160008
H	-1.634145	-1.24303	0.44077
N	0.396092	1.341307	-2.132057
O	1.188008	1.1267	-3.052941
O	0.075416	2.460489	-1.741124
N	-1.667853	0.155544	-1.904732
H	-2.389499	0.161858	-1.108252
H	-1.874022	-0.596707	-2.54395
F	-3.304906	0.0	0.0
