19

C	0.0	0.0	0.0
C	-0.318065	-0.124592	-1.519076
Cl	1.801693	0.0	0.0
H	0.213451	-1.014117	-1.873489
C	-0.554751	1.23599	0.677654
H	-1.645729	1.161356	0.592542
H	-0.191444	2.150455	0.215735
H	-0.272323	1.222306	1.734986
C	-0.543088	-1.246534	0.675088
H	-1.635499	-1.163472	0.62094
H	-0.194728	-2.155103	0.175883
H	-0.223974	-1.276438	1.720509
N	0.441068	0.97019	-2.32149
O	1.170922	0.575145	-3.234806
O	0.21122	2.151068	-2.082582
N	-1.666193	-0.073417	-1.898767
H	-2.389253	0.025263	-1.10794
H	-1.900596	-0.861895	-2.482151
F	-3.309662	0.0	0.0
