19

C	0.0	0.0	0.0
C	-0.427386	0.146598	-1.515966
Cl	1.79187	0.0	0.0
H	-0.335342	-0.8421	-1.972355
C	-0.524881	1.149708	0.836924
H	-0.189515	2.110556	0.443365
H	-1.617676	1.069303	0.807884
H	-0.1726	1.046909	1.867128
C	-0.560078	-1.313854	0.505525
H	-0.187677	-2.158086	-0.08093
H	-0.286675	-1.465063	1.553874
H	-1.651943	-1.221845	0.419022
N	0.58349	0.973868	-2.282007
O	0.624099	2.179145	-2.039892
O	1.281602	0.408262	-3.121531
N	-1.695769	0.724248	-1.811109
H	-1.64313	1.70126	-1.538535
H	-2.443209	0.313501	-1.162895
F	-3.309446	0.0	0.0
