16

C	-0.498288	0.021728	-1.447132
C	0.0	0.0	0.0
F	-0.186864	1.285134	-1.951746
H	1.090371	0.0	0.0
H	0.08378	-0.685282	-2.040793
N	-1.901326	-0.207497	-1.558028
H	-2.352822	-0.39228	-0.674796
H	-2.130422	-0.924851	-2.226432
N	-0.430169	-1.325483	0.537353
O	0.108417	-2.320172	0.059498
O	-1.346249	-1.361934	1.367915
C	-0.521632	1.146821	0.835054
H	-1.609193	1.22924	0.825846
H	-0.186631	1.034833	1.866188
H	-0.091485	2.062748	0.431818
Br	3.543908	0.0	0.0
