16

C	-0.393683	0.098453	-1.46416
C	0.0	0.0	0.0
F	-0.166684	-1.166534	-2.052694
H	1.092215	0.0	0.0
H	-1.461959	0.283496	-1.60454
N	0.385571	1.120999	-2.053016
H	1.372753	0.955632	-1.866716
H	0.228463	1.162483	-3.050048
N	-0.548363	-1.263714	0.561577
O	0.206883	-2.032048	1.146228
O	-1.765074	-1.433236	0.43183
C	-0.520402	1.161915	0.825094
H	-0.199789	1.050433	1.863519
H	-1.611654	1.212896	0.786081
H	-0.095849	2.084493	0.430144
Br	3.555843	0.0	0.0
