16

C	-0.396779	0.029194	-1.466592
C	0.0	0.0	0.0
F	-0.181734	-1.26494	-1.993124
H	1.092206	0.0	0.0
H	-1.464317	0.215408	-1.612177
N	0.387742	1.015917	-2.106529
H	1.37487	0.855691	-1.911829
H	0.230134	1.011276	-3.105266
N	-0.545811	-1.239061	0.616433
O	-1.768629	-1.392652	0.535071
O	0.219936	-2.007402	1.187274
C	-0.520086	1.199505	0.769294
H	-1.610886	1.249816	0.727602
H	-0.093898	2.101778	0.331707
H	-0.200526	1.137459	1.81207
Br	3.559616	0.0	0.0
