16

C	-0.491248	0.062761	-1.4547
C	0.0	0.0	0.0
F	-0.305536	1.37493	-1.865747
H	1.091653	0.0	0.0
H	0.138658	-0.571288	-2.076818
N	-1.865635	-0.286982	-1.681073
H	-2.456945	0.040757	-0.927188
H	-1.952833	-1.291221	-1.754154
N	-0.403533	-1.342283	0.513014
O	-0.994873	-1.425856	1.590906
O	-0.129579	-2.310053	-0.19993
C	-0.520326	1.111986	0.880421
H	-0.143494	2.054335	0.485423
H	-0.146111	0.986081	1.894925
H	-1.612686	1.147648	0.921642
Br	3.482692	0.0	0.0
