16

C	-0.392607	0.199751	-1.454439
C	0.0	0.0	0.0
F	-0.157626	-1.021077	-2.129383
H	1.089936	0.0	0.0
H	-1.461868	0.388037	-1.583298
N	0.382145	1.263895	-1.969494
H	0.22322	1.379551	-2.961419
H	1.370959	1.090006	-1.795313
N	-0.543355	-1.305785	0.461845
O	-1.76282	-1.459656	0.341526
O	0.22067	-2.12614	0.957728
C	-0.526463	1.096738	0.905537
H	-0.103376	2.046737	0.580487
H	-1.61739	1.147447	0.866583
H	-0.209604	0.911608	1.934477
Br	3.558656	0.0	0.0
