16

C	-0.427806	0.058177	-1.466659
C	0.0	0.0	0.0
F	-0.347419	-1.233435	-1.979371
H	1.093517	0.0	0.0
H	-1.47434	0.367977	-1.562094
N	0.411026	0.911584	-2.242508
H	0.098847	1.870724	-2.214718
H	1.377035	0.847897	-1.928
N	-0.564031	-1.224214	0.625121
O	-1.797011	-1.27364	0.698947
O	0.196373	-2.101572	1.017238
C	-0.480366	1.215669	0.771978
H	-1.567801	1.310245	0.733923
H	-0.014354	2.10909	0.352354
H	-0.162503	1.143741	1.814219
Br	3.544681	0.0	0.0
