16

C	-0.481073	0.010962	-1.444908
C	0.0	0.0	0.0
F	-0.051438	1.227343	-2.008131
H	1.091936	0.0	0.0
H	0.011327	-0.780112	-2.007182
N	-1.893398	-0.135145	-1.541372
H	-2.172663	-0.199293	-2.511916
H	-2.354294	0.665016	-1.127084
N	-0.411409	-1.318139	0.575589
O	-0.105953	-2.321291	-0.066688
O	-1.01758	-1.334648	1.647887
C	-0.512098	1.154309	0.831385
H	-0.207443	2.08115	0.344023
H	-0.057627	1.121861	1.82078
H	-1.597082	1.134966	0.957518
Br	3.505936	0.0	0.0
