16

C	-0.428949	0.113021	-1.462834
C	0.0	0.0	0.0
F	-0.351281	-1.158606	-2.023508
H	1.092514	0.0	0.0
H	-1.47489	0.428137	-1.54571
N	0.410295	0.993862	-2.20709
H	0.098174	1.951272	-2.145804
H	1.376698	0.918909	-1.895912
N	-0.564346	-1.246324	0.579802
O	-1.797349	-1.297867	0.651585
O	0.195823	-2.137393	0.940221
C	-0.479399	1.186267	0.817165
H	-0.16026	1.075573	1.855589
H	-0.013578	2.094444	0.430352
H	-1.566755	1.2825	0.783784
Br	3.544208	0.0	0.0
