18

C	-0.420319	-0.005474	-1.453103
C	0.0	0.0	0.0
F	-0.164539	1.15818	-2.062126
H	1.100725	0.0	0.0
N	0.243041	-1.094929	-2.288983
O	0.681	-2.074296	-1.701561
O	0.245572	-0.896127	-3.498218
N	-1.915061	-0.273145	-1.603843
O	-2.269394	-1.419651	-1.841205
O	-2.638892	0.700742	-1.431445
N	-0.580643	-1.165895	0.671166
H	-0.520491	-0.998622	1.668993
H	0.007521	-1.965734	0.471257
C	-0.468521	1.272187	0.691022
H	-0.151355	2.160847	0.14729
H	-1.554594	1.283531	0.809945
H	0.003167	1.305026	1.676969
Br	3.512377	0.0	0.0
