18

C	-0.602712	0.053926	-1.382573
C	0.0	0.0	0.0
F	-1.949183	0.141508	-1.326728
H	1.090188	0.0	0.0
N	-0.143527	1.20171	-2.264229
O	-0.788864	1.345855	-3.300789
O	0.810158	1.870406	-1.889715
N	-0.263008	-1.18629	-2.190848
O	-1.173367	-1.956639	-2.45172
O	0.914307	-1.281871	-2.502547
N	-0.411893	-1.29428	0.542381
H	-1.212443	-1.202781	1.1525
H	0.361381	-1.681505	1.065645
C	-0.463128	1.191791	0.834745
H	-1.551337	1.197229	0.957002
H	0.004743	1.111919	1.818801
H	-0.143882	2.137128	0.394623
Br	3.518322	0.0	0.0
