18

C	-0.558344	-0.064933	-1.401212
C	0.0	0.0	0.0
F	-1.89934	-0.019344	-1.41875
H	1.093584	0.0	0.0
N	-0.053373	1.073386	-2.273821
O	1.100371	0.961719	-2.667433
O	-0.825546	2.006878	-2.467607
N	-0.159452	-1.320027	-2.159862
O	0.711885	-2.029703	-1.685945
O	-0.765014	-1.492487	-3.214606
N	-0.51268	-1.191508	0.686487
H	-0.892709	-0.928252	1.586146
H	0.268351	-1.816644	0.846
C	-0.467588	1.283704	0.67377
H	-0.020588	1.321314	1.669498
H	-1.557453	1.312761	0.761501
H	-0.134095	2.172037	0.135363
Br	3.558107	0.0	0.0
