18

C	-0.452399	0.020672	-1.439497
C	0.0	0.0	0.0
F	0.181743	0.950914	-2.160104
H	1.095733	0.0	0.0
N	-0.230611	-1.327197	-2.118514
O	-1.203521	-2.061541	-2.245234
O	0.918181	-1.544351	-2.463733
N	-1.950664	0.28311	-1.611331
O	-2.688866	-0.053115	-0.691645
O	-2.297542	0.801133	-2.666718
N	-0.411429	-1.244155	0.623696
H	-1.2953	-1.144439	1.103258
H	0.307815	-1.533718	1.272877
C	-0.403706	1.290287	0.714927
H	0.16456	1.34728	1.645486
H	-1.471901	1.315605	0.944496
H	-0.139773	2.168235	0.119385
Br	3.490289	0.0	0.0
