18

C	-0.45304	0.004657	-1.436555
C	0.0	0.0	0.0
F	-1.797486	-0.011872	-1.562993
H	1.090123	0.0	0.0
N	0.051016	1.199459	-2.246965
O	1.157618	1.631158	-1.957956
O	-0.707514	1.633402	-3.112188
N	0.086677	-1.192745	-2.230446
O	-0.756613	-1.967975	-2.69336
O	1.289122	-1.365931	-2.168938
N	-0.459229	-1.277989	0.529205
H	0.160579	-1.559306	1.279404
H	-1.407219	-1.208906	0.883081
C	-0.52594	1.232182	0.722458
H	-1.620702	1.285066	0.681411
H	-0.21681	1.179921	1.768751
H	-0.108387	2.151771	0.305304
Br	3.115743	0.0	0.0
