17

C	-0.566982	-0.003478	-1.425915
C	0.0	0.0	0.0
Br	0.313039	1.536366	-2.443138
H	1.097364	0.0	0.0
C	-0.184654	-1.189763	-2.188159
N	0.051702	-2.166817	-2.796718
N	-1.974802	0.127702	-1.38589
H	-2.369671	0.30266	-2.299987
H	-2.179773	0.886887	-0.740964
C	-0.475679	-1.235276	0.753916
H	0.020697	-1.25761	1.727969
H	-0.192021	-2.147679	0.227208
H	-1.559036	-1.224082	0.892083
N	-0.522084	1.213122	0.656558
H	0.131203	1.96496	0.459288
H	-0.481366	1.059454	1.657557
Br	3.573396	0.0	0.0
