17

C	-0.562466	-0.016493	-1.429075
C	0.0	0.0	0.0
Br	0.32528	1.513334	-2.456927
H	1.097394	0.0	0.0
C	-0.179889	-1.209387	-2.182875
N	0.056698	-2.192985	-2.782147
N	-1.970198	0.120296	-1.393897
H	-2.171056	0.885928	-0.754948
H	-2.360552	0.291313	-2.311151
C	-0.478961	-1.226575	0.765179
H	-0.195085	-2.144196	0.24785
H	0.015275	-1.239829	1.740091
H	-1.56238	-1.212634	0.9008
N	-0.522865	1.220623	0.641941
H	0.133563	1.968563	0.441482
H	-0.48944	1.076606	1.644784
Br	3.580352	0.0	0.0
