17

C	-0.31049	0.055208	-1.504476
C	0.0	0.0	0.0
Br	-0.042536	-1.811522	-2.3339
H	1.104745	0.0	0.0
C	-1.717492	0.340246	-1.799842
N	-2.84525	0.553261	-2.052886
N	0.546449	1.011863	-2.08365
H	0.46048	1.068059	-3.089462
H	1.513368	0.829532	-1.806375
C	-0.598686	-1.160113	0.760718
H	-0.158169	-2.107072	0.455084
H	-1.683835	-1.19414	0.624209
H	-0.391701	-1.024762	1.826494
N	-0.530364	1.262138	0.545565
H	-0.268146	1.291938	1.525954
H	-0.026459	2.019684	0.094723
Br	3.575997	0.0	0.0
