17

C	-0.272027	-0.057619	-1.507391
C	0.0	0.0	0.0
Br	-2.207274	-0.476866	-1.8825
H	1.100145	0.0	0.0
C	-0.094141	1.266627	-2.125619
N	0.090105	2.262443	-2.723969
N	0.539235	-1.084846	-2.090819
H	1.487452	-0.987613	-1.716746
H	0.569718	-0.995166	-3.098342
C	-0.449981	-1.257158	0.727562
H	-1.535242	-1.260835	0.870499
H	-0.169031	-2.152363	0.170931
H	0.03803	-1.286504	1.705131
N	-0.492741	1.241757	0.565122
H	0.22422	1.651706	1.149723
H	-1.320649	1.078046	1.12467
Br	3.506817	0.0	0.0
