17

C	-0.277521	-0.060297	-1.505528
C	0.0	0.0	0.0
Br	-2.216927	-0.468075	-1.87187
H	1.100152	0.0	0.0
C	-0.09351	1.26064	-2.129
N	0.092747	2.252121	-2.733607
N	0.521857	-1.09574	-2.089695
H	1.474872	-1.000573	-1.727595
H	0.539638	-1.015279	-3.098954
C	-0.450081	-1.254416	0.732491
H	0.037569	-1.279904	1.710437
H	-1.535461	-1.257497	0.875173
H	-0.169006	-2.151828	0.179433
N	-0.490195	1.244403	0.56301
H	0.227506	1.652133	1.148381
H	-1.318511	1.082807	1.12238
Br	3.505992	0.0	0.0
