17

C	-0.359503	0.041706	-1.490056
C	0.0	0.0	0.0
Br	0.034956	-1.77839	-2.343931
H	1.10481	0.0	0.0
C	-1.795873	0.212579	-1.72566
N	-2.946053	0.330648	-1.936429
N	0.394316	1.074213	-2.093242
H	1.384552	0.945434	-1.874357
H	0.252537	1.12801	-3.094842
C	-0.56292	-1.172808	0.772115
H	-0.301862	-1.052856	1.82765
H	-0.13683	-2.115199	0.433306
H	-1.653471	-1.20552	0.689538
N	-0.545569	1.247611	0.561936
H	-0.078016	2.020425	0.099206
H	-0.25913	1.282141	1.535681
Br	3.588726	0.0	0.0
