17

C	-0.531385	0.027432	-1.439487
C	0.0	0.0	0.0
Br	0.068092	1.641073	-2.365658
H	1.095652	0.0	0.0
C	-0.018279	-1.106364	-2.227791
N	0.266384	-2.067641	-2.84316
N	-1.9932	0.050515	-1.439102
H	-2.318925	-0.871296	-1.161362
H	-2.320743	0.213913	-2.385475
C	-0.43938	-1.292049	0.698254
H	0.071391	-1.341016	1.662239
H	-1.519969	-1.304574	0.886498
H	-0.159058	-2.186264	0.135022
N	-0.426436	1.20673	0.687041
H	0.284821	1.464862	1.358396
H	-1.309019	1.0682	1.160471
Br	3.563453	0.0	0.0
