19

C	-0.152628	-0.117294	-1.520994
C	0.0	0.0	0.0
F	-1.353837	-0.851013	-1.862106
H	1.097035	0.0	0.0
N	-0.288101	1.171366	-2.160173
H	-0.341753	1.010931	-3.163012
H	-1.177169	1.574487	-1.878564
N	0.96129	-0.867803	-1.99948
H	1.133027	-0.68105	-2.979356
H	1.793976	-0.607575	-1.43079
C	-0.486689	-1.264241	0.691159
H	-0.066552	-2.143235	0.199471
H	-0.149134	-1.264799	1.733056
H	-1.579696	-1.349367	0.675968
C	-0.585345	1.257962	0.610854
H	-0.122617	2.148777	0.182936
H	-1.675687	1.321	0.477822
H	-0.389411	1.265981	1.687817
F	2.771835	0.0	0.0
