19

C	-0.155024	0.069702	-1.53054
C	0.0	0.0	0.0
F	-0.086819	-1.276527	-2.009659
H	1.09869	0.0	0.0
N	-1.399222	0.54859	-2.113469
H	-1.500662	1.517965	-1.838991
H	-2.166359	0.024316	-1.705231
N	0.920367	0.849601	-2.014327
H	1.778681	0.591835	-1.491327
H	1.018304	0.715452	-3.012468
C	-0.617794	-1.230248	0.631844
H	-0.451064	-1.215321	1.714058
H	-1.704984	-1.282555	0.467727
H	-0.168464	-2.138354	0.231819
C	-0.481809	1.287458	0.651136
H	-0.018914	2.149675	0.165804
H	-0.186721	1.303783	1.705146
H	-1.575273	1.398711	0.608813
F	2.769877	0.0	0.0
