19

C	-0.139469	0.104838	-1.529994
C	0.0	0.0	0.0
F	-0.046882	-1.196858	-2.046499
H	1.097646	0.0	0.0
N	-1.403733	0.615775	-1.999396
H	-1.269501	0.90838	-2.961134
H	-1.674666	1.422974	-1.450513
N	0.995064	0.800518	-2.107762
H	1.822304	0.499786	-1.553061
H	0.883951	1.784745	-1.901059
C	-0.63227	-1.236433	0.607209
H	-1.715123	-1.263222	0.434037
H	-0.456574	-1.253567	1.688414
H	-0.193688	-2.138062	0.181101
C	-0.454479	1.271999	0.703182
H	-0.016278	2.161336	0.239782
H	-0.104671	1.258082	1.740273
H	-1.546843	1.384854	0.724765
F	2.773818	0.0	0.0
