19

C	-0.134365	0.068642	-1.528546
C	0.0	0.0	0.0
F	-1.285485	0.852765	-1.897928
H	1.096924	0.0	0.0
N	1.005143	0.723916	-2.138183
H	1.82378	0.448416	-1.55609
H	0.884204	1.719019	-1.983247
N	-0.248952	-1.223406	-2.119241
H	-0.190779	-1.096356	-3.122322
H	-1.139917	-1.637474	-1.871475
C	-0.5973	-1.229568	0.656506
H	-1.689074	-1.285435	0.53119
H	-0.146825	-2.13665	0.250489
H	-0.393922	-1.210234	1.732221
C	-0.468582	1.287175	0.661485
H	-0.017748	2.159158	0.181136
H	-1.557587	1.404188	0.624457
H	-0.150102	1.296731	1.70874
F	2.768253	0.0	0.0
