18

C	-0.169573	0.05346	-1.53158
C	0.0	0.0	0.0
Br	-0.084948	-1.953801	-2.316588
H	1.102408	0.0	0.0
N	-1.453993	0.498361	-1.950705
H	-1.706685	1.222881	-1.280621
H	-1.415035	0.879659	-2.889144
N	0.958178	0.73863	-2.008802
H	1.80947	0.460943	-1.4677
H	1.088836	0.664347	-3.007112
C	-0.705149	-1.112366	0.731835
H	-1.774055	-1.125203	0.496317
H	-0.274354	-2.077433	0.472702
H	-0.585878	-0.970106	1.812582
N	-0.497134	1.320774	0.479625
H	0.217636	1.991042	0.199161
H	-0.461814	1.293107	1.495184
F	2.761594	0.0	0.0
