18

C	-0.167858	0.031586	-1.533047
C	0.0	0.0	0.0
Br	-0.171562	-2.0282	-2.28888
H	1.099528	0.0	0.0
N	-1.434013	0.506482	-1.963559
H	-1.670021	1.243615	-1.303006
H	-1.380358	0.87147	-2.906242
N	0.9783	0.643791	-2.030121
H	1.829706	0.371387	-1.484816
H	1.085313	0.589956	-3.034184
C	-0.703755	-1.097643	0.753469
H	-0.277763	-2.067709	0.507096
H	-1.774341	-1.112367	0.52345
H	-0.577833	-0.937241	1.831273
N	-0.48726	1.33371	0.458921
H	0.263979	1.982073	0.232865
H	-0.526976	1.301852	1.473081
F	2.764447	0.0	0.0
