18

C	-0.060999	-0.085451	-1.544646
C	0.0	0.0	0.0
Br	-0.275595	2.086512	-2.355716
H	1.097093	0.0	0.0
N	1.120613	-0.574544	-1.974838
H	1.9678	-0.341674	-1.35318
H	1.246423	-0.666211	-2.973719
N	-1.282374	-0.573077	-2.146575
H	-1.301289	-0.314599	-3.124633
H	-1.23503	-1.585231	-2.079318
C	-0.530526	-1.311002	0.568355
H	-0.030354	-2.164971	0.104565
H	-1.612188	-1.403425	0.424647
H	-0.320545	-1.326252	1.638783
N	-0.613361	1.121115	0.675873
H	-1.537007	1.262681	0.281063
H	-0.080521	1.945017	0.431287
F	2.799144	0.0	0.0
