18

C	-0.226078	-0.079301	-1.530251
C	0.0	0.0	0.0
Br	-0.404664	-2.050247	-2.094774
H	1.093879	0.0	0.0
N	-1.450322	0.53991	-1.935706
H	-1.433339	0.684136	-2.938149
H	-1.459938	1.430043	-1.445818
N	0.93511	0.398642	-2.218987
H	0.812917	1.388382	-2.396266
H	1.762117	0.255414	-1.610935
C	-0.687004	-1.013273	0.883049
H	-0.327773	-2.021964	0.687455
H	-1.772401	-0.999816	0.726834
H	-0.476135	-0.776902	1.931374
N	-0.358266	1.396881	0.372869
H	-1.056002	1.389607	1.107985
H	0.48468	1.808934	0.753556
F	2.734819	0.0	0.0
