18

C	-0.164844	-0.200597	-1.495868
C	0.0	0.0	0.0
Br	-0.041078	1.997335	-2.329559
H	1.099785	0.0	0.0
N	0.950307	-0.791688	-2.014749
H	0.812286	-1.741802	-2.364483
H	1.8025	-0.619941	-1.451344
N	-1.372812	-0.623117	-1.997742
H	-2.131407	-0.117894	-1.550364
H	-1.438363	-0.528159	-3.012314
C	-0.422478	-1.318456	0.651105
H	-0.104978	-1.295356	1.698289
H	-1.509573	-1.445544	0.619004
H	0.068115	-2.171768	0.176097
N	-0.76822	1.087253	0.593464
H	-0.564144	1.075682	1.584975
H	-0.392056	1.962419	0.234462
F	2.72608	0.0	0.0
