18

C	-0.439812	0.048487	-1.473926
C	0.0	0.0	0.0
Cl	0.17252	-1.514628	-2.265718
H	1.095037	0.0	0.0
N	-1.857055	0.155233	-1.596988
H	-2.116924	0.202305	-2.575102
H	-2.312916	-0.651638	-1.188848
C	0.262225	1.17911	-2.199855
H	-0.084212	2.131709	-1.793062
H	1.33953	1.087666	-2.051448
H	0.036429	1.143522	-3.269345
C	-0.500758	-1.196869	0.809618
H	-0.157687	-2.124263	0.353002
H	-1.591448	-1.209464	0.899853
H	-0.079682	-1.139821	1.814701
C	-0.445428	1.237714	0.644383
N	-0.823014	2.204727	1.194539
Cl	3.372699	0.0	0.0
