18

C	-0.252851	0.005832	-1.523001
C	0.0	0.0	0.0
Cl	-2.039103	0.099562	-1.850473
H	1.099037	0.0	0.0
N	0.365591	1.142782	-2.171354
H	1.367767	1.075799	-1.978439
H	0.03696	1.997798	-1.732827
C	0.288348	-1.260029	-2.160187
H	0.200249	-1.166306	-3.24353
H	-0.260232	-2.143162	-1.830944
H	1.342767	-1.359402	-1.881603
C	-0.521009	-1.202993	0.779009
H	-0.292882	-1.078969	1.840257
H	-0.019015	-2.11059	0.439785
H	-1.602329	-1.3172	0.660143
C	-0.472182	1.248443	0.588177
N	-0.87566	2.245629	1.061539
Cl	3.330137	0.0	0.0
