18

C	-0.283558	-0.000697	-1.515475
C	0.0	0.0	0.0
Cl	-2.080238	0.069782	-1.799279
H	1.099075	0.0	0.0
N	0.299633	1.144716	-2.181044
H	-0.031739	1.995296	-1.735617
H	1.305823	1.093558	-2.015676
C	0.258162	-1.25995	-2.165292
H	1.322288	-1.341885	-1.920967
H	0.132259	-1.172742	-3.245212
H	-0.264247	-2.150175	-1.815207
C	-0.505105	-1.201429	0.793349
H	-0.231315	-1.083103	1.843927
H	-0.027688	-2.113199	0.432928
H	-1.590589	-1.303128	0.71884
C	-0.465626	1.248406	0.595023
N	-0.859224	2.247205	1.073269
Cl	3.333429	0.0	0.0
