18

C	-0.356106	-0.060882	-1.498286
C	0.0	0.0	0.0
Cl	-0.018179	1.631097	-2.208292
H	1.097165	0.0	0.0
N	0.487046	-1.043748	-2.076901
H	1.458574	-0.873188	-1.813907
H	0.405676	-1.046135	-3.085552
C	-1.818747	-0.329669	-1.795537
H	-1.997902	-0.286434	-2.872766
H	-2.451157	0.417476	-1.313124
H	-2.083553	-1.326079	-1.437775
C	-0.435707	-1.268985	0.745995
H	-1.520319	-1.324661	0.870205
H	-0.082305	-2.142352	0.198234
H	0.028079	-1.270973	1.734382
C	-0.554257	1.170299	0.664817
N	-1.07752	2.065278	1.217667
Cl	3.349826	0.0	0.0
