18

C	-0.467421	0.058616	-1.480792
C	0.0	0.0	0.0
Cl	-0.06881	-1.530521	-2.238185
H	1.09588	0.0	0.0
N	-1.891477	0.258376	-1.683389
H	-2.413445	-0.451104	-1.18063
H	-2.141606	1.163968	-1.297239
C	0.313571	1.131489	-2.216465
H	0.048756	1.111805	-3.27461
H	0.06262	2.11442	-1.80522
H	1.383286	0.96261	-2.080837
C	-0.499827	-1.193192	0.814455
H	-0.17932	-1.078014	1.851532
H	-0.062284	-2.111596	0.425946
H	-1.591582	-1.276184	0.79988
C	-0.460407	1.238678	0.628009
N	-0.901841	2.206969	1.128011
Cl	3.367986	0.0	0.0
