18

C	-0.371421	-0.045117	-1.505844
C	0.0	0.0	0.0
Cl	-0.052278	1.601207	-2.186117
H	1.096836	0.0	0.0
N	0.481291	-0.955168	-2.240926
H	0.267536	-1.904431	-1.958348
H	1.450635	-0.768469	-1.980487
C	-1.832495	-0.36757	-1.763743
H	-2.06153	-1.38382	-1.428542
H	-2.029471	-0.302064	-2.834264
H	-2.479594	0.334459	-1.232704
C	-0.416065	-1.276324	0.745339
H	-1.498345	-1.352941	0.875443
H	-0.050151	-2.159083	0.216706
H	0.05497	-1.275169	1.729354
C	-0.56403	1.149931	0.692782
N	-1.106443	2.021618	1.26486
Cl	3.345152	0.0	0.0
