16
Coordinates from ORCA-job run
  C   -0.35419596989565      0.40171800813598      0.23029406927458
  C   1.10819449470879      0.31401692902160     -0.29057443005726
  Br  -0.42458231506525      2.01159751610226      1.35445598299528
  H   1.34226872334574      1.24835762439037     -0.81522182526663
  C   -1.31048343847435      0.59394930594650     -0.93710066016402
  H   -1.30758263225996     -0.29592752627861     -1.57305877353045
  H   -1.03322424796981      1.46164680688602     -1.53991522626134
  H   -2.32406731887373      0.74730109619490     -0.56366072586235
  C   -0.71670173067651     -0.80537697270744      1.07819266274860
  H   -0.04974618910045     -0.90887391145567      1.93556708432792
  H   -1.73883260410971     -0.70596475117819      1.44722455156751
  H   -0.65578892893904     -1.71322231202384      0.46940489295143
  C   1.23603760749987     -0.79596791600655     -1.24436410663098
  N   1.29855050383248     -1.68277673131091     -2.01193922061528
  C   2.07901831940191      0.14120663436110      0.79512648706181
  N   2.85213572657569     -0.01168380007748      1.66556923746118
