16
Coordinates from ORCA-job run
  C   -0.32049380547759      0.28924442325800      0.19057090010257
  C   1.01710999524879     -0.30622327295472     -0.32360603974967
  Br  0.05671687399125      2.06145928001056      0.93879539208962
  H   0.77779884770482     -1.29689800564498     -0.73735381816064
  C   -1.29362199255866      0.44821556451118     -0.96768707586015
  H   -2.23634953077467      0.86139766893321     -0.60550838279992
  H   -1.49551251972192     -0.53140261285197     -1.41515064701579
  H   -0.90024306107732      1.11406639834164     -1.73723810384690
  C   -0.88817191131253     -0.59218553768212      1.29267797593696
  H   -0.20547174838746     -0.66907306521364      2.14018060309137
  H   -1.07917589548066     -1.59648367969022      0.89839614552064
  H   -1.83246379311450     -0.17765163148630      1.64909146557719
  C   1.99194254634690     -0.50589757072018      0.75323991496836
  N   2.75560744236376     -0.69992013407095      1.62377316856094
  C   1.60423595768926      0.49006622648713     -1.40569546179116
  N   2.04909259456055      1.11228594877335     -2.29648603662341
