16
Coordinates from ORCA-job run
  C   -0.35097709241097      0.40074571830520      0.23778843572743
  C   1.10197874293482      0.31566990335127     -0.30899743991257
  Br  -0.40312514349539      2.00849864915469      1.36600888214644
  H   1.32536808117830      1.25152851697788     -0.83563926921082
  C   -1.32748099758220      0.59405139340958     -0.91264667839794
  H   -2.33444485561337      0.74783493426958     -0.52175627580287
  H   -1.06017350231001      1.46184487098049     -1.51991389958985
  H   -1.33586441583784     -0.29558559291592     -1.54893559897052
  C   -0.69732986843162     -0.80819519232979      1.08973919707261
  H   -0.64593845257827     -1.71492426948916      0.47841680113617
  H   -1.71299909419457     -0.71069393795145      1.47662815733622
  H   -0.01539354272710     -0.91225820314906      1.93514255713935
  C   1.21375590962730     -0.79177347873483     -1.26762921812369
  N   1.26322506555913     -1.67767864749779     -2.03716522684809
  C   2.09327589938855      0.14196606808462      0.75773823146112
  N   2.88512326649325     -0.01103073246530      1.61122134483701
