16
Coordinates from ORCA-job run
  C   -0.33629475253882      0.22978873275770      0.41754259498538
  C   1.17510143627225     -0.03551878529681      0.16730710253133
  Br  -0.41168145408864      1.58012645087604      1.84288416303460
  H   1.63087505962073     -0.34434981625213      1.11595951079536
  C   -1.01696426153797      0.78544662627195     -0.82152771627530
  H   -0.95817297786058      0.05238962516407     -1.63252839611282
  H   -2.06939687636784      0.98170898151886     -0.61008366234536
  H   -0.55278499488044      1.71618704464935     -1.15151943622605
  C   -1.00868096814953     -1.03681843575735      0.92531108363178
  H   -2.04589665654585     -0.82485321769779      1.18932170174438
  H   -1.00047727463735     -1.80289228029502      0.14460970194769
  H   -0.50332682284687     -1.42779654819286      1.81131609128495
  C   1.87986285172864      1.15711597150716     -0.31436354794258
  N   2.43784416043670      2.10898082465641     -0.71609671006007
  C   1.34080194871989     -1.12734837044979     -0.80142958100356
  N   1.43819158267567     -2.01216680345977     -1.56770289998972
