16
Coordinates from ORCA-job run
  C   -0.32751406242266      0.29483310543598      0.38185505654555
  C   1.17038173439943     -0.07436996289029      0.18830761781804
  Br  -0.34682545700577      1.80902253331374      1.63357341450651
  H   1.60004123775691     -0.29294182519608      1.17348900307490
  C   -0.96692986942736      0.73016288726048     -0.92552181518935
  H   -2.01008853265852      1.00199175657342     -0.75592130204750
  H   -0.93758457135277     -0.09717189904307     -1.64181954842431
  H   -0.45285375806184      1.59041948906454     -1.35712372676264
  C   -1.06898121942172     -0.86610263011042      1.02749075622380
  H   -1.09102752447268     -1.72114173649674      0.34568814941344
  H   -0.59403571272582     -1.17042440191881      1.96294822492595
  H   -2.09691943122991     -0.57285026599663      1.24594424190942
  C   1.94170115332893      1.01567424760194     -0.41806220794086
  N   2.55476049001956      1.88429815789377     -0.91653079822851
  C   1.28680983832685     -1.27937945464322     -0.64383995378212
  N   1.34106568494737     -2.25102000084860     -1.30147711204232
