16
Coordinates from ORCA-job run
  C   -0.34292603626546      0.24209666057425      0.21568404187938
  C   1.03922283905545     -0.19211307390240     -0.34044605052598
  Br  -0.10491431488428      1.94235221817248      1.16188067107603
  H   0.87836854726513     -1.14680148592332     -0.86261331169980
  C   -1.31677800056052      0.45750619045628     -0.93282225637730
  H   -2.29059416671495      0.75624090965215     -0.54178128478487
  H   -1.44086065504931     -0.47778218139289     -1.48986572747086
  H   -0.96923368295738      1.23300098653175     -1.61695650346704
  C   -0.85109126198199     -0.79640111660383      1.20414283476954
  H   -1.82567143289379     -0.49423926873618      1.59059702684902
  H   -0.96479779084450     -1.76123753876491      0.69756062344569
  H   -0.17019389791998     -0.91827518167801      2.04777014292238
  C   2.01884834470511     -0.43661933512977      0.72264885846690
  N   2.78283069833044     -0.68454125032900      1.57909486090090
  C   1.57235769031759      0.76005338922236     -1.31964038356664
  N   1.98643312039843      1.51776007785101     -2.11525354241731
