16
Coordinates from ORCA-job run
  C   -0.35983458587120      0.38661534097686      0.24690182171849
  C   1.10239263912561      0.34289006478070     -0.27997306151069
  Br  -0.45281072482064      1.95016220924019      1.43316374183737
  H   1.32106304933111      1.30174475171431     -0.76552343196533
  C   -1.32234989068828      0.60857981493359     -0.91008733912406
  H   -1.30942040226491     -0.25734482766333     -1.57823888328415
  H   -1.05868480453286      1.50144155643635     -1.48157152984433
  H   -2.33670602820863      0.73439885761809     -0.52845278906762
  C   -0.70064570028994     -0.85820952958837      1.04798131945525
  H   -1.72456628293125     -0.79122713787373      1.41948496575884
  H   -0.03206804584678     -0.98213130674677      1.90146084742847
  H   -0.62310972034728     -1.74108734396001      0.40518486186304
  C   1.24426132071552     -0.72408227328834     -1.27964429058255
  N   1.31700731336355     -1.57647569742056     -2.08444862799472
  C   2.07839851805217      0.14008805174099      0.79577353278732
  N   2.85707334521383     -0.03536253089998      1.65698886252468
