14

C	0.0	0.0	0.0
C	-0.334638	0.138062	-1.483924
F	1.416525	0.0	0.0
H	0.031886	1.134969	-1.78723
H	-1.410578	0.105183	-1.645275
N	-0.373389	1.081883	0.788195
H	-0.128369	1.006212	1.761006
H	-0.180227	1.972391	0.370624
C	-0.384377	-1.309752	0.541042
N	-0.586782	-2.298637	1.133829
N	0.300083	-0.967418	-2.19258
H	1.284602	-0.788497	-2.32768
H	-0.142606	-1.094708	-3.093003
Br	-3.350502	0.0	0.0
