14

C	0.0	0.0	0.0
C	-0.424547	-0.200986	-1.451081
F	1.4183	0.0	0.0
H	-1.511724	-0.307681	-1.433875
H	0.028046	-1.127558	-1.830253
N	-0.474695	1.192478	0.608075
H	-1.465567	1.040768	0.812657
H	-0.435706	1.900339	-0.122086
C	-0.361687	-1.181221	0.817429
N	-0.539382	-2.125782	1.490208
N	-0.051857	0.992003	-2.208202
H	0.864939	0.883338	-2.619407
H	-0.722178	1.155348	-2.946231
Br	-3.752635	0.0	0.0
