14

C	0.0	0.0	0.0
C	-0.45626	-0.003685	-1.457057
F	1.391886	0.0	0.0
H	0.142428	0.77226	-1.948359
H	-1.509259	0.288702	-1.45712
N	-0.471227	1.114184	0.767719
H	-0.367396	1.951513	0.200335
H	-1.478609	0.973168	0.890717
C	-0.381481	-1.259179	0.682884
N	-0.576641	-2.279083	1.228725
N	-0.19845	-1.294877	-2.096893
H	-0.989138	-1.898561	-1.891057
H	-0.188695	-1.164982	-3.101453
Br	-3.733787	0.0	0.0
