14

C	0.0	0.0	0.0
C	-0.424996	-0.224604	-1.447756
F	1.416586	0.0	0.0
H	0.017219	-1.163437	-1.807902
H	-1.513514	-0.319498	-1.428355
N	-0.471943	1.204829	0.589311
H	-0.431157	1.901346	-0.151196
H	-1.462228	1.060181	0.800141
C	-0.364658	-1.162545	0.843547
N	-0.541909	-2.094453	1.535196
N	-0.039548	0.950299	-2.226195
H	0.88525	0.831171	-2.616073
H	-0.697059	1.093713	-2.979114
Br	-3.755711	0.0	0.0
