14

C	0.0	0.0	0.0
C	-0.426819	-0.157864	-1.455203
F	1.417032	0.0	0.0
H	-1.51417	-0.26704	-1.436525
H	0.02555	-1.072198	-1.862023
N	-0.473029	1.175092	0.644805
H	-1.463422	1.018518	0.847107
H	-0.434868	1.905114	-0.062669
C	-0.359563	-1.203564	0.783179
N	-0.539212	-2.167645	1.427205
N	-0.057787	1.057285	-2.178215
H	-0.736108	1.244673	-2.901645
H	0.853819	0.957562	-2.600684
Br	-3.755301	0.0	0.0
