13

C	-0.214999	-0.087359	-1.516289
C	0.0	0.0	0.0
Br	-0.077975	1.931976	-2.181932
H	1.09342	0.0	0.0
H	-0.412921	0.907756	0.435005
N	0.766424	-0.910277	-2.030883
H	1.683341	-0.720909	-1.580064
H	0.799889	-0.966792	-3.038828
C	-1.558472	-0.424422	-1.982141
N	-2.635005	-0.725171	-2.347896
C	-0.499621	-1.186343	0.67168
N	-0.8971	-2.133311	1.244003
H	2.728163	0.0	0.0
