13

C	-0.292238	-0.092445	-1.508734
C	0.0	0.0	0.0
Br	-0.076192	1.704949	-2.311778
H	1.09387	0.0	0.0
H	-0.295561	-0.959744	0.442278
N	0.641945	-0.981605	-2.158585
H	1.565648	-0.770611	-1.750842
H	0.40838	-1.933806	-1.889774
C	-1.671532	-0.498212	-1.798205
N	-2.773646	-0.869701	-1.970929
C	-0.626844	1.081333	0.727318
N	-1.127972	1.944145	1.349589
H	2.733259	0.0	0.0
