13

C	-0.237932	-0.08161	-1.493718
C	0.0	0.0	0.0
Br	-2.159538	0.400701	-1.992816
H	1.102675	0.0	0.0
H	-0.312027	0.986032	0.351959
N	0.653066	0.850391	-2.092593
H	0.741924	0.693162	-3.089267
H	1.573169	0.738092	-1.624017
C	-0.097903	-1.457159	-1.998198
N	0.103368	-2.525173	-2.450254
C	-0.609995	-1.057508	0.772716
N	-1.105308	-1.92587	1.391147
H	2.652807	0.0	0.0
