13

C	-0.557319	-0.043971	-1.425056
C	0.0	0.0	0.0
Br	0.067127	-1.728294	-2.235654
H	1.092963	0.0	0.0
H	-0.324346	-0.903473	0.528414
N	-2.007721	-0.031144	-1.568362
H	-2.380419	-0.787641	-1.003206
H	-2.346002	0.843757	-1.174456
C	-0.028655	1.062709	-2.231406
N	0.311705	1.980278	-2.880927
C	-0.527509	1.171796	0.676934
N	-0.970379	2.129577	1.197447
H	2.688934	0.0	0.0
