18

C	-0.501889	-0.00324	-1.398847
C	0.0	0.0	0.0
Br	-2.485084	0.009495	-1.580104
H	1.098209	0.0	0.0
N	0.002878	1.175625	-2.219449
O	0.775835	1.952921	-1.673026
O	-0.365914	1.214865	-3.388866
N	0.058873	-1.217003	-2.128729
O	-0.562663	-2.269173	-2.068521
O	1.164634	-1.047313	-2.632099
C	-0.399382	-1.237546	0.782424
H	-1.480808	-1.28681	0.944015
H	-0.075852	-2.159323	0.29889
H	0.113596	-1.18038	1.74633
N	-0.430565	1.235299	0.656383
H	0.411507	1.763613	0.858647
H	-0.875891	1.004326	1.533976
H	2.626012	0.0	0.0
