18

C	-0.455414	-0.004399	-1.434156
C	0.0	0.0	0.0
Br	0.361948	1.44722	-2.43396
H	1.097107	0.0	0.0
N	-0.100515	-1.268696	-2.194538
O	0.741763	-2.009842	-1.697961
O	-0.644257	-1.409687	-3.28724
N	-1.974318	0.0935	-1.541064
O	-2.550951	-0.946947	-1.221402
O	-2.506249	1.153996	-1.828503
C	-0.495382	-1.16202	0.842839
H	-0.330051	-2.125982	0.365912
H	0.093678	-1.148304	1.767124
H	-1.557805	-1.057552	1.087404
N	-0.479762	1.264318	0.591419
H	-0.512257	1.120062	1.59469
H	0.253481	1.952792	0.439002
H	2.711935	0.0	0.0
