12
Coordinates from ORCA-job run
  C   0.53528749738131      0.06070713254137      0.67822320274354
  C   -0.55789603326121      0.44724119553584     -0.32530156668202
  F   0.05315508177131     -0.77195581340991      1.61317005078584
  H   -0.09517997816991      1.08047271881030     -1.09045810221627
  H   0.98361821212586      0.94117327128608      1.14254869158936
  N   1.64320696194908     -0.62645242031143     -0.09509332153198
  O   1.91975289531421     -1.77794135047543      0.19681267070549
  O   2.15559407559996      0.08048360819308     -0.95665522072252
  C   -1.60575626132251      1.20689051438598      0.36186060894606
  N   -2.41785364689116      1.83740601438893      0.92802415664588
  C   -1.10263090468723     -0.75338961845040     -0.96779137348764
  N   -1.51029789980970     -1.72363525249442     -1.48733979677575
