12
Coordinates from ORCA-job run
  C   0.32453107408708     -0.59066450298769      0.53527036944944
  C   -0.55231304743265      0.03653497778283     -0.55300200914026
  F   0.47337909449564     -1.90711600719969      0.26890887479634
  H   -0.05185684891596     -0.16306721363943     -1.50842784338071
  H   -0.05202372053220     -0.44207484201380      1.54701530379847
  N   1.68282867803349      0.06069293184236      0.46209550649114
  O   2.06608448699328      0.64820871924932      1.46832849288845
  O   2.27212282609721     -0.05963946551566     -0.60663303947828
  C   -0.65260312307859      1.48428442336983     -0.35255810357253
  N   -0.71096159357686      2.64304420433489     -0.17368036765529
  C   -1.87320519427243     -0.59624373784497     -0.55074516847074
  N   -2.92598263189801     -1.11495948737800     -0.53657201572604
