12
Coordinates from ORCA-job run
  C   0.43991831776536     -0.72774172141089      0.17287709810178
  C   -0.74991172950397      0.22884913184434      0.02984479050131
  F   0.77607725891707     -1.25310350506206     -1.01489945404424
  H   -0.94521431805574      0.66418311105787      1.01615117403805
  H   0.23545141754226     -1.51753671968146      0.89838796245827
  N   1.60361049198331      0.07096562303839      0.72584778419235
  O   1.38397703977672      0.56504326576214      1.82690860987501
  O   2.61832976276232      0.14907101631767      0.05372607021241
  C   -1.92948905638950     -0.52002908750060     -0.41173590173225
  N   -2.86741572371441     -1.14358125998996     -0.74185927005377
  C   -0.42340981833445      1.30761264036999     -0.90896325309709
  N   -0.14192364274900      2.17726750525458     -1.64528561045182
