12
Coordinates from ORCA-job run
  C   0.34923758090585     -0.59494095881624      0.51419668477272
  C   -0.57545961972502      0.04060829874126     -0.52870893959248
  F   0.49051612697480     -1.90791011275589      0.22769077751071
  H   -0.11567078245795     -0.14581055807605     -1.50699455437810
  H   0.01565595480155     -0.45821916378070      1.54250484946083
  N   1.70086155882561      0.06189860029206      0.39025607214652
  O   2.12390984528579      0.64203206688782      1.38467000416880
  O   2.24490692418970     -0.04584872733949     -0.70347557496088
  C   -0.67241736584172      1.48569158850530     -0.30737542591532
  N   -0.72776591155723      2.64204115184117     -0.11256126330848
  C   -1.89274966917075     -0.59767151132504     -0.47675883096418
  N   -2.94202464223062     -1.12087067417421     -0.42344379894014
