12
Coordinates from ORCA-job run
  C   0.40943921977467     -0.62736233437309      0.42343581399247
  C   -0.61101799575403      0.06588144585706     -0.48461675356930
  F   0.59008159827676     -1.89367848914539     -0.01193244724656
  H   -0.21064735298739      0.00820321231186     -1.50416904104166
  H   0.14034560123722     -0.61668114619673      1.47930040660163
  N   1.71896348470770      0.10843442556863      0.28775498266442
  O   2.19247565646810      0.14501058106520     -0.84285683107063
  O   2.18119980707078      0.60190390308137      1.31108561810881
  C   -0.75704883849624      1.47253264880767     -0.10143004495405
  N   -0.85093784924696      2.59747601074219      0.22082948767579
  C   -1.89196081583112     -0.64129981360842     -0.41983334513841
  N   -2.91089251521949     -1.22042044411035     -0.35756784602250
