17

C	-0.3431	0.064419	-1.500118
C	0.0	0.0	0.0
F	-0.085466	-1.255433	-1.967419
H	1.090781	0.0	0.0
N	-1.692098	0.423259	-1.763562
H	-2.315331	-0.19444	-1.256914
H	-1.873229	0.350593	-2.75767
C	0.660188	0.96562	-2.184128
H	0.58259	0.841216	-3.268798
H	0.453912	2.006281	-1.925551
H	1.652533	0.688938	-1.814492
N	-0.574524	-1.255705	0.576558
O	0.196887	-2.111747	0.988354
O	-1.807801	-1.360754	0.583718
C	-0.532255	1.134437	0.728198
N	-0.915949	2.069766	1.327782
F	2.557027	0.0	0.0
