17

C	-0.420678	0.022728	-1.475729
C	0.0	0.0	0.0
F	-0.104866	-1.276649	-1.955134
H	1.090809	0.0	0.0
N	-1.803962	0.287274	-1.663535
H	-2.047549	0.147188	-2.637144
H	-2.357485	-0.332566	-1.084783
C	0.476092	0.988823	-2.211818
H	0.347965	0.863818	-3.290054
H	0.21175	2.010878	-1.936125
H	1.500855	0.779601	-1.903458
N	-0.539206	-1.238715	0.647557
O	-1.761499	-1.304167	0.827392
O	0.250247	-2.12286	0.944036
C	-0.511277	1.152922	0.717113
N	-0.865342	2.106701	1.305236
F	2.541729	0.0	0.0
