17

C	-0.381543	-0.056644	-1.508735
C	0.0	0.0	0.0
F	-0.133889	-1.379298	-1.880711
H	1.090762	0.0	0.0
N	-1.752134	0.214385	-1.841088
H	-2.358049	-0.185806	-1.130797
H	-1.902454	1.213386	-1.845373
C	0.586409	0.832785	-2.258054
H	0.482003	0.651122	-3.330105
H	1.58939	0.595356	-1.892767
H	0.378515	1.88555	-2.044286
N	-0.592969	-1.181357	0.677616
O	-1.805266	-1.136317	0.931382
O	0.127089	-2.14868	0.891123
C	-0.531692	1.217021	0.584616
N	-0.934999	2.237184	1.008555
F	2.545493	0.0	0.0
