17

C	-0.374541	0.048088	-1.49036
C	0.0	0.0	0.0
F	-0.089278	-1.262272	-1.965907
H	1.091408	0.0	0.0
N	-1.739663	0.365248	-1.719479
H	-2.330329	-0.257476	-1.181941
H	-1.950124	0.267615	-2.705049
C	0.581474	0.981458	-2.194799
H	1.588433	0.736468	-1.848524
H	0.348094	2.014055	-1.931318
H	0.48585	0.854884	-3.275878
N	-0.555866	-1.256506	0.595152
O	-1.787712	-1.351454	0.670915
O	0.228539	-2.127781	0.943776
C	-0.530113	1.134798	0.729848
N	-0.914756	2.05352	1.353583
F	2.550515	0.0	0.0
