17

C	-0.404229	0.040587	-1.501261
C	0.0	0.0	0.0
F	-0.129462	-1.242719	-1.969171
H	1.091006	0.0	0.0
N	-1.789229	0.283651	-1.803151
H	-2.363318	-0.278502	-1.181892
H	-2.003584	1.255994	-1.613961
C	0.523816	1.013218	-2.191524
H	0.413697	0.899508	-3.271894
H	1.538679	0.78648	-1.850216
H	0.280126	2.041881	-1.910262
N	-0.574936	-1.233053	0.605698
O	-1.793607	-1.241422	0.833487
O	0.172872	-2.182864	0.795618
C	-0.541031	1.162598	0.67303
N	-0.973109	2.141024	1.162086
F	2.542657	0.0	0.0
