17

C	-0.205256	-0.007852	-1.537547
C	0.0	0.0	0.0
F	-0.054151	1.368108	-1.900242
H	1.092021	0.0	0.0
N	0.825226	-0.801124	-2.07223
H	0.914259	-0.649717	-3.068402
H	1.701454	-0.598575	-1.563487
C	-1.588326	-0.389101	-2.015157
H	-1.631504	-0.291331	-3.103918
H	-2.333509	0.275924	-1.573862
H	-1.814936	-1.420684	-1.745544
N	-0.512156	-1.27186	0.578102
O	-1.625854	-1.261877	1.115651
O	0.193898	-2.268174	0.457709
C	-0.630461	1.129875	0.64472
N	-1.113333	2.060061	1.176291
F	2.562341	0.0	0.0
