17

C	0.0	0.0	0.0
C	-0.33395	-0.051673	-1.537215
Cl	1.774537	0.0	0.0
H	0.073601	-1.00172	-1.900978
N	-0.921623	1.029525	0.54289
O	-0.88993	1.141822	1.832039
O	-1.00497	2.101995	-0.198265
C	-0.287122	-1.30411	0.776235
H	0.114163	-2.154489	0.236469
H	0.196063	-1.214956	1.750295
H	-1.358401	-1.434551	0.940742
C	0.322816	1.031582	-2.29326
N	0.745375	1.787016	-3.08358
N	-1.771331	-0.050733	-1.823548
H	-1.901667	-0.233888	-2.814572
H	-2.074663	0.905142	-1.641657
H	-1.838272	0.0	0.0
