17

C	0.0	0.0	0.0
C	-0.652766	0.012311	-1.368471
Cl	1.759459	0.0	0.0
H	-1.76099	0.118916	-1.066314
N	-0.390242	1.309515	0.722484
O	-0.064569	1.38341	1.904375
O	-0.987859	2.173337	0.097773
C	-0.533535	-1.136449	0.83934
H	-1.63241	-1.030825	0.82679
H	-0.237798	-2.088211	0.394848
H	-0.141131	-1.066101	1.852947
C	-0.503814	-1.294916	-1.998546
N	-0.359592	-2.312306	-2.571939
N	-0.164486	1.07764	-2.237007
H	0.32183	0.697012	-3.037742
H	-0.951083	1.629507	-2.551564
H	-3.135594	0.0	0.0
