17

C	0.0	0.0	0.0
C	-0.659396	-0.159417	-1.375237
Cl	1.763668	0.0	0.0
H	-1.771699	-0.063086	-1.055039
N	-0.381937	1.365912	0.601715
O	-0.426428	2.332806	-0.153512
O	-0.534745	1.424223	1.813799
C	-0.497556	-1.076847	0.934848
H	-1.595519	-0.992126	0.933581
H	-0.185944	-2.050653	0.556285
H	-0.09727	-0.929385	1.93596
C	-0.439334	-1.524309	-1.84409
N	-0.274053	-2.617161	-2.24645
N	-0.338897	0.755154	-2.452644
H	0.664778	0.902624	-2.492722
H	-0.765448	1.644378	-2.23167
H	-3.050821	0.0	0.0
