14

C	-0.506673	0.04257	-1.440525
C	0.0	0.0	0.0
Cl	0.045367	-1.385601	-2.3803
H	1.095415	0.0	0.0
H	-1.601011	0.004577	-1.469654
C	-0.089094	1.260262	-2.136035
N	0.184569	2.236951	-2.730055
C	-0.529254	-1.186734	0.651674
N	-0.956263	-2.132418	1.207704
C	-0.406989	1.261894	0.762443
H	0.103115	2.123671	0.322231
H	-1.488415	1.43663	0.764584
H	-0.061874	1.170959	1.793366
H	2.678985	0.0	0.0
