14

C	-0.519089	0.038796	-1.435825
C	0.0	0.0	0.0
Cl	0.040402	-1.376453	-2.384553
H	1.095452	0.0	0.0
H	-1.612727	-0.014263	-1.453275
C	-0.138826	1.269248	-2.133327
N	0.088127	2.262125	-2.71859
C	-0.516473	-1.187521	0.659615
N	-0.92645	-2.128029	1.235679
C	-0.401958	1.260918	0.766658
H	-0.040686	1.171479	1.793466
H	-1.484416	1.430016	0.784145
H	0.097771	2.124594	0.3214
H	2.677138	0.0	0.0
