14

C	-0.503176	0.058692	-1.441927
C	0.0	0.0	0.0
Cl	0.035972	-1.360179	-2.396995
H	1.095488	0.0	0.0
H	-1.597499	0.027022	-1.470137
C	-0.078524	1.285197	-2.123106
N	0.241928	2.255196	-2.701772
C	-0.531316	-1.193323	0.635658
N	-0.969076	-2.14733	1.168357
C	-0.406485	1.254557	0.770601
H	-1.487676	1.439465	0.765638
H	0.117979	2.115816	0.351543
H	-0.073615	1.148602	1.805632
H	2.678802	0.0	0.0
