14

C	-0.406028	-0.003249	-1.475978
C	0.0	0.0	0.0
Cl	0.124494	1.496004	-2.306341
H	1.095736	0.0	0.0
H	0.124435	-0.821139	-1.972161
C	-1.84773	-0.149821	-1.677099
N	-3.008674	-0.27017	-1.817454
C	-0.443907	-1.259919	0.577084
N	-0.785153	-2.281477	1.050874
C	-0.509362	1.191227	0.799985
H	-0.062787	2.105986	0.408297
H	-0.181065	1.082151	1.835804
H	-1.600359	1.279377	0.781448
H	2.687663	0.0	0.0
