14

C	-0.409486	-0.014601	-1.475135
C	0.0	0.0	0.0
Cl	0.127898	1.472279	-2.320048
H	1.095743	0.0	0.0
H	0.112681	-0.841412	-1.964817
C	-1.853326	-0.152757	-1.670319
N	-3.015367	-0.265945	-1.806868
C	-0.444154	-1.254436	0.588518
N	-0.781861	-2.271988	1.07326
C	-0.507341	1.198712	0.790091
H	-0.063568	2.109783	0.387218
H	-1.598431	1.285361	0.775965
H	-0.174001	1.100193	1.825235
H	2.687078	0.0	0.0
