14

C	-0.405312	-0.01368	-1.476175
C	0.0	0.0	0.0
Cl	0.124887	1.479932	-2.316276
H	1.095749	0.0	0.0
H	0.125958	-0.834558	-1.966286
C	-1.846447	-0.162767	-1.677604
N	-3.006311	-0.288128	-1.820624
C	-0.444539	-1.255484	0.585944
N	-0.786666	-2.27341	1.066901
C	-0.509152	1.197348	0.790893
H	-0.060902	2.108856	0.393459
H	-1.599952	1.286785	0.770244
H	-0.182292	1.095089	1.827761
H	2.687428	0.0	0.0
