14

C	-0.304886	0.077573	-1.481335
C	0.0	0.0	0.0
Cl	-2.023096	0.509212	-1.87523
H	1.097459	0.0	0.0
H	0.308149	0.886551	-1.890478
C	0.019998	-1.155947	-2.192833
N	0.242728	-2.152087	-2.772968
C	-0.547004	-1.188698	0.620161
N	-0.993837	-2.137343	1.154081
C	-0.380756	1.269746	0.752455
H	0.101012	2.12314	0.266441
H	0.018737	1.205774	1.767018
H	-1.459326	1.435515	0.796111
H	2.633185	0.0	0.0
