14

C	-0.405316	-0.014794	-1.475955
C	0.0	0.0	0.0
Cl	0.125746	1.477632	-2.316867
H	1.09583	0.0	0.0
H	0.125244	-0.836531	-1.965622
C	-1.847132	-0.162659	-1.677171
N	-3.007635	-0.283848	-1.819021
C	-0.444089	-1.254991	0.587189
N	-0.78239	-2.273039	1.070397
C	-0.509024	1.198062	0.789628
H	-0.060283	2.108887	0.391435
H	-0.182281	1.096695	1.826373
H	-1.599778	1.288207	0.768873
H	2.686167	0.0	0.0
