18

C	-0.5154	0.001658	-1.452536
C	0.0	0.0	0.0
Cl	0.22374	1.366985	-2.361795
H	1.091088	0.0	0.0
C	-0.067234	-1.23941	-2.090297
N	0.203629	-2.259227	-2.608616
C	-2.031967	0.111284	-1.598748
H	-2.38188	1.053609	-1.179788
H	-2.295887	0.070569	-2.656441
H	-2.524265	-0.711597	-1.077701
C	-0.464537	-1.207709	0.79667
H	-0.042285	-2.109948	0.351447
H	-1.549251	-1.289118	0.862321
H	-0.059673	-1.12413	1.807076
N	-0.47901	1.250396	0.670509
O	-1.612422	1.227945	1.167774
O	0.264515	2.225358	0.675919
Cl	3.313672	0.0	0.0
