18

C	-0.427252	-0.048517	-1.467524
C	0.0	0.0	0.0
Cl	-2.238797	0.058821	-1.592398
H	1.095303	0.0	0.0
C	0.105524	1.04586	-2.286044
N	0.524535	1.809422	-3.075111
C	0.026802	-1.361527	-2.101787
H	-0.502959	-2.200791	-1.652458
H	-0.184749	-1.344333	-3.171498
H	1.103055	-1.46421	-1.936708
C	-0.461281	-1.182698	0.825256
H	-0.163287	-1.022683	1.859747
H	0.049964	-2.079611	0.475817
H	-1.542369	-1.325705	0.790932
N	-0.451595	1.288231	0.616341
O	-1.076541	1.246594	1.676987
O	-0.156509	2.322649	0.023004
Cl	3.236214	0.0	0.0
