18

C	-0.507891	-0.013175	-1.455947
C	0.0	0.0	0.0
Cl	0.213814	1.36265	-2.362909
H	1.091042	0.0	0.0
C	-0.038541	-1.249119	-2.087439
N	0.254996	-2.275118	-2.579488
C	-2.025289	0.066293	-1.616444
H	-2.400037	0.998955	-1.197879
H	-2.276241	0.022143	-2.677234
H	-2.503617	-0.770415	-1.104475
C	-0.470198	-1.198186	0.806726
H	-0.057524	-1.112956	1.81378
H	-1.555157	-1.267121	0.879259
H	-0.060708	-2.107629	0.36437
N	-0.480724	1.257577	0.656797
O	0.274522	2.222536	0.682958
O	-1.6257	1.248903	1.12642
Cl	3.314855	0.0	0.0
