18

C	-0.401443	-0.037824	-1.477349
C	0.0	0.0	0.0
Cl	-2.212993	-0.113332	-1.637423
H	1.093726	0.0	0.0
C	0.016598	1.140266	-2.245457
N	0.311686	1.982573	-3.010254
C	0.209828	-1.266753	-2.146661
H	0.019889	-1.234911	-3.220332
H	1.287131	-1.252188	-1.955309
H	-0.226674	-2.17768	-1.739613
C	-0.450346	-1.199175	0.80758
H	-0.136556	-1.056369	1.840606
H	-1.530621	-1.343344	0.787042
H	0.057119	-2.089678	0.436956
N	-0.476075	1.270223	0.630204
O	-1.216897	1.194546	1.611993
O	-0.091029	2.322322	0.126372
Cl	3.251511	0.0	0.0
