18

C	-0.395525	-0.032316	-1.479817
C	0.0	0.0	0.0
Cl	-2.207056	-0.069919	-1.658593
H	1.093742	0.0	0.0
C	0.059849	1.146022	-2.224406
N	0.440099	2.012037	-2.921884
C	0.193539	-1.273913	-2.144521
H	0.009425	-1.240885	-3.219141
H	1.270421	-1.283122	-1.948128
H	-0.268257	-2.172967	-1.736294
C	-0.470572	-1.192315	0.805466
H	0.06706	-2.08008	0.471739
H	-0.207596	-1.029533	1.850673
H	-1.546712	-1.351493	0.738689
N	-0.476781	1.276762	0.618244
O	-1.369217	1.216186	1.465852
O	0.049302	2.31457	0.227908
Cl	3.264324	0.0	0.0
