18

C	-0.398065	-0.043015	-1.478027
C	0.0	0.0	0.0
Cl	-2.209854	-0.106751	-1.644767
H	1.093654	0.0	0.0
C	0.03035	1.130424	-2.247573
N	0.327766	1.972409	-3.011807
C	0.208629	-1.278825	-2.139813
H	1.285446	-1.268595	-1.944211
H	-0.235257	-2.185458	-1.730051
H	0.022813	-1.251491	-3.21429
C	-0.452204	-1.195945	0.810675
H	-0.149849	-1.04536	1.846433
H	-1.531117	-1.347221	0.779951
H	0.065409	-2.084882	0.450878
N	-0.479226	1.272196	0.62297
O	-1.247782	1.200254	1.583124
O	-0.072221	2.32163	0.132495
Cl	3.252386	0.0	0.0
