18

C	-0.529166	-0.01203	-1.448557
C	0.0	0.0	0.0
Cl	0.34742	1.169172	-2.482854
H	1.094618	0.0	0.0
C	-0.236684	-1.332557	-2.02331
N	-0.095336	-2.388936	-2.518821
C	-2.035469	0.225467	-1.587084
H	-2.276414	1.23716	-1.267467
H	-2.323864	0.097637	-2.631884
H	-2.582299	-0.502084	-0.980073
C	-0.452507	-1.205662	0.813422
H	0.043397	-1.171111	1.780982
H	-1.534657	-1.223231	0.97309
H	-0.143137	-2.122534	0.311804
N	-0.395016	1.24957	0.733062
O	-0.306984	1.217677	1.958777
O	-0.736464	2.2439	0.092619
Cl	3.243981	0.0	0.0
