16

C	0.0	0.0	0.0
C	-0.538568	0.02566	-1.420576
Cl	1.785383	0.0	0.0
H	-1.627077	-0.052781	-1.313841
H	-0.174179	-0.854728	-1.955656
C	-0.519999	1.124244	0.851057
H	-0.099685	1.077345	1.85359
H	-0.247171	2.059515	0.364478
H	-1.609661	1.03415	0.891386
N	-0.354243	-1.346746	0.641035
O	-0.4364	-1.384181	1.862279
O	-0.469507	-2.312176	-0.108128
N	-0.183668	1.29268	-2.057437
H	0.647464	1.176823	-2.620585
H	-0.940317	1.581036	-2.662029
Br	-3.997358	0.0	0.0
