16

C	0.0	0.0	0.0
C	-0.399799	-0.257721	-1.471837
Cl	1.783294	0.0	0.0
H	0.217415	-1.083902	-1.829221
H	-0.073856	0.638733	-2.012426
C	-0.605538	1.233166	0.606452
H	-1.693362	1.101956	0.62774
H	-0.243579	1.401739	1.618287
H	-0.357334	2.092045	-0.020254
N	-0.364762	-1.217891	0.849493
O	-0.38931	-2.306646	0.283357
O	-0.550059	-1.034908	2.0473
N	-1.77077	-0.538106	-1.78075
H	-2.077804	-1.393701	-1.338844
H	-2.430467	0.16717	-1.468063
Br	-4.533867	0.0	0.0
