16

C	0.0	0.0	0.0
C	-0.402966	-0.326552	-1.456264
Cl	1.783358	0.0	0.0
H	0.190611	-1.19024	-1.760037
H	-0.047776	0.527447	-2.044468
C	-0.597828	1.264471	0.549059
H	-1.686994	1.14323	0.577825
H	-0.233721	1.472898	1.553394
H	-0.341373	2.092102	-0.115039
N	-0.364529	-1.174157	0.910957
O	-0.514864	-0.935932	2.104431
O	-0.42439	-2.28635	0.394414
N	-1.779986	-0.582148	-1.752218
H	-2.118051	-1.400317	-1.263588
H	-2.418331	0.159847	-1.485555
Br	-4.544876	0.0	0.0
