16

C	-0.616444	-0.01388	-1.38091
C	0.0	0.0	0.0
Br	0.147401	1.450555	-2.434615
H	1.092663	0.0	0.0
H	-0.344607	0.930465	0.468856
N	-0.221721	-1.291	-2.12134
O	0.71457	-1.944065	-1.681637
O	-0.876596	-1.579653	-3.124978
C	-2.125701	0.090441	-1.403842
H	-2.417327	1.02572	-0.922019
H	-2.521244	-0.74996	-0.829557
H	-2.515671	0.066588	-2.419479
N	-0.519241	-1.179387	0.730071
H	0.288909	-1.776425	0.868253
H	-0.830074	-0.890995	1.648837
F	2.662155	0.0	0.0
