16

C	-0.211739	-0.015409	-1.518897
C	0.0	0.0	0.0
Br	-0.017677	-1.840809	-2.224992
H	1.094043	0.0	0.0
H	-0.353295	0.986869	0.328535
N	-1.62756	0.369326	-1.929931
O	-1.786505	1.01516	-2.96455
O	-2.544333	0.008517	-1.191353
C	0.823016	0.875717	-2.168667
H	0.815436	0.799451	-3.253873
H	1.782436	0.586374	-1.712101
H	0.612077	1.911843	-1.881848
N	-0.564315	-1.038676	0.830798
H	-1.499053	-1.274254	0.526253
H	0.022132	-1.8585	0.75728
F	2.72745	0.0	0.0
