16

C	-0.3329	-0.022492	-1.4743
C	0.0	0.0	0.0
Br	-2.207285	-0.561472	-1.808682
H	1.095213	0.0	0.0
H	-0.328815	-0.965078	0.400142
N	-0.151639	1.367547	-2.074191
O	-0.758147	1.658604	-3.102146
O	0.685705	2.076478	-1.527715
C	0.643553	-0.93052	-2.199662
H	0.453332	-1.964154	-1.903866
H	0.543732	-0.842721	-3.283436
H	1.638244	-0.643407	-1.824984
N	-0.622903	1.117573	0.705928
H	0.121626	1.75221	0.960935
H	-1.048072	0.787836	1.559827
F	2.70562	0.0	0.0
