16

C	-0.262769	-0.008924	-1.490567
C	0.0	0.0	0.0
Br	-2.121198	-0.520366	-1.936901
H	1.095951	0.0	0.0
H	-0.328566	-0.976691	0.369228
N	-0.044015	1.377125	-2.08619
O	0.628197	2.157657	-1.421122
O	-0.464269	1.598971	-3.219157
C	0.74362	-0.921944	-2.16697
H	1.721919	-0.638139	-1.741737
H	0.540256	-1.953568	-1.874873
H	0.697193	-0.831109	-3.254554
N	-0.677223	1.08093	0.712448
H	0.024192	1.784147	0.90534
H	-1.014122	0.732813	1.601011
F	2.723604	0.0	0.0
