16

C	-0.462825	0.019176	-1.460209
C	0.0	0.0	0.0
Br	0.270042	1.574718	-2.378632
H	1.090329	0.0	0.0
H	-0.404908	-0.923967	0.427574
N	0.075261	-1.250517	-2.112987
O	-0.419054	-2.283401	-1.656365
O	0.911253	-1.205533	-3.002469
C	-1.968714	0.011728	-1.675084
H	-2.215985	-0.038858	-2.738419
H	-2.400477	0.929151	-1.272357
H	-2.397432	-0.848534	-1.15834
N	-0.408212	1.156278	0.785762
H	-1.282259	1.569638	0.485361
H	0.3257	1.846776	0.694076
F	2.640243	0.0	0.0
