16

C	-0.210469	0.024935	-1.514684
C	0.0	0.0	0.0
Br	-0.020709	-1.80085	-2.214441
H	1.093639	0.0	0.0
H	-0.461411	-0.878686	0.448974
N	-1.636558	0.413101	-1.895327
O	-2.542821	0.01741	-1.163124
O	-1.806469	1.107798	-2.897466
C	0.809315	0.919908	-2.182336
H	0.806225	0.82309	-3.266297
H	1.771642	0.64242	-1.723612
H	0.58412	1.95887	-1.923563
N	-0.421565	1.221345	0.670827
H	0.285734	1.93258	0.546033
H	-1.323208	1.561656	0.363739
F	2.712199	0.0	0.0
