16
Coordinates from ORCA-job run
  C   0.33940979070862     -0.37455775860801      0.38815947345060
  C   -0.04808558116108      0.70816095512994     -0.60789774961609
  F   0.87418929075063      0.30667071614595      1.52436201354871
  H   0.84977575313384      1.30350558339365     -0.79784919068689
  H   -0.32537435112899      0.21997620795954     -1.54649266384484
  N   -0.78672969736798     -1.15725197973475      0.76699411365054
  H   -1.48389766547097     -0.58058250884921      1.22038162280743
  H   -0.50607431101758     -1.88115877519501      1.41742595519656
  C   1.45262585391421     -1.26536943232506     -0.12076746354791
  H   1.75183886045614     -1.96868966761766      0.66050528929338
  H   2.32233591877426     -0.66208227315527     -0.38400784221757
  H   1.12034454799078     -1.82644420735094     -0.99479951858132
  C   -1.17542182695487      1.61612915037391     -0.12656797923140
  H   -0.95034316714094      2.01473662401875      0.86429217531375
  H   -2.13006574440727      1.08667603473060     -0.08678137803850
  H   -1.30452767107881      2.46028133108356     -0.80695685749646
