16
Coordinates from ORCA-job run
  C   -0.06427577027487     -0.58584228990807      0.41353216733285
  C   -0.75671902119178      0.41755930550982     -0.49709440641838
  F   -0.39384619977364     -0.20573987504406      1.74965368628799
  H   -1.83427778817303      0.31968497752533     -0.32036237394030
  H   -0.57271310757209      0.11236493019234     -1.53083492409647
  N   -0.54976468357850     -1.89506602609079      0.13836991637706
  H   -0.14728075395524     -2.56359721075354      0.78415917283971
  H   -1.55770991166952     -1.92394860311383      0.23471977327546
  C   1.44748285798297     -0.56253857927216      0.33683794223117
  H   1.86141025069953     -1.33306153903300      0.99208264458142
  H   1.77779592749156     -0.75630365741535     -0.68460547698574
  H   1.83272655491274      0.40065438959365      0.66943816609724
  C   -0.33634825402932      1.86490587624424     -0.27013939982563
  H   0.69887046816743      2.03799618416135     -0.57062801017400
  H   -0.96373265082994      2.54001984521362     -0.85620753736465
  H   -0.43961791820631      2.13291227219046      0.78207865978226
