16
Coordinates from ORCA-job run
  C   0.36130633504884     -0.34001400543559      0.73560185784684
  C   -0.00295373897634      1.09955898590422      0.40789969119946
  F   1.17546477624265     -0.29497067531797      1.87317261653291
  H   -0.43993634767146      1.51537573417479      1.31928754282582
  H   0.93034020383553      1.63790219023018      0.21674495054466
  N   -0.81907628605402     -1.07194039411412      1.13975432416589
  H   -0.54869873639567     -2.01122191186025      1.41110447720312
  H   -1.46342766165968     -1.15040353815305      0.36293231280271
  C   1.19662121201851     -1.02258709335239     -0.33736828772387
  H   1.51294856446886     -2.00312717998747      0.02650081435998
  H   0.62091447673274     -1.16434230204433     -1.25401908095809
  H   2.08982448299075     -0.43710366932523     -0.56693617417846
  C   -0.96392684279035      1.26804763505133     -0.76482869555864
  H   -1.93805589900551      0.82150515204565     -0.55230907254202
  H   -0.57262989874796      0.82648664196186     -1.68420997471285
  H   -1.13771464003689      2.32783443022238     -0.96232730180744
