16
Coordinates from ORCA-job run
  C   0.41672272746027     -0.42783449071874      0.69781581684118
  C   0.02178239913755      1.03044620562106      0.48227789386635
  F   1.28853009582719     -0.39857173738799      1.79948949371320
  H   -0.43469540275952      1.37411836232931      1.41794448862048
  H   0.93673195735368      1.61618008685645      0.35046882800869
  N   -0.66918029350554     -1.29666932100736      1.05595680057994
  H   -1.11119824040693     -1.70574399611733      0.24598913338697
  H   -1.36393976189107     -0.81888346731839      1.61540539445869
  C   1.19438931221554     -1.03143990879401     -0.45386481247271
  H   0.59116152680140     -1.09581727749258     -1.36157477375508
  H   2.07747600444205     -0.42572141258997     -0.66159995072024
  H   1.51582495122287     -2.03427318955251     -0.16935344568593
  C   -0.93008191262835      1.25530470312464     -0.68682173292007
  H   -0.46010642819638      1.01258311592891     -1.64213373055297
  H   -1.24258260982474      2.30056220336558     -0.73303060156046
  H   -1.83183432524802      0.64676012375292     -0.58696880180804
