17

C	-0.391882	-0.043109	-1.474037
C	0.0	0.0	0.0
Cl	-2.26909	-0.232391	-1.582292
H	1.101748	0.0	0.0
N	0.018207	1.150541	-2.099446
H	-0.381705	1.261979	-3.021172
H	-0.202136	1.93261	-1.492977
N	0.1203	-1.253625	-2.070112
H	1.135956	-1.154806	-2.069016
H	-0.202795	-1.326167	-3.030338
N	-0.525551	-1.166275	0.710038
H	-0.56093	-1.933242	0.044987
H	0.167813	-1.422502	1.405614
N	-0.447273	1.255881	0.584508
H	-1.35423	1.0797	1.004739
H	0.20085	1.51589	1.317984
Cl	3.490687	0.0	0.0
