17

C	-0.405405	-0.048506	-1.477318
C	0.0	0.0	0.0
Cl	0.075839	1.712694	-2.220963
H	1.099119	0.0	0.0
N	0.348108	-1.025761	-2.14609
H	1.335296	-0.884178	-1.938033
H	0.209008	-0.993691	-3.147933
N	-1.803699	-0.188927	-1.616666
H	-2.224828	0.539822	-1.048541
H	-2.097711	-0.080359	-2.579147
N	-0.424256	-1.212784	0.687899
H	0.281616	-1.919986	0.529187
H	-1.288591	-1.539137	0.270176
N	-0.658702	1.128056	0.648712
H	-0.576289	0.948893	1.64227
H	-0.139593	1.972586	0.437442
Cl	3.480071	0.0	0.0
