17

C	-0.496972	-0.066837	-1.445954
C	0.0	0.0	0.0
Cl	0.126444	-1.680333	-2.149759
H	1.092103	0.0	0.0
N	-1.910699	0.009245	-1.475295
H	-2.235719	-0.055687	-2.429753
H	-2.297279	-0.729572	-0.903042
N	0.05397	0.954918	-2.294058
H	-0.107803	1.81499	-1.777953
H	1.061289	0.821415	-2.323578
N	-0.574185	-1.113923	0.777254
H	-0.297869	-0.963672	1.743631
H	-0.097073	-1.963033	0.482661
N	-0.412661	1.288563	0.524022
H	-1.371971	1.238525	0.843731
H	0.199806	1.547669	1.285814
Cl	3.491903	0.0	0.0
