17

C	-0.256495	0.039952	-1.506901
C	0.0	0.0	0.0
Cl	-2.054311	0.078419	-1.825537
H	1.105951	0.0	0.0
N	0.314871	1.256079	-2.026053
H	1.282294	1.292616	-1.702671
H	0.320235	1.1878	-3.038467
N	0.251514	-1.132181	-2.182143
H	-0.091092	-1.933491	-1.657343
H	1.261357	-1.110283	-2.035384
N	-0.466946	-1.254604	0.56209
H	-1.381626	-1.076688	0.960912
H	0.157914	-1.523993	1.311473
N	-0.559056	1.167573	0.680091
H	-0.625504	1.920827	0.003259
H	0.111019	1.463033	1.382395
Cl	3.419558	0.0	0.0
