16

C	-0.253801	-0.103864	-1.501732
C	0.0	0.0	0.0
F	-1.567231	-0.516896	-1.787692
H	1.097389	0.0	0.0
C	-0.158451	1.238145	-2.144192
N	-0.047978	2.28039	-2.676487
N	0.665726	-1.050473	-2.023853
H	1.580115	-0.905805	-1.566348
H	0.763005	-0.962853	-3.026811
C	-0.470919	-1.214956	0.643861
N	-0.847313	-2.16041	1.232537
C	-0.549371	1.247423	0.67743
H	-1.625129	1.36219	0.515196
H	-0.361745	1.187314	1.751365
H	-0.030753	2.130553	0.298711
H	2.713564	0.0	0.0
