16

C	-0.459673	0.02713	-1.45553
C	0.0	0.0	0.0
F	-0.062326	1.218771	-2.032127
H	1.095642	0.0	0.0
C	0.193352	-1.056186	-2.240878
N	0.593544	-1.979017	-2.847928
N	-1.898448	-0.023389	-1.570464
H	-2.162436	-0.189676	-2.536046
H	-2.259376	-0.782662	-1.001326
C	-0.490486	-1.216907	0.62249
N	-0.911333	-2.192929	1.128424
C	-0.435798	1.250783	0.763771
H	-0.007769	2.121182	0.266035
H	-0.012485	1.200064	1.768965
H	-1.518985	1.358185	0.82319
H	2.688599	0.0	0.0
