16

C	-0.239814	-0.036609	-1.510327
C	0.0	0.0	0.0
F	-1.580307	-0.306324	-1.799651
H	1.096658	0.0	0.0
C	0.046399	1.294968	-2.097343
N	0.23691	2.352562	-2.570229
N	0.572177	-1.017975	-2.181381
H	0.308889	-1.923321	-1.79955
H	1.53305	-0.842468	-1.855893
C	-0.460401	-1.256666	0.56377
N	-0.830174	-2.272694	1.027067
C	-0.55602	1.207084	0.741444
H	-0.065846	2.112722	0.378145
H	-1.637665	1.305943	0.613881
H	-0.332831	1.115489	1.806972
H	2.704135	0.0	0.0
