16

C	-0.469613	-0.03955	-1.449451
C	0.0	0.0	0.0
F	0.08338	1.078984	-2.100271
H	1.095244	0.0	0.0
C	0.04553	-1.223239	-2.175331
N	0.375044	-2.153552	-2.81062
N	-1.890175	-0.038359	-1.570567
H	-2.27116	0.746541	-1.057768
H	-2.158599	0.034932	-2.545144
C	-0.48407	-1.167701	0.714711
N	-0.872259	-2.0874	1.336665
C	-0.398791	1.292608	0.71285
H	-1.465768	1.359595	0.950382
H	0.167237	1.342964	1.646021
H	-0.096813	2.144119	0.101668
H	2.697195	0.0	0.0
