13

C	-0.265304	-0.102988	-1.475023
C	0.0	0.0	0.0
Cl	-2.00996	-0.448196	-1.949228
H	1.095197	0.0	0.0
H	0.304426	-0.942114	-1.879393
H	-0.405499	0.932315	0.403762
C	0.124921	1.109683	-2.192068
N	0.405923	2.087963	-2.778107
C	-0.456349	-1.220761	0.778987
H	-0.108375	-1.133693	1.811615
H	0.013151	-2.118037	0.363477
H	-1.541704	-1.367548	0.785522
F	2.627245	0.0	0.0
