13

C	-0.280893	-0.098019	-1.471661
C	0.0	0.0	0.0
Cl	-2.053152	-0.314078	-1.919657
H	1.095238	0.0	0.0
H	0.214518	-0.983801	-1.873744
H	-0.39315	0.938742	0.401021
C	0.191452	1.075215	-2.205997
N	0.520523	2.038316	-2.789782
C	-0.477231	-1.210937	0.781472
H	-0.134398	-1.12691	1.815659
H	-0.021515	-2.117424	0.371057
H	-1.564824	-1.339213	0.783209
F	2.63028	0.0	0.0
