13

C	-0.300669	-0.024344	-1.473958
C	0.0	0.0	0.0
Cl	-2.048443	-0.419344	-1.887498
H	1.095727	0.0	0.0
H	0.287088	-0.813855	-1.944668
H	-0.33708	-0.955216	0.419014
C	0.008	1.238381	-2.144544
N	0.230782	2.251989	-2.693613
C	-0.588228	1.182264	0.745218
H	-0.160373	2.115903	0.369807
H	-1.680381	1.245247	0.668926
H	-0.322858	1.113126	1.803271
F	2.641788	0.0	0.0
