13

C	-0.363637	0.066899	-1.47249
C	0.0	0.0	0.0
Cl	0.020524	-1.479477	-2.309786
H	1.093252	0.0	0.0
H	0.271515	0.819588	-1.946383
H	-0.419565	-0.908741	0.441934
C	-1.769843	0.378373	-1.743706
N	-2.900713	0.650871	-1.91184
C	-0.455462	1.25411	0.73595
H	-1.54128	1.405665	0.749142
H	-0.098734	1.202387	1.767685
H	0.014408	2.136365	0.289823
F	2.662922	0.0	0.0
