12
Coordinates from ORCA-job run
  C   -0.53736644379591      0.23848024126920      0.03952244317405
  C   0.68218480619731      0.08872019391886     -0.88148898371037
  Br  -1.94489134924773      1.15634091958490     -1.10815078452717
  H   0.40484795621088     -0.54607024109714     -1.72849537812939
  H   0.96326782438213      1.06500885400919     -1.28105308385509
  N   -0.93930485046624     -1.00784334743592      0.55299109445423
  H   -1.70316016742226     -0.93952655749355      1.21255703291233
  H   -1.16207321809836     -1.67283871411446     -0.17713063603229
  C   -0.26739375175354      1.17406088775325      1.13022235577243
  N   -0.03930582541243      1.91703716855357      2.01165023284497
  C   1.81184639601923     -0.50290683390178     -0.16577613566598
  N   2.73134862338692     -0.96846257104613      0.39515184276227
