12
Coordinates from ORCA-job run
  C   -0.45317965611343      0.31273339711171      0.01376583007042
  C   1.07005022006352      0.12006307722634     -0.01337151297892
  Br  -0.99623595698343      1.40093584497462     -1.52112451729950
  H   1.36297867962398     -0.43189959599479      0.88783709891014
  H   1.56502369268436      1.09341473130004      0.02190466648397
  N   -1.10715432456084     -0.96376072025311     -0.09282360709413
  H   -0.84508457562582     -1.55759621794303      0.68799990649899
  H   -2.11490596661408     -0.85822475603010     -0.10324417779980
  C   -0.80458571795327      1.08265373476653      1.21953293119886
  N   -1.08840456909541      1.62820976100259      2.22234998079035
  C   1.50879156475040     -0.61848892348326     -1.19389870979436
  N   1.90370660982402     -1.20804033267755     -2.12792788898602
