12
Coordinates from ORCA-job run
  C   -0.61755983036012      0.32705251444574     -0.02237667823260
  C   0.65726613850365      0.10237341372457     -0.87103884075011
  Br  -1.90967376698544      1.21349741269655     -1.21599034189505
  H   1.06327930995977      1.05561082292852     -1.21889369495061
  H   0.38889535390557     -0.49211313249675     -1.74900621682079
  N   -1.23470946233780     -0.85219282979280      0.51102952303359
  H   -1.41036845458248     -1.53419688270999     -0.21727108799484
  H   -0.66190966219340     -1.26136584628490      1.24136185180939
  C   -0.31593839428900      1.25067757032207      1.07436819111240
  N   -0.03344729303733      1.99176138355149      1.94132760581779
  C   1.65319494845939     -0.61339837383670     -0.07604446413693
  N   2.41997111295718     -1.18770605254778      0.60253415300778
