12
Coordinates from ORCA-job run
  C   -0.57808267308664      0.26932066903206     -0.13498309518792
  C   0.75216590092836      0.10012303236387     -0.88461627627892
  Br  -1.84246753708964      1.12064120675178     -1.36888804269464
  H   0.55877731756411     -0.51576172319329     -1.76608397791434
  H   1.13028893603574      1.07305639852849     -1.20586862609762
  N   -1.10076535144880     -1.02571871590292      0.21554945218021
  H   -0.45620048768081     -1.49816938306625      0.84359324217943
  H   -1.99726563923187     -0.93594051532674      0.67995037865822
  C   -0.41223273341323      1.19172178601671      0.99979705795527
  N   -0.27344833059562      1.87501357094640      1.94716713707142
  C   1.73307607910490     -0.55944773088851     -0.02401921366581
  N   2.48715451891350     -1.09583859526159      0.69840196379469
