12
Coordinates from ORCA-job run
  C   -0.54531250808965      0.21755243509314      0.05641834065725
  C   0.64271658220963      0.09691413497602     -0.90851146273503
  Br  -2.03425305209180      1.04830386002101     -1.05563352987202
  H   0.36033771305990     -0.56973559006248     -1.72896041508485
  H   0.86602107527259      1.07395159698319     -1.34121542262297
  N   -0.87396404978083     -1.03148335835004      0.61300318621237
  H   -1.09405214529260     -1.72302422162059     -0.09276776869491
  H   -1.61486896998380     -0.97974764675462      1.29981676626037
  C   -0.27416245459143      1.18968827705877      1.11439281549196
  N   -0.04407538904394      1.95888308947305      1.97251138143737
  C   1.82412274902253     -0.43004221183935     -0.22626836474525
  N   2.78549044930939     -0.85026036497808      0.29921447369566
