12
Coordinates from ORCA-job run
  C   -0.58428109801017      0.26766812113688     -0.11191295044022
  C   0.71467222465758      0.10037883730505     -0.91494603270203
  Br  -1.90139876944551      1.10970554840090     -1.29543340868448
  H   1.07555339396214      1.07363883228653     -1.25451617330428
  H   0.48797775040951     -0.51921664314578     -1.78581608289624
  N   -1.08719714164291     -1.02755893186848      0.26537823481270
  H   -0.41499490498010     -1.49527056228338      0.86750109463384
  H   -1.96336165373871     -0.93886586934136      0.76731903409139
  C   -0.37429733191829      1.19546716938122      1.01156917095502
  N   -0.19718902812355      1.88424727101358      1.94845731882873
  C   1.73219918510222     -0.55367008912974     -0.09348355548263
  N   2.51231737372775     -1.09752368375544      0.59488335018823
