12
Coordinates from ORCA-job run
  C   -0.49987735155105      0.15304383029825     -0.06913495187751
  C   0.81213444509583     -0.55676124024821     -0.42889901586220
  Br  -1.06119459134423      1.26424132507333     -1.57694221904987
  H   1.07497153393437     -1.23042325980062      0.39516552529934
  H   0.62353389220422     -1.16393541803512     -1.31723026754350
  N   -1.51314718748154     -0.85707422640298      0.13666082697073
  H   -1.28386697348261     -1.40216680128821      0.96298363125661
  H   -2.41810807828758     -0.42421496495678      0.28420327614038
  C   -0.30267718583709      1.05196898018622      1.07874539956483
  N   -0.16995727792773      1.70595456703084      2.04745961183652
  C   1.91959377955545      0.36356740267537     -0.66250327238877
  N   2.81859499512196      1.09379980546792     -0.85050854434654
