12
Coordinates from ORCA-job run
  C   -0.61980940667082      0.32498671147661      0.00614064675891
  C   0.61451042762785      0.11103342600858     -0.90324324504324
  Br  -1.97528326655807      1.20110646011901     -1.12177498088933
  H   0.99617392503018      1.06797497573064     -1.26817495794628
  H   0.30961642387287     -0.48451950393342     -1.76846843259640
  N   -1.20140688513941     -0.85949157780312      0.56847151279970
  H   -1.41228244111154     -1.53921229382149     -0.15275000217222
  H   -0.58547308155268     -1.26868387200346      1.26299611195785
  C   -0.27294002739018      1.24866204468747      1.08929443245788
  N   0.04161590820305      1.96863779698755      1.96314310234672
  C   1.65253195624888     -0.59818801199294     -0.15791517455307
  N   2.45274646743991     -1.17230615545539      0.48128098687946
