12
Coordinates from ORCA-job run
  C   -0.53641869852758      0.24286324091596      0.03892833337816
  C   0.64722291474919      0.00062259851041     -0.90911395526834
  Br  -1.98256761200766      1.06151285147514     -1.13606052843766
  H   0.33453275062188     -0.70468439997952     -1.68491193319178
  H   0.91803753299873      0.93515196391648     -1.40429850955580
  N   -0.92334086363849     -0.94822393482030      0.67906653562536
  H   -1.66213590570476     -0.81472269174936      1.35712572333128
  H   -1.17511042399182     -1.67577908422077      0.02174586149329
  C   -0.22121962005900      1.27374081553193      1.02657236528968
  N   0.05495039129526      2.09942620290975      1.81581001571607
  C   1.80105945849314     -0.53155106251011     -0.18545801769436
  N   2.74499007577113     -0.93835649997963      0.38059410931410
