12
Coordinates from ORCA-job run
  C   -0.62970635123167      0.30545941003487     -0.00322678301865
  C   0.61334842616580      0.10936617474081     -0.90476837376256
  Br  -2.00819668719377      1.11435384678598     -1.15480023981826
  H   0.32918478358389     -0.51639107099581     -1.75564311677061
  H   0.96455971141691      1.06882094964318     -1.29283513888721
  N   -1.17506956512336     -0.88341055412431      0.58408776669539
  H   -0.55618382849831     -1.25051451035175      1.29894255045933
  H   -1.35286108075868     -1.58999563584516     -0.11986148488695
  C   -0.31596223748210      1.26455363008943      1.05881160908080
  N   -0.02484537794131      2.01264092357033      1.91690048291461
  C   1.67098039822151     -0.54867137780415     -0.14051540124978
  N   2.48475180884107     -1.08621178574340      0.51290812924389
