12
Coordinates from ORCA-job run
  C   -0.47642502565603      0.12023480969331      0.10671888244642
  C   0.80192640552823     -0.53664245331803     -0.43315154809369
  Br  -1.21715771170988      1.28197089183207     -1.36665088277863
  H   0.53691258515777     -1.16593239420356     -1.28808486298227
  H   1.19185581514267     -1.18147239370326      0.36053188384523
  N   -1.37230478740550     -0.88881784865597      0.54127621602481
  H   -1.64365273376106     -1.49357582548795     -0.22517455775184
  H   -2.20295922792490     -0.49940902206708      0.96991317404995
  C   -0.17405552310271      1.02828782303047      1.21225501293137
  N   0.07278313332832      1.73313639766496      2.11954470260979
  C   1.82266545617603      0.42371025553515     -0.83596000618643
  N   2.66041161422704      1.17850975967990     -1.16021801411471
