12
Coordinates from ORCA-job run
  C   -0.47969971537566      0.39977248183123      0.10301186988608
  C   1.01023777440645      0.11073656294294     -0.21151873835428
  Br  -1.24842261056661      1.30363956759728     -1.46503957548660
  H   1.52640922217127      1.02730433470648     -0.50708860250793
  H   1.48212653241518     -0.26680776187616      0.70280084183929
  N   -1.29917640220641     -0.73963211236784      0.40278600068346
  H   -1.26544307711785     -1.41756034427593     -0.35057129131002
  H   -1.01256747294913     -1.17186187617758      1.27424361879360
  C   -0.52416265226126      1.33665231523528      1.22878287040970
  N   -0.49744696228518      2.05801588594602      2.15582858577411
  C   1.12623581823576     -0.89980389330039     -1.25701961693837
  N   1.18190954553345     -1.73945516026134     -2.07521596278904
