12
Coordinates from ORCA-job run
  C   -0.47097051643037      0.13191599750058      0.11272867086867
  C   0.78120848875412     -0.53345726839222     -0.47565084383621
  Br  -1.15413013388143      1.43691925826641     -1.26596262019546
  H   1.14103645078459     -1.25412084131456      0.26529207955651
  H   0.49364306883652     -1.08217501425865     -1.37746440884829
  N   -1.41069184541016     -0.86927318050566      0.46438945538716
  H   -2.22570276435468     -0.48033023116886      0.92247659135773
  H   -1.70437510331690     -1.39882300157588     -0.34809031932120
  C   -0.13738701981205      0.93627090255190      1.28746285249628
  N   0.12114962469121      1.55272849776076      2.25388116589937
  C   1.84357494355954      0.41195014736866     -0.79852714864656
  N   2.72264480657960      1.15039473376751     -1.04053547471803
