12
Coordinates from ORCA-job run
  C   -0.61283198240021      0.33773909768692     -0.03126751506850
  C   0.61598894033037     -0.00714580414486     -0.90777073825479
  Br  -1.94668007337929      1.11354060576178     -1.25551639160408
  H   0.29585742419866     -0.68817299052630     -1.70142853099697
  H   1.02050843513645      0.89350864638870     -1.37651227567151
  N   -1.22304869433930     -0.76049309711840      0.65956773794666
  H   -0.61957013767441     -1.10181314082978      1.40004970778854
  H   -1.45006820660790     -1.51305037091902      0.02036802494608
  C   -0.24227624157926      1.37018797235077      0.93996117931603
  N   0.10496642147893      2.17845925763819      1.71895992496340
  C   1.63632691101855     -0.65280584333965     -0.08451966761258
  N   2.42182720381742     -1.16995433294839      0.61810854424771
