12
Coordinates from ORCA-job run
  C   -0.41964673741072      0.43641097341150      0.17919203534742
  C   1.03731677454553     -0.04248565537513     -0.04401101232764
  Br  -0.74665425146742      1.92790351912321     -1.05967726555906
  H   1.73699466120790      0.79108274846116      0.05330433053287
  H   1.27402433300595     -0.77885466570969      0.73248202883355
  N   -1.44916979878522     -0.54233254217332     -0.02491066021499
  H   -1.38991059076179     -0.94111002251008     -0.95534670440036
  H   -1.39501981160820     -1.27564784637124      0.67342222952529
  C   -0.51460530912712      0.95794971137603      1.54543204725194
  N   -0.55275259912483      1.32612150668752      2.66056557344472
  C   1.17492769280631     -0.67135294544271     -1.35315517326148
  N   1.24449563671960     -1.18668478147727     -2.40529742917228
