12
Coordinates from ORCA-job run
  C   -0.39526479416182      0.28506953948974      0.24445968440513
  C   1.08042808950590      0.12400020727544     -0.15496636339475
  Br  -1.21313530644041      1.60635707026930     -1.05725704973776
  H   1.56005027661601      1.10208322480410     -0.21925677083144
  H   1.57203899572022     -0.46235029726563      0.62778000687681
  N   -1.04468569845327     -0.96636228975601      0.28334188888021
  H   -2.00157790818907     -0.89668476633813      0.60526272407666
  H   -1.01579346706761     -1.43448175822638     -0.61551559581692
  C   -0.47656255176877      0.93965061831457      1.55004007098181
  N   -0.52381071449861      1.44479289578905      2.60987997810937
  C   1.19882052163338     -0.57905530029592     -1.42852236456626
  N   1.26049255710404     -1.16201914406009     -2.44524620898284
