12
Coordinates from ORCA-job run
  C   -0.54393738775934      0.23483949979579      0.03602880395508
  C   0.72187194292297     -0.51295431129069     -0.44040883067839
  Br  -1.12269806051433      1.41289309694437     -1.42549249099211
  H   0.46129721775645     -1.09537266132799     -1.32896793136698
  H   1.01252367290453     -1.21168333072194      0.35218222180254
  N   -1.64955168743230     -0.62058561768224      0.37605081909828
  H   -1.44374352826319     -1.16306100483396      1.20778829799953
  H   -1.88139192848106     -1.23622119125955     -0.39460286884092
  C   -0.21727475503496      1.06951598189562      1.19449223457707
  N   0.06418683697348      1.68536472408951      2.15492776205125
  C   1.84646176325014      0.36618747543034     -0.74347867918084
  N   2.75225591367762      1.07007733896077     -0.99151933842452
