12
Coordinates from ORCA-job run
  C   -0.41217836313207      0.31118858506386      0.17717687165422
  C   1.05974996940408      0.15917008763110     -0.23947697598986
  Br  -1.37932391419911      1.15803015708690     -1.38982611878869
  H   1.45082817100908      1.11619786029339     -0.58869183838015
  H   1.62245725327140     -0.15369390639453      0.64575612123878
  N   -0.94847032851445     -0.92731913145578      0.58732695918953
  H   -1.89751917463237     -0.84450036614217      0.92875544726842
  H   -0.90621957796771     -1.61999748997357     -0.15180839812925
  C   -0.51183533707405      1.29062375339350      1.25900081422345
  N   -0.56947208102093      2.06351025728419      2.14223046620597
  C   1.20163469395645     -0.85410218643449     -1.28039568410239
  N   1.29034868889968     -1.69910762035240     -2.09004766439000
