12
Coordinates from ORCA-job run
  C   -0.36117170253384      0.32295926471181      0.25210990191474
  C   1.09394221178232     -0.04530403630653     -0.07984172414931
  Br  -0.85344236571269      1.89017387772190     -0.93499916556809
  H   1.42317631863875     -0.78582503587868      0.65600622887249
  H   1.73066307650650      0.83760253092976     -0.00382027426309
  N   -1.20719180523989     -0.79689137569212      0.11272383956923
  H   -1.18985145623972     -1.16810127711162     -0.83055881391131
  H   -2.16065224044124     -0.59938575953930      0.38836006976572
  C   -0.42974939611304      0.84416149295257      1.61722774115824
  N   -0.46356228685261      1.23759806410832      2.72389693342382
  C   1.18959017161090     -0.62370219741034     -1.41657206385313
  N   1.22724947459452     -1.11328554848578     -2.48253267295935
