12
Coordinates from ORCA-job run
  C   -0.44478767997131      0.40933908321610      0.18367473399439
  C   1.03342038632390      0.04198473219305     -0.10219988725525
  Br  -0.96417220443076      1.80606817861112     -1.09905640181571
  H   1.37372018511650     -0.63358469272248      0.69087184054511
  H   1.66343442251768      0.93452977606116     -0.08222107668576
  N   -1.39675844050464     -0.66033993350807      0.08234119885636
  H   -1.35514517872172     -1.09538013336400     -0.83271231145356
  H   -1.23928460190255     -1.35363720262246      0.80555060394832
  C   -0.51117269403241      0.98717762517856      1.52850272407474
  N   -0.52225013833151      1.40554663373275      2.62655851846043
  C   1.15332703585677     -0.63609393607895     -1.38821011045861
  N   1.20966890808005     -1.20361013069682     -2.41409983221045
