12
Coordinates from ORCA-job run
  C   -0.54381308075156      0.22551109944263      0.03057308708900
  C   0.64782805449240     -0.00346014056792     -0.91033979629950
  Br  -2.02013513624975      0.94908975440069     -1.16832812372754
  H   0.88179628270877      0.92238836019280     -1.43932115623501
  H   0.36310096221880     -0.74792681930077     -1.65997909307897
  N   -0.88523726522985     -0.95741057099023      0.71099063844541
  H   -1.10917981265778     -1.71548846810678      0.07849656301962
  H   -1.62942708258027     -0.82893411237777      1.38415271188979
  C   -0.26843441815937      1.29917267250077      0.98409083050852
  N   -0.03285846554039      2.15471367822216      1.75446171653201
  C   1.82131689620788     -0.46675633353807     -0.17089178276270
  N   2.77604306554111     -0.83089911987754      0.40609440461938
