14

C	-0.435875	-0.005568	-1.474139
C	0.0	0.0	0.0
Cl	0.173018	1.43777	-2.333632
H	1.095681	0.0	0.0
H	0.017449	-0.866637	-1.970144
C	-1.890948	-0.06602	-1.624176
N	-3.060546	-0.118993	-1.722753
C	-0.464139	-1.25438	0.590866
N	-0.870137	-2.25218	1.060697
C	-0.515943	1.197159	0.793747
H	-0.112794	2.117199	0.370525
H	-0.161362	1.119592	1.822642
H	-1.608876	1.243796	0.797178
Cl	3.292217	0.0	0.0
