14

C	-0.377588	0.031727	-1.478858
C	0.0	0.0	0.0
Cl	-2.15546	0.226367	-1.740208
H	1.09748	0.0	0.0
H	0.092418	0.91118	-1.926504
C	0.056688	-1.159335	-2.204327
N	0.373603	-2.122215	-2.797513
C	-0.513247	-1.200236	0.649269
N	-0.936589	-2.145305	1.203855
C	-0.43753	1.263596	0.74047
H	-0.021709	1.243069	1.748925
H	-0.027229	2.138824	0.230796
H	-1.523562	1.353713	0.800656
Cl	3.259814	0.0	0.0
