14

C	-0.434255	-0.014809	-1.474717
C	0.0	0.0	0.0
Cl	0.167015	1.427635	-2.34081
H	1.095743	0.0	0.0
H	0.02496	-0.875831	-1.965069
C	-1.888613	-0.084415	-1.626996
N	-3.057677	-0.142292	-1.72862
C	-0.464021	-1.251288	0.597602
N	-0.872105	-2.24595	1.072213
C	-0.518315	1.20146	0.785298
H	-0.11224	2.118901	0.359592
H	-1.611177	1.249262	0.783414
H	-0.168849	1.128378	1.81612
Cl	3.288786	0.0	0.0
