14

C	-0.384096	0.030612	-1.477202
C	0.0	0.0	0.0
Cl	-2.164346	0.218586	-1.728154
H	1.097406	0.0	0.0
H	0.079473	0.912853	-1.926473
C	0.051815	-1.15775	-2.206363
N	0.369228	-2.119348	-2.801845
C	-0.512819	-1.198944	0.65277
N	-0.93294	-2.143774	1.210252
C	-0.435828	1.26508	0.739687
H	-0.021161	1.244154	1.748604
H	-0.022717	2.139039	0.229963
H	-1.521807	1.357764	0.798653
Cl	3.259168	0.0	0.0
