14

C	-0.434472	-0.017549	-1.474608
C	0.0	0.0	0.0
Cl	0.167136	1.423355	-2.342989
H	1.095749	0.0	0.0
H	0.024326	-0.879557	-1.963604
C	-1.888802	-0.087202	-1.626549
N	-3.057485	-0.148493	-1.729749
C	-0.464068	-1.250133	0.599944
N	-0.87189	-2.243752	1.077026
C	-0.518124	1.203014	0.783077
H	-0.112024	2.119673	0.355647
H	-1.611007	1.250878	0.781068
H	-0.16871	1.131898	1.814099
Cl	3.288946	0.0	0.0
