11
Coordinates from ORCA-job run
  C   1.21912249625619     -0.03518806638736     -0.20125363410115
  C   -0.30397403550819     -0.00186615815758     -0.30984423870799
  Br  1.93364867257861     -1.72541899234324     -0.81278676877951
  H   -0.58267857044600     -0.26114721611328     -1.33564254764821
  H   1.66516455687817      0.74631144495571     -0.81524231681829
  H   1.53097595364957      0.09849053063671      0.83566610112952
  C   -0.74108781834031      1.39183926073499     -0.06390640791790
  N   -1.09871434451135      2.48448207750249      0.17851620026329
  N   -0.91666120067728     -0.97047942538144      0.58026086982675
  H   -0.79564037848317     -0.68746145250031      1.54583376522035
  H   -1.91015533139624     -1.03956200294669      0.39839897753314
