11
Coordinates from ORCA-job run
  C   1.09255540766452     -0.29953297144311     -0.08803287718492
  C   -0.35910967067054      0.13568656074323     -0.31379730324198
  Br  2.34632113957772      0.83446582562834     -1.03900733062407
  H   -0.54474091466573      0.17523156569331     -1.39187125449385
  H   1.22915920725527     -1.31484745325221     -0.46149617312854
  H   1.34730490791087     -0.25782884340381      0.97167169536851
  C   -0.57504673879772      1.48663268598302      0.22347234239780
  N   -0.73932311831123      2.54856163845107      0.69461892039815
  N   -1.33741412999701     -0.76693169939516      0.27739192470097
  H   -1.18736981430688     -0.85764346709786      1.27514006754275
  H   -1.27033627565927     -1.68379384190684     -0.14709001173481
