11
Coordinates from ORCA-job run
  C   1.19872334579470     -0.29498092329903     -0.13691872430115
  C   -0.27646019032957      0.04698976735762     -0.31734393970843
  Br  2.34049507795770      1.00059955551768     -1.01314826498309
  H   -0.48464235150080      0.10069631152803     -1.38969983637341
  H   1.47094971816076     -0.30904291745159      0.91895389741942
  H   1.38564886052207     -1.26973296600151     -0.58285776296715
  C   -0.59419722482579      1.36465278737744      0.27013268984378
  N   -0.90139335771864      2.37112185985395      0.79216476153566
  N   -1.06545081074140     -1.04501222299013      0.24191391206283
  H   -1.03814627947795     -1.01020122918840      1.25459355756097
  H   -2.03452678784108     -0.95409002270405     -0.03879029008941
