17

C	-0.49309	0.071607	-1.464138
C	0.0	0.0	0.0
Cl	0.17091	-1.311981	-2.355719
H	1.092217	0.0	0.0
C	-1.999487	0.10863	-1.622671
H	-2.398105	1.006955	-1.145342
H	-2.257231	0.114756	-2.680327
H	-2.447364	-0.770476	-1.15668
N	0.049378	1.330732	-2.14577
O	0.773028	2.068191	-1.49
O	-0.31557	1.515562	-3.304201
N	-0.361368	-1.230933	0.692898
H	-1.241284	-1.61551	0.377375
H	0.377066	-1.903954	0.528865
C	-0.549051	1.142542	0.736801
N	-1.037251	2.04888	1.302278
Br	3.434571	0.0	0.0
