17

C	-0.479196	0.218429	-1.441426
C	0.0	0.0	0.0
Cl	-2.233366	0.547956	-1.477507
H	1.105641	0.0	0.0
C	0.286754	1.327157	-2.125478
H	1.355279	1.122434	-2.029877
H	0.00126	1.397083	-3.176962
H	0.057171	2.274007	-1.633527
N	-0.228698	-1.10153	-2.176555
O	0.947286	-1.30166	-2.454039
O	-1.164925	-1.853614	-2.40642
N	-0.441683	-1.275625	0.522787
H	0.229323	-1.594326	1.210761
H	-1.358596	-1.213098	0.946341
C	-0.403454	1.159263	0.813174
N	-0.745082	2.049943	1.500255
Br	3.432458	0.0	0.0
