17

C	-0.322699	-0.012672	-1.504362
C	0.0	0.0	0.0
Cl	0.233324	1.50705	-2.232471
H	1.096397	0.0	0.0
C	0.334615	-1.184488	-2.200914
H	0.177473	-1.116546	-3.276555
H	-0.094239	-2.11984	-1.833221
H	1.402289	-1.1538	-1.966833
N	-1.828448	-0.092707	-1.772852
O	-2.578038	-0.185006	-0.800526
O	-2.188481	-0.107529	-2.943914
N	-0.37624	-1.182294	0.747547
H	0.332995	-1.894433	0.650437
H	-1.296677	-1.523285	0.516661
C	-0.512948	1.208997	0.652743
N	-0.922165	2.176585	1.176532
Br	3.429943	0.0	0.0
