17

C	-0.541865	0.078477	-1.436338
C	0.0	0.0	0.0
Cl	0.142823	-1.277666	-2.356211
H	1.097346	0.0	0.0
C	-2.050795	0.051325	-1.522531
H	-2.363831	0.015464	-2.565019
H	-2.461669	0.948784	-1.051645
H	-2.399553	-0.830762	-0.987183
N	-0.063058	1.357658	-2.117991
O	-0.424211	1.519347	-3.280181
O	0.602847	2.143546	-1.453059
N	-0.470504	-1.27598	0.589122
H	-0.600926	-1.137871	1.585025
H	0.304353	-1.926342	0.493691
C	-0.526722	1.107704	0.793578
N	-1.022726	1.943672	1.453917
Br	3.440917	0.0	0.0
