17

C	-0.482462	0.092644	-1.453627
C	0.0	0.0	0.0
Cl	-2.231273	0.427046	-1.507805
H	1.092086	0.0	0.0
C	0.290393	1.123813	-2.244219
H	0.087214	2.114596	-1.836121
H	-0.011446	1.104427	-3.293641
H	1.355683	0.906668	-2.141876
N	-0.232849	-1.284469	-2.073468
O	0.951656	-1.592987	-2.113814
O	-1.173501	-1.956913	-2.477811
N	-0.458634	-1.226321	0.6259
H	-1.321538	-1.092912	1.133799
H	0.260122	-1.556295	1.255397
C	-0.400174	1.219956	0.717509
N	-0.72234	2.169255	1.331037
Br	3.449171	0.0	0.0
