15

C	-0.603984	-0.009058	-1.394872
C	0.0	0.0	0.0
Br	0.264471	1.421361	-2.489796
H	1.089461	0.0	0.0
H	-0.33727	-0.923477	-1.914473
N	-2.013567	0.1402	-1.300808
H	-2.447483	0.075172	-2.211423
H	-2.215608	1.053881	-0.912056
N	-0.387156	-1.360121	0.5988
O	-0.998385	-1.375316	1.667123
O	-0.054526	-2.358305	-0.030302
N	-0.497587	1.078235	0.790019
H	0.220671	1.364741	1.44325
H	-1.306133	0.771362	1.316401
Br	3.481852	0.0	0.0
