15

C	-0.415184	-0.022884	-1.462922
C	0.0	0.0	0.0
Br	-2.612782	-0.096198	-1.422069
H	1.093108	0.0	0.0
H	-0.348892	0.979501	-1.875795
N	0.151298	-0.961237	-2.255026
H	-0.03123	-0.914063	-3.242298
H	0.264853	-1.879172	-1.852654
N	-0.437082	-1.293438	0.668019
O	-0.067675	-2.336657	0.1184
O	-1.106548	-1.245912	1.690725
N	-0.441469	1.115455	0.747264
H	0.257831	1.845627	0.738233
H	-1.36053	1.441866	0.478951
Br	3.4409	0.0	0.0
