15

C	-0.364663	-0.067172	-1.483881
C	0.0	0.0	0.0
Br	-2.323922	-0.357947	-1.66256
H	1.092026	0.0	0.0
H	-0.217763	0.947221	-1.852949
N	0.353977	-0.987763	-2.304962
H	1.309825	-0.646441	-2.352493
H	0.387507	-1.884614	-1.834226
N	-0.416326	-1.28185	0.710637
O	-1.084054	-1.18333	1.73856
O	-0.058895	-2.349823	0.215752
N	-0.492402	1.170229	0.631178
H	0.049399	1.358784	1.464048
H	-1.464809	1.061366	0.889662
Br	3.437926	0.0	0.0
