16

C	0.0	0.0	0.0
C	-0.505494	-0.0011	-1.442336
Cl	1.841857	0.0	0.0
H	-1.613352	0.010906	-1.254815
N	-0.394142	1.265524	0.563814
H	0.26048	2.004956	0.348637
H	-0.52684	1.190061	1.562122
N	-0.552125	-1.118174	0.66601
H	-0.358071	-1.032389	1.660305
H	-1.589135	-0.96703	0.532676
N	-0.119415	-1.180606	-2.194534
H	-0.660632	-1.216935	-3.049454
H	0.863242	-1.127098	-2.43711
C	-0.13569	1.255662	-2.114576
N	0.161596	2.214335	-2.728074
H	-3.042209	0.0	0.0
