16

C	0.0	0.0	0.0
C	-0.549613	0.081572	-1.425901
Cl	1.821234	0.0	0.0
H	-1.644352	0.183286	-1.193473
N	-0.400116	1.213348	0.6714
H	-0.325769	1.094349	1.673704
H	0.179464	1.993524	0.385363
N	-0.565047	-1.1728	0.572764
H	-0.302385	-1.236372	1.551381
H	-1.601399	-0.968029	0.515342
N	-0.216834	-1.110256	-2.209081
H	-0.985281	-1.263594	-2.855003
H	-0.250851	-1.874426	-1.538846
C	-0.093314	1.295457	-2.101393
N	0.238279	2.29046	-2.63166
H	-3.071714	0.0	0.0
