16

C	0.0	0.0	0.0
C	-0.335741	-0.139801	-1.514914
Cl	1.781859	0.0	0.0
H	0.32849	-0.933718	-1.871035
N	-0.510492	1.256101	0.483486
H	-0.256427	1.353738	1.463166
H	-1.542351	1.078555	0.437892
N	-0.458222	-1.204613	0.650922
H	-1.488097	-1.090335	0.607532
H	-0.19252	-1.151249	1.630431
N	0.007532	1.105768	-2.203645
H	-0.494188	1.132398	-3.082809
H	-0.328397	1.862584	-1.615697
C	-1.69489	-0.615638	-1.895666
N	-2.458862	-1.062597	-2.681191
H	-2.824215	0.0	0.0
