16

C	0.0	0.0	0.0
C	-0.50757	-0.03697	-1.438743
Cl	1.866075	0.0	0.0
H	-1.617624	-0.071394	-1.226591
N	-0.506599	1.090617	0.757143
H	-1.539455	0.924622	0.706361
H	-0.290564	1.965132	0.294063
N	-0.425099	-1.190056	0.617206
H	-0.145626	-1.203058	1.587823
H	-0.106133	-1.997814	0.104993
N	-0.084364	-1.238598	-2.146854
H	-0.740894	-1.436639	-2.891225
H	0.835383	-1.099297	-2.549085
C	-0.190346	1.208357	-2.14695
N	0.068712	2.176881	-2.763143
H	-3.059576	0.0	0.0
