16

C	0.0	0.0	0.0
C	-0.436875	-0.114241	-1.475213
Cl	1.786007	0.0	0.0
H	0.179327	-0.909632	-1.912259
N	-0.500433	1.226036	0.548477
H	-0.259975	1.223466	1.536218
H	-1.529428	1.077976	0.483072
N	-0.411707	-1.13822	0.79744
H	-0.122232	-1.995871	0.334052
H	-1.439148	-1.085629	0.76038
N	-0.156046	1.126693	-2.190348
H	-0.710041	1.129337	-3.039189
H	-0.473035	1.885653	-1.596338
C	-1.858319	-0.581788	-1.681001
N	-2.541012	-1.097176	-2.513286
H	-2.735478	0.0	0.0
