16

C	0.0	0.0	0.0
C	-0.263666	0.296903	-1.515725
Cl	1.832052	0.0	0.0
H	0.434503	1.104116	-1.765869
N	-0.448116	1.135762	0.76628
H	-0.223261	0.961571	1.743166
H	-1.473261	1.108912	0.6876
N	-0.499762	-1.299014	0.348045
H	-1.525167	-1.191525	0.290026
H	-0.274203	-1.485117	1.321113
N	-1.616478	0.723794	-1.840478
H	-2.31336	0.391037	-1.127627
H	-1.889599	0.321354	-2.728864
C	0.161886	-0.875323	-2.308645
N	0.458773	-1.713319	-3.077603
H	-3.199658	0.0	0.0
