15

C	-0.171021	-0.064566	-1.528684
C	0.0	0.0	0.0
F	-0.129725	1.284493	-2.014572
H	1.097684	0.0	0.0
H	-1.148531	-0.422578	-1.875347
N	0.889046	-0.847386	-2.024849
H	1.756434	-0.599805	-1.516856
H	0.986128	-0.760809	-3.026436
C	-0.50816	-1.2253	0.58879
N	-0.922854	-2.214655	1.071776
C	-0.587837	1.23907	0.658507
H	-1.666541	1.331952	0.486272
H	-0.410827	1.205776	1.736325
H	-0.092225	2.121165	0.255768
F	2.665899	0.0	0.0
