15

C	-0.169202	-0.077978	-1.526398
C	0.0	0.0	0.0
F	-0.108577	1.263829	-2.028553
H	1.097745	0.0	0.0
H	-1.150696	-0.425379	-1.870098
N	0.881465	-0.879164	-2.00936
H	0.981013	-0.800212	-3.010303
H	1.746595	-0.628734	-1.501673
C	-0.511311	-1.21723	0.601473
N	-0.952567	-2.174271	1.123646
C	-0.585051	1.244785	0.649378
H	-0.101294	2.123946	0.227606
H	-1.666398	1.327364	0.495609
H	-0.388942	1.225888	1.723546
F	2.663435	0.0	0.0
