15

C	-0.167968	-0.088499	-1.526541
C	0.0	0.0	0.0
F	-0.099198	1.250413	-2.035644
H	1.097773	0.0	0.0
H	-1.150997	-0.435923	-1.86951
N	0.884302	-0.894999	-2.006196
H	0.991252	-0.817092	-3.00718
H	1.750279	-0.639186	-1.497963
C	-0.516416	-1.214538	0.603358
N	-0.976874	-2.183518	1.086301
C	-0.587152	1.25046	0.637317
H	-0.412531	1.234347	1.715365
H	-1.664814	1.341124	0.462232
H	-0.090142	2.125423	0.222241
F	2.664318	0.0	0.0
