15

C	-0.431473	-0.037291	-1.447832
C	0.0	0.0	0.0
F	-1.821086	-0.393119	-1.544683
H	1.095033	0.0	0.0
H	0.099789	-0.836128	-1.969042
N	-0.205361	1.193262	-2.118355
H	-0.755614	1.924938	-1.687625
H	-0.485995	1.107568	-3.086645
C	-0.474297	-1.193768	0.678604
N	-0.84074	-2.150287	1.256599
C	-0.435574	1.2621	0.743898
H	-1.510403	1.465761	0.666221
H	-0.17872	1.163858	1.800098
H	0.137781	2.10671	0.355613
F	2.574469	0.0	0.0
