17

C	-0.443888	0.049845	-1.457241
C	0.0	0.0	0.0
Cl	-2.258203	0.292362	-1.560128
H	1.092585	0.0	0.0
C	0.258972	1.08785	-2.318778
H	-0.069265	2.086746	-2.051869
H	1.330189	0.998023	-2.109294
H	0.055683	0.892689	-3.373496
C	-0.192282	-1.274881	-2.033517
N	0.02011	-2.284239	-2.593277
N	-0.433153	-1.185547	0.65445
H	0.283555	-1.453769	1.322954
H	-1.300678	-1.029656	1.152248
N	-0.383448	1.240908	0.722308
O	-0.078909	2.322803	0.214622
O	-0.904285	1.129543	1.839329
H	2.570049	0.0	0.0
