17

C	-0.500808	0.074484	-1.449373
C	0.0	0.0	0.0
Cl	0.047829	-1.447109	-2.267186
H	1.095139	0.0	0.0
C	-2.020839	0.11958	-1.529523
H	-2.370283	1.062853	-1.106186
H	-2.408921	-0.722625	-0.955627
H	-2.353414	0.041783	-2.567761
C	0.096075	1.16177	-2.231771
N	0.526477	1.991933	-2.944056
N	-0.404574	-1.227203	0.644784
H	-0.760396	-0.964948	1.558068
H	0.455482	-1.749758	0.809611
N	-0.397486	1.1529	0.743411
O	-0.460274	1.059273	1.990606
O	-0.508787	2.239544	0.13324
H	2.395277	0.0	0.0
