17

C	-0.377724	0.01234	-1.485033
C	0.0	0.0	0.0
Cl	-2.199443	0.047703	-1.688815
H	1.092047	0.0	0.0
C	0.243805	1.141625	-2.289186
H	-0.188207	2.095388	-1.995695
H	1.314272	1.147889	-2.05603
H	0.079356	0.974513	-3.355713
C	0.050265	-1.27691	-2.040561
N	0.35309	-2.310211	-2.511279
N	-0.429021	-1.122643	0.75082
H	-1.330457	-1.491321	0.47709
H	0.294913	-1.830461	0.725576
N	-0.47795	1.264507	0.62897
O	-1.399512	1.214772	1.446538
O	0.102093	2.302304	0.292105
H	2.633516	0.0	0.0
