17

C	-0.369074	0.009331	-1.488006
C	0.0	0.0	0.0
Cl	-2.189476	0.051788	-1.703974
H	1.092032	0.0	0.0
C	0.265285	1.135249	-2.284474
H	-0.162481	2.09114	-1.992049
H	1.333379	1.13405	-2.041361
H	0.108941	0.972	-3.352361
C	0.054918	-1.28271	-2.038203
N	0.35458	-2.319116	-2.502773
N	-0.432897	-1.120022	0.752792
H	0.285008	-1.83256	0.721195
H	-1.335623	-1.482556	0.479576
N	-0.484181	1.265099	0.62142
O	0.112325	2.299942	0.305134
O	-1.431363	1.216526	1.408652
H	2.640339	0.0	0.0
