17

C	-0.510736	-0.037084	-1.452056
C	0.0	0.0	0.0
Cl	-0.24566	1.513542	-2.32483
H	1.09096	0.0	0.0
C	0.26725	-1.129862	-2.178416
H	0.04178	-2.089252	-1.714362
H	-0.004588	-1.146151	-3.235209
H	1.331837	-0.915173	-2.051418
C	-1.954033	-0.299776	-1.480512
N	-3.103894	-0.542062	-1.514794
N	-0.411004	-1.207176	0.64874
H	-1.294879	-1.074305	1.125293
H	0.309269	-1.454321	1.321612
N	-0.492113	1.22385	0.72136
O	0.117392	2.274561	0.541153
O	-1.470947	1.100748	1.470837
H	2.710874	0.0	0.0
