17

C	-0.473049	-0.002065	-1.46668
C	0.0	0.0	0.0
Cl	-0.035396	-1.619495	-2.168014
H	1.090085	0.0	0.0
C	-1.982469	0.167207	-1.631588
H	-2.260929	0.04034	-2.679647
H	-2.265415	1.16517	-1.299524
H	-2.510184	-0.581647	-1.036373
C	0.220405	0.976072	-2.316986
N	0.655136	1.678073	-3.15031
N	-0.381416	-1.119814	0.792242
H	0.449253	-1.685456	0.938085
H	-1.100352	-1.687431	0.369077
N	-0.392068	1.265654	0.637346
O	-0.431056	1.323028	1.867197
O	-0.514089	2.258558	-0.107339
H	2.503162	0.0	0.0
