17

C	-0.505974	-0.042637	-1.453891
C	0.0	0.0	0.0
Cl	-0.25184	1.512101	-2.317803
H	1.090935	0.0	0.0
C	0.284514	-1.126646	-2.17874
H	0.064907	-2.088083	-1.716024
H	0.016162	-1.144947	-3.236732
H	1.346956	-0.904423	-2.048207
C	-1.946142	-0.318584	-1.491209
N	-3.092518	-0.573225	-1.536299
N	-0.412916	-1.198485	0.660055
H	0.311343	-1.452688	1.323754
H	-1.297437	-1.066173	1.135178
N	-0.50419	1.232769	0.703695
O	-1.540745	1.12488	1.377444
O	0.140365	2.270307	0.57697
H	2.727724	0.0	0.0
