17

C	-0.510809	0.058661	-1.445172
C	0.0	0.0	0.0
Cl	0.04042	-1.465974	-2.254078
H	1.099429	0.0	0.0
C	-2.030744	0.096535	-1.514563
H	-2.41099	-0.74358	-0.931903
H	-2.370738	0.011861	-2.548948
H	-2.380495	1.040676	-1.094329
C	0.075459	1.143897	-2.239275
N	0.491503	1.942684	-2.994452
N	-0.390407	-1.222715	0.662333
H	0.471961	-1.750167	0.802347
H	-0.710693	-0.952535	1.587164
N	-0.386887	1.155675	0.735247
O	-0.539371	2.233032	0.112476
O	-0.391586	1.083129	1.987109
H	2.378035	0.0	0.0
