15

C	-0.500533	-0.017219	-1.438682
C	0.0	0.0	0.0
Cl	0.380719	1.287399	-2.347883
H	1.093453	0.0	0.0
N	-0.082016	-1.307152	-2.14699
O	-0.6365	-1.51387	-3.222481
O	0.760542	-2.011942	-1.617036
N	-1.904023	0.052486	-1.553064
H	-2.255796	0.85779	-1.050447
H	-2.184759	0.086903	-2.524386
C	-0.501034	-1.143708	0.746051
N	-0.871296	-2.071896	1.365886
C	-0.45257	1.232841	0.623014
N	-0.829296	2.238258	1.104441
F	2.432501	0.0	0.0
