15

C	-0.511498	0.089562	-1.459336
C	0.0	0.0	0.0
Cl	0.417294	1.336893	-2.296159
H	1.093053	0.0	0.0
N	-0.193809	-1.275538	-2.092868
O	0.970443	-1.528158	-2.352994
O	-1.14909	-2.038778	-2.205684
N	-1.903779	0.338138	-1.681158
H	-2.445892	-0.397108	-1.242642
H	-2.134181	1.229588	-1.259448
C	-0.523563	-1.182117	0.657304
N	-0.933501	-2.159252	1.169947
C	-0.44643	1.192364	0.696967
N	-0.811749	2.18073	1.220524
F	2.424755	0.0	0.0
