15

C	-0.092109	-0.01618	-1.532496
C	0.0	0.0	0.0
Cl	-0.010233	-1.77675	-2.108234
H	1.098288	0.0	0.0
N	-1.452099	0.417648	-2.081465
O	-2.426046	0.260812	-1.355371
O	-1.463973	0.865675	-3.223403
N	0.907808	0.805614	-2.016182
H	1.781205	0.614852	-1.481858
H	1.001029	0.780773	-3.020181
C	-0.597602	-1.110548	0.708699
N	-1.038699	-1.991866	1.348392
C	-0.44224	1.281771	0.526407
N	-0.775214	2.31415	0.978909
F	2.538443	0.0	0.0
