15

C	-0.490859	-0.009673	-1.44215
C	0.0	0.0	0.0
Cl	0.402047	1.29745	-2.334737
H	1.093435	0.0	0.0
N	-0.075029	-1.302655	-2.150142
O	-0.590591	-1.479972	-3.250923
O	0.717304	-2.044617	-1.5894
N	-1.892955	0.064629	-1.570085
H	-2.164874	0.120116	-2.54336
H	-2.252526	0.85618	-1.052101
C	-0.51502	-1.13753	0.745172
N	-0.906188	-2.049456	1.376403
C	-0.447953	1.235206	0.621797
N	-0.823934	2.235836	1.113577
F	2.430557	0.0	0.0
