15

C	-0.505219	0.03456	-1.436234
C	0.0	0.0	0.0
Cl	0.305465	1.335244	-2.336739
H	1.093753	0.0	0.0
N	-0.042434	-1.274643	-2.15959
O	0.886082	-1.912321	-1.689345
O	-0.669331	-1.547896	-3.182798
N	-1.904549	0.191726	-1.542588
H	-2.200709	0.04486	-2.500166
H	-2.370157	-0.469716	-0.930865
C	-0.51837	-1.178829	0.672397
N	-0.956076	-2.139867	1.191683
C	-0.427844	1.202243	0.697996
N	-0.727931	2.166921	1.299239
F	2.429386	0.0	0.0
