12
Coordinates from ORCA-job run
  C   -0.30322801115791     -0.05584370511226      0.67989590115720
  C   0.25271754202808      0.07679606151755     -0.72327520463653
  Cl  0.90427020857034      0.56512022181108      1.85845706511675
  H   -0.54228116898068     -0.22258992120178     -1.41585469865078
  H   -0.40107149365538     -1.11932818191964      0.92320097542526
  H   0.46656763358539      1.13990543832220     -0.89560711510865
  N   -1.50378806152718      0.73666724319602      0.81748120510116
  H   -2.21154883157855      0.37291433284222      0.18891250176977
  H   -1.86046595383155      0.67023857100511      1.76296397527902
  N   1.37825610057103     -0.82888919790051     -0.91415291115920
  H   1.64274687530120     -0.84570829834804     -1.89054133128963
  H   2.17582516067522     -0.48828256421196     -0.39148036300437
