12
Coordinates from ORCA-job run
  C   -0.56130346148931     -0.42000572212822      0.47454948145327
  C   0.83019393226878     -0.36487619652720     -0.12419069498082
  Cl  -0.42223378881579     -1.14203285767437      2.16078167118064
  H   1.43570567941977      0.33217163155807      0.47845301160807
  H   -1.17441157262632     -1.12499711861584     -0.08442353169614
  H   1.29080954231188     -1.35093100799684     -0.04319232545429
  N   -1.16699498694962      0.86428096254996      0.45604721287173
  H   -0.68354906243781      1.49974448440482      1.07943987419886
  H   -2.14163228136811      0.82646784342030      0.72248961034618
  N   0.69799270868868     -0.01770866893854     -1.53213312969370
  H   1.60616006900514     -0.00746630025788     -1.97795661595702
  H   0.28926322199270      0.90435295020573     -1.60986456387677
