12
Coordinates from ORCA-job run
  C   -0.65925864806741     -0.44556958358278      0.53697533652054
  C   0.66307814960818     -0.43461274641799     -0.22669735243979
  Cl  -0.52037892700345     -1.61557493280663      1.88211094772328
  H   1.44053360356635     -0.07483493077375      0.45323569719541
  H   -1.45224400069355     -0.82330897943688     -0.11450555026054
  H   0.92969487162665     -1.45650052368971     -0.52567023496219
  N   -1.07590647868693      0.83192527568416      1.06088253729945
  H   -1.03307708451079      1.48601723718626      0.28492114019017
  H   -0.40352651780647      1.13823990362567      1.75667255010905
  N   0.53417791806375      0.50305717967311     -1.34281551458466
  H   1.44115311137323      0.85491078217854     -1.61787298269411
  H   0.13475400253045      0.03625131836000     -2.14723657409661
