12
Coordinates from ORCA-job run
  C   -0.62237305189889     -0.31064543953269      0.34914397510357
  C   0.71787263449456     -0.57652687266142     -0.32894977039229
  Cl  -0.89148437886188     -1.63872748882144      1.59776793045520
  H   0.74400051936582     -1.60797459888035     -0.68458070260331
  H   -1.44375210704107     -0.43690037229154     -0.35761072928543
  H   1.50763241339997     -0.48104464446211      0.42430470616350
  N   -0.66626503473871      0.99939192451392      0.89330983134995
  H   0.01736078097709      1.10597959385069      1.63316859808053
  H   -1.58040097590684      1.22805048930103      1.26010151557508
  N   1.00389635246901      0.31850521238512     -1.43727996759722
  H   0.83780612277731      1.27241065769351     -1.14118365566274
  H   0.37570672496363      0.12748153890529     -2.20819173118684
