12
Coordinates from ORCA-job run
  C   -0.58330845003386     -0.47368147469427      0.55728761301142
  C   0.33077856204066     -0.56375033840580     -0.65161951827408
  Cl  0.52239838300864     -0.53978392202298      2.06797318098522
  H   -0.31776265448070     -0.65780289318693     -1.52702418793174
  H   -1.18666688166668     -1.37371186213997      0.67013534859227
  H   0.94220043931996     -1.47014823670547     -0.57272267045933
  N   -1.38567574409439      0.67472806884093      0.48440840207431
  H   -1.94676732438479      0.82197878266221      1.31074175139070
  H   -0.81146446154063      1.48268672441862      0.27842586884103
  N   1.09571529219510      0.67328651775191     -0.77275945551850
  H   1.45882089655420      0.77261541131184     -1.71072686915151
  H   1.87973194308248      0.65458322216991     -0.13311946355978
