12
Coordinates from ORCA-job run
  C   -0.52890760755544     -0.51284265852468      0.61613874431261
  C   0.79409561100153     -0.20582035929876     -0.08212702422339
  Cl  -0.16609530390393     -1.19877600103747      2.22779969373562
  H   1.42874806680494     -1.10133964748489     -0.08800740734710
  H   -1.05841466864068     -1.29452630519216      0.06440926942204
  H   1.31104335087440      0.56194003180034      0.50064427582784
  N   -1.41810814795419      0.61211070621405      0.76898196910508
  H   -1.51235902425006      1.02822429014140     -0.15285020072749
  H   -0.97909655945157      1.30068932015414      1.37168117738487
  N   0.49294209317260      0.32541900194631     -1.41140137403497
  H   1.24462222784549      0.91694081891735     -1.73825074517443
  H   0.39052996205692     -0.43001919763562     -2.07701837828069
