12
Coordinates from ORCA-job run
  C   -0.34011805412002     -0.05713785897566      0.59061889069836
  C   0.37275934792539      0.19923420817892     -0.73383982172179
  Cl  0.82162674815631      0.15252461229400      1.94689621265596
  H   0.73767928843227      1.22855743958240     -0.71436464857128
  H   -0.63451769520602     -1.11354325465225      0.65385503179820
  H   -0.37940861096296      0.13289732031204     -1.52944346679851
  N   -1.41104271015795      0.89059731853454      0.76627403488020
  H   -2.03648061064980      0.84667219038760     -0.02978911055794
  H   -1.94056392866745      0.68690573293470      1.60451174121512
  N   1.46742347618802     -0.68846518433647     -1.07385495920471
  H   2.19146026202235     -0.62802177875833     -0.36958714535469
  H   1.15018248703987     -1.64922074550147     -1.10927675903891
