12
Coordinates from ORCA-job run
  C   -0.54019823772997     -0.45302646714520      0.51939965271558
  C   0.40573011473566     -0.68099907589360     -0.65656880978805
  Cl  0.47880262016686     -0.48939040611614      2.06934907079617
  H   -0.22275317817273     -0.85471773463618     -1.53505225031967
  H   -1.21251915971855     -1.30338889104189      0.63640158294302
  H   0.97799284427365     -1.59194426499865     -0.46968424318089
  N   -1.29144080125632      0.73640822377211      0.37353689962614
  H   -1.97287948241075      0.84569046714307      1.11216618754922
  H   -0.68750774502547      1.54771622066944      0.37002228276536
  N   1.32964909100012      0.39263691853959     -0.96336920339466
  H   1.88662850178318      0.63650749593000     -0.15510967308526
  H   0.84749543235432      1.21350751377745     -1.30209149662695
