14

C	-0.382183	-0.00023	-1.481019
C	0.0	0.0	0.0
Br	-0.073768	1.815869	-2.200711
H	1.099211	0.0	0.0
H	-0.4078	0.868839	0.528022
N	0.409857	-0.934816	-2.253512
H	1.382804	-0.723759	-2.007985
H	0.217497	-1.841074	-1.828983
C	-1.814991	-0.270133	-1.664303
N	-2.968213	-0.483595	-1.743692
N	-0.399424	-1.298007	0.546154
H	0.359925	-1.638326	1.125506
H	-1.236297	-1.226727	1.108834
H	2.907858	0.0	0.0
