15

C	-0.195694	0.018115	-1.49683
C	0.0	0.0	0.0
F	-1.561061	0.087354	-1.849015
H	1.095766	0.0	0.0
H	0.183083	-0.923121	-1.91088
N	0.510542	1.112586	-2.110235
H	1.476686	0.960705	-1.803177
H	0.203061	1.928545	-1.584277
N	-0.539534	-1.192645	0.658739
H	0.233019	-1.81727	0.853026
H	-1.183804	-1.672741	0.039735
N	-0.479404	1.25386	0.583801
H	-1.374876	1.07002	1.020177
H	0.16849	1.494901	1.324452
F	2.714148	0.0	0.0
