15

C	-0.244488	-0.14472	-1.505095
C	0.0	0.0	0.0
F	-0.365064	1.178233	-2.096656
H	1.101707	0.0	0.0
H	-1.201277	-0.614285	-1.758959
N	0.860638	-0.84443	-2.021963
H	1.727719	-0.559543	-1.540784
H	0.921432	-0.793376	-3.028201
N	-0.489389	-1.197076	0.682858
H	0.244856	-1.519321	1.30056
H	-1.280243	-0.908178	1.247702
N	-0.615172	1.212054	0.552705
H	0.018249	1.547699	1.271393
H	-0.605207	1.913088	-0.178428
F	2.782194	0.0	0.0
