15

C	-0.227733	-0.152221	-1.501578
C	0.0	0.0	0.0
F	-0.111287	1.106701	-2.127472
H	1.103295	0.0	0.0
H	-1.232586	-0.505601	-1.775224
N	0.784699	-1.056361	-1.944076
H	0.868998	-1.038838	-2.951822
H	1.671114	-0.770185	-1.496638
N	-0.520123	-1.226437	0.65191
H	0.039556	-1.3425	1.494057
H	-0.239674	-1.99848	0.050854
N	-0.586603	1.188908	0.577634
H	-1.441163	0.909209	1.049717
H	0.05783	1.551052	1.270202
F	2.769731	0.0	0.0
