15

C	0.043959	0.019941	0.017035
C	-0.581164	-0.346545	-1.312181
F	1.428078	-0.203466	-0.079825
H	-0.445977	-1.411133	-1.492912
H	-1.659944	-0.129651	-1.307717
C	-0.123707	1.437158	0.389387
N	-0.227322	2.529213	0.806915
C	-0.520754	-0.865571	1.110369
H	-1.610157	-0.778724	1.12286
H	-0.092174	-0.580362	2.072752
H	-0.255938	-1.901903	0.890042
N	0.075886	0.348736	-2.449584
O	0.274554	1.557273	-2.348216
O	0.354825	-0.330813	-3.436605
Cl	-3.744481	-0.741942	-0.406928
