15

C	0.045556	0.013202	0.020381
C	-0.585441	-0.056225	-1.354109
F	1.428888	-0.184303	-0.128879
H	-0.451926	-1.056398	-1.761695
H	-1.66393	0.154685	-1.299014
C	-0.118863	1.315951	0.691968
N	-0.220028	2.291506	1.336723
C	-0.51619	-1.088103	0.897853
H	-1.605415	-1.004989	0.932336
H	-0.084202	-1.018828	1.897742
H	-0.253372	-2.052009	0.456876
N	0.067977	0.868945	-2.316447
O	0.26901	2.026532	-1.956068
O	0.341675	0.419635	-3.428648
Cl	-3.745452	-0.642534	-0.538287
