15

C	0.04363	0.012804	0.017272
C	-0.598622	-0.093558	-1.34963
F	1.425702	-0.188368	-0.138127
H	-0.468502	-1.104349	-1.731318
H	-1.676638	0.118726	-1.291893
C	-0.115988	1.333272	0.654732
N	-0.214923	2.325511	1.273867
C	-0.510502	-1.064264	0.928908
H	-0.251749	-2.039919	0.512047
H	-0.070141	-0.967751	1.922864
H	-1.599412	-0.97987	0.970097
N	0.046972	0.805274	-2.341838
O	0.311105	0.326238	-3.443894
O	0.251403	1.971978	-2.014267
Cl	-3.750661	-0.663778	-0.490574
