15

C	0.035101	0.018892	0.006389
C	-0.631391	-0.874493	-1.018008
F	1.415147	-0.245259	-0.022846
H	-0.499193	-1.915079	-0.728207
H	-1.71006	-0.664467	-1.075059
C	-0.118087	1.461028	-0.262316
N	-0.207262	2.627903	-0.352335
C	-0.497252	-0.301727	1.389182
H	-0.246654	-1.337751	1.626847
H	-0.034435	0.359434	2.123941
H	-1.585011	-0.196078	1.39348
N	-0.012998	-0.74234	-2.362989
O	0.235031	-1.783073	-2.970629
O	0.186498	0.390206	-2.796294
Cl	-3.76576	-0.79942	0.060392
