15

C	0.053619	-0.009753	0.044975
C	-0.52413	0.054789	-1.365444
F	1.450983	-0.122392	-0.054821
H	-0.271161	0.996817	-1.847309
H	-1.619925	-0.087688	-1.316117
C	-0.199549	1.299924	0.680054
N	-0.343262	2.341909	1.201473
C	-0.481326	-1.123031	0.91924
H	-0.071195	-1.02053	1.926085
H	-1.572088	-1.057664	0.937175
H	-0.189661	-2.080277	0.493565
N	0.049817	-0.998388	-2.243526
O	0.062071	-2.158357	-1.839497
O	0.454822	-0.638654	-3.34902
Cl	-3.719658	-0.383674	-0.569421
