14

C	-0.583303	0.077452	-1.38323
C	0.0	0.0	0.0
F	-0.167692	-0.981175	-2.140823
H	1.087535	0.0	0.0
H	-0.3484	-0.930582	0.455891
H	-0.354866	0.84143	0.594856
C	-2.096314	0.134153	-1.444342
H	-2.497938	-0.774992	-0.993785
H	-2.465878	1.003068	-0.901019
H	-2.422798	0.185541	-2.485811
N	-0.087795	1.339122	-2.086365
O	-0.313315	2.390668	-1.491454
O	0.426274	1.228579	-3.190803
Cl	3.539795	0.0	0.0
