12

C	-0.528181	0.064477	-1.424905
C	0.0	0.0	0.0
Br	-0.039605	-1.516579	-2.433445
H	1.090967	0.0	0.0
H	-1.61337	0.137836	-1.444315
H	-0.064527	0.916195	-1.921024
N	-0.549191	-1.223287	0.690734
O	-1.76474	-1.395085	0.595661
O	0.233734	-1.942232	1.294695
C	-0.49764	1.163363	0.730809
N	-0.899937	2.121592	1.278579
Cl	3.234801	0.0	0.0
