12

C	-0.546392	0.039054	-1.418077
C	0.0	0.0	0.0
Br	-0.019197	-1.531455	-2.423404
H	1.090958	0.0	0.0
H	-1.634438	0.073923	-1.419517
H	-0.123119	0.904544	-1.92696
N	-0.53382	-1.220725	0.711171
O	0.264145	-1.936676	1.299122
O	-1.751195	-1.3945	0.64602
C	-0.493681	1.169582	0.723567
N	-0.907536	2.125718	1.266221
Cl	3.238219	0.0	0.0
