12

C	-0.493068	-0.077725	-1.438751
C	0.0	0.0	0.0
Br	-0.184401	1.601274	-2.361341
H	1.094754	0.0	0.0
H	-1.561559	-0.284343	-1.492365
H	0.070903	-0.842811	-1.965107
N	-0.369142	-1.280567	0.709225
O	-0.412884	-1.258958	1.933194
O	-0.543959	-2.273565	0.005621
C	-0.547144	1.116901	0.75308
N	-0.99824	2.035119	1.33013
Cl	3.15909	0.0	0.0
