12

C	-0.496484	-0.064509	-1.438134
C	0.0	0.0	0.0
Br	-0.1378	1.597874	-2.367856
H	1.094714	0.0	0.0
H	-1.570739	-0.236616	-1.488489
H	0.04179	-0.845983	-1.964748
N	-0.377002	-1.281003	0.705464
O	-0.46655	-1.25285	1.927315
O	-0.511045	-2.279789	0.001015
C	-0.541088	1.119693	0.754183
N	-0.991324	2.038485	1.330387
Cl	3.176019	0.0	0.0
