12

C	-0.536685	0.053626	-1.418191
C	0.0	0.0	0.0
Br	0.12251	-1.410288	-2.503009
H	1.091828	0.0	0.0
H	-0.17342	0.971684	-1.878501
H	-1.623385	0.010559	-1.439943
N	-0.498305	-1.212914	0.74743
O	-1.503355	-1.776891	0.315356
O	0.116239	-1.516518	1.761508
C	-0.485573	1.16414	0.737453
N	-0.903791	2.115386	1.285319
Cl	3.200202	0.0	0.0
