12

C	-0.487926	-0.153507	-1.435487
C	0.0	0.0	0.0
Br	-0.198956	1.479891	-2.439935
H	1.095332	0.0	0.0
H	-1.552719	-0.378489	-1.481428
H	0.08932	-0.934786	-1.921712
N	-0.36903	-1.24265	0.77228
O	-0.435038	-1.157926	1.991537
O	-0.519845	-2.273706	0.119838
C	-0.55278	1.153888	0.690921
N	-1.022857	2.090723	1.221846
Cl	3.158578	0.0	0.0
