12

C	-0.532107	0.112889	-1.421733
C	0.0	0.0	0.0
Br	-0.072134	-1.442442	-2.48244
H	1.091089	0.0	0.0
H	-1.61653	0.201031	-1.431374
H	-0.061322	0.973667	-1.893877
N	-0.553124	-1.24692	0.64121
O	-1.779947	-1.358646	0.627156
O	0.237596	-2.051547	1.113535
C	-0.498547	1.13955	0.766943
N	-0.925809	2.068387	1.345476
Cl	3.235809	0.0	0.0
