12

C	-0.377176	-0.04824	-1.460118
C	0.0	0.0	0.0
Br	-2.304524	-0.081314	-1.762374
H	1.093763	0.0	0.0
H	0.014983	0.838387	-1.95543
H	0.038583	-0.946101	-1.909535
N	-0.402938	-1.260348	0.711944
O	-0.316229	-2.300255	0.068376
O	-0.725784	-1.173371	1.892175
C	-0.521581	1.161928	0.699085
N	-0.932851	2.136902	1.207759
Cl	3.147681	0.0	0.0
