12

C	-0.491812	-0.065488	-1.440307
C	0.0	0.0	0.0
Br	-0.204357	1.625177	-2.343803
H	1.096686	0.0	0.0
H	0.082186	-0.816354	-1.975197
H	-1.55671	-0.286134	-1.496426
N	-0.367447	-1.2866	0.698124
O	-0.410888	-1.276269	1.922203
O	-0.539166	-2.273784	-0.014906
C	-0.550375	1.109877	0.761552
N	-1.017521	2.013407	1.349212
Cl	3.157833	0.0	0.0
