15

C	-0.443457	-0.046988	-1.449884
C	0.0	0.0	0.0
Br	-2.384219	-0.617125	-1.528529
H	1.098048	0.0	0.0
H	-0.300164	-0.974249	0.396876
N	-0.473244	1.33081	-2.150332
O	0.005341	2.285145	-1.548345
O	-0.878493	1.347747	-3.305199
N	0.391203	-0.857667	-2.186479
H	1.156875	-1.301048	-1.699869
H	0.063719	-1.254944	-3.046118
N	-0.6446	1.037421	0.791581
H	-0.096507	1.88241	0.70331
H	-0.605558	0.752582	1.761628
Cl	3.443514	0.0	0.0
