15

C	-0.371198	0.020402	-1.473486
C	0.0	0.0	0.0
Br	9.4e-05	-1.703781	-2.286437
H	1.099673	0.0	0.0
H	-0.331303	0.967436	0.393269
N	-1.869276	0.328281	-1.591523
O	-2.153408	1.484831	-1.273733
O	-2.671619	-0.528356	-1.928201
N	0.322152	1.029477	-2.229721
H	1.318465	0.844495	-2.112946
H	0.128034	1.921921	-1.78338
N	-0.665178	-1.064164	0.743428
H	-0.144405	-1.921248	0.593944
H	-0.578958	-0.850726	1.729976
Cl	3.448696	0.0	0.0
