15

C	-0.619385	-0.018828	-1.384406
C	0.0	0.0	0.0
Br	0.249451	1.426254	-2.485236
H	1.091428	0.0	0.0
H	-0.355525	-0.902565	0.504144
N	-0.3172	-1.297786	-2.145177
O	-0.900316	-1.437514	-3.217142
O	0.436124	-2.109112	-1.620879
N	-2.013929	0.089646	-1.313539
H	-2.221779	0.823839	-0.643894
H	-2.4328	0.255763	-2.218076
N	-0.543589	1.182655	0.69893
H	0.097916	1.948925	0.5222
H	-0.489192	0.99995	1.693505
Cl	3.494632	0.0	0.0
