16

C	0.0	0.0	0.0
C	-0.493111	0.164415	-1.480219
Cl	1.801401	0.0	0.0
H	-1.546298	0.450685	-1.383821
N	-0.4763	0.955478	0.947279
H	-0.325761	1.882354	0.561645
H	-1.491248	0.808339	1.006155
C	-0.378361	-1.355715	0.434028
N	-0.598484	-2.452437	0.79231
N	-0.373466	-0.956758	-2.341796
H	-1.133711	-1.596126	-2.148319
H	0.517235	-1.426665	-2.238274
N	0.231819	1.344543	-2.069948
O	-0.019158	2.442506	-1.56808
O	1.044902	1.152138	-2.967044
Br	-3.598182	0.0	0.0
