16

C	0.0	0.0	0.0
C	-0.522045	0.053201	-1.446224
Cl	1.79338	0.0	0.0
H	-1.617346	0.059796	-1.366678
N	-0.490639	1.112366	0.747931
H	-0.265299	0.981205	1.72792
H	-1.514364	1.098519	0.649002
C	-0.353595	-1.32823	0.551919
N	-0.578187	-2.351506	1.084827
N	-0.050417	-1.040984	-2.212663
H	-0.639572	-1.181403	-3.02129
H	0.904122	-0.880431	-2.508946
N	-0.142261	1.407392	-2.046044
O	0.875721	1.444609	-2.743214
O	-0.880494	2.358325	-1.818696
Br	-3.693289	0.0	0.0
