16

C	0.0	0.0	0.0
C	-0.514927	0.176676	-1.457929
Cl	1.79251	0.0	0.0
H	-1.603828	0.271275	-1.37911
N	-0.504826	1.041833	0.828279
H	-1.526971	1.048387	0.710778
H	-0.301492	0.836435	1.800838
C	-0.354747	-1.376992	0.412921
N	-0.577368	-2.485279	0.739621
N	-0.169788	-0.845684	-2.386873
H	-0.772146	-1.646101	-2.24355
H	0.802283	-1.115614	-2.304311
N	-0.012696	1.497653	-1.981075
O	1.052303	1.490848	-2.597566
O	-0.705417	2.487931	-1.762288
Br	-3.662628	0.0	0.0
