16

C	0.0	0.0	0.0
C	-0.512647	-0.062772	-1.478466
Cl	1.837894	0.0	0.0
H	-0.401866	0.940509	-1.896045
N	-0.580956	1.132454	0.593741
H	-0.557985	1.139818	1.601935
H	-0.251095	2.002514	0.198262
C	-0.373235	-1.205118	0.745253
N	-0.621372	-2.153955	1.391921
N	-1.822814	-0.55389	-1.671176
H	-2.557691	0.009582	-1.226411
H	-1.924008	-1.489964	-1.293311
N	0.407285	-0.932768	-2.293107
O	1.057074	-0.401936	-3.189724
O	0.413746	-2.127308	-2.009552
Br	-4.623307	0.0	0.0
