14
Coordinates from ORCA-job run
  C   0.76075357618512     -0.46023468263969      0.66273722877939
  C   -0.58890253973581      0.21972131081097      0.43071804257474
  F   0.52460758818778     -1.55072074401217      1.47247672113445
  H   -1.18892855966874      0.21671368944942      1.33857234633769
  H   1.38724839895591      0.22574224480341      1.24893583010894
  N   1.31468027960864     -0.93324223682867     -0.56209932045789
  H   1.48259190235372     -0.15930993849393     -1.19269753845202
  H   2.18956545308956     -1.40819697225015     -0.37931167985608
  N   -1.36662082197033     -0.51321854167729     -0.62544436494096
  O   -1.31905725877730     -0.07221178667945     -1.76588574136714
  O   -1.94275018475827     -1.51690998708103     -0.23233701615085
  N   -0.44542848435787      1.63580781948967     -0.01623297420254
  O   -1.42224358332421      2.35392843200367      0.16837558528310
  O   0.61448423421180      1.96213139310525     -0.54680711879082
