14
Coordinates from ORCA-job run
  C   0.70678628553152     -0.59575526409479      0.38006104330922
  C   -0.51173717151523     -0.00421607896234     -0.30041700375760
  F   0.48851396513621     -1.98114032116322      0.35978452067628
  H   -0.64649199823160     -0.36534953091059     -1.31761177959010
  H   0.73336522639425     -0.28887281652960      1.42427858331513
  N   1.86846708766759     -0.18124603039285     -0.29278317085271
  H   2.70911665218828     -0.40936901323557      0.21781441035663
  H   1.92429445036995     -0.54659800623458     -1.23437242253121
  N   -0.37987693300409      1.48462567037409     -0.35539443324556
  O   -0.25779241336935      1.97808035735636     -1.47040091336579
  O   -0.37574663199615      2.06804540512628      0.72269726622354
  N   -1.77262378754254     -0.31981092076094      0.44650461777448
  O   -2.78177335787279     -0.42069069693602     -0.24708236850178
  O   -1.70250137375606     -0.41770275363624      1.66592165018948
