14
Coordinates from ORCA-job run
  C   0.75895391765993     -0.39509763784108      0.68747961010312
  C   -0.58292650672878      0.27060840009847      0.39733969897075
  F   0.41864399377891     -1.61288110259557      1.30400455220102
  H   -1.12162943388996      0.49389530583872      1.31583999905994
  H   1.26497689895411      0.20355561592351      1.44617025605982
  N   1.57189113051019     -0.50423283641440     -0.44614993530586
  H   2.51700655663254     -0.77201578576527     -0.21537126130552
  H   1.17550128012171     -1.11153737622830     -1.14861831372959
  N   -1.50306224172599     -0.55377470185812     -0.44225653062013
  O   -2.69952552947083     -0.38509498073594     -0.22807222801467
  O   -1.01072810154590     -1.29895312896535     -1.28347204668355
  N   -0.33558223854849      1.57374635957703     -0.30498534402851
  O   0.21688593448852      2.41341932652278      0.39447148568172
  O   -0.67040566023594      1.67936254244352     -1.47537994238855
