14
Coordinates from ORCA-job run
  C   0.74086787396566     -0.55396428390142      0.37835962715782
  C   -0.49070866874779     -0.02859254410080     -0.33238452942694
  F   0.66562794354618     -1.94770152235881      0.23760182441783
  H   -0.52958222041580     -0.31484252040908     -1.38108279328282
  H   0.67626707230727     -0.33366525614757      1.44256892284185
  N   1.89100750300031      0.02477509682681     -0.18358691613613
  H   2.03676362360484     -0.25318074420766     -1.14516970837739
  H   2.72008272387545     -0.16272058173211      0.36126518666254
  N   -0.50814235629751      1.46538644074549     -0.26350467938094
  O   -0.62320961639777      1.95483778495313      0.85444719915097
  O   -0.37615163503239      2.05933620029549     -1.32729176878971
  N   -1.75304027578059     -0.52632356808492      0.30424860136533
  O   -1.74333728669289     -0.71682869024304      1.51469688605832
  O   -2.70544468093497     -0.66751581163551     -0.45916785226072
