14
Coordinates from ORCA-job run
  C   0.86707733826850     -0.27646130888346      0.56420213441438
  C   -0.18943021956385      0.49063385694955     -0.24157734038239
  F   0.22988153784261     -0.73987279243251      1.70101299338142
  H   0.27475806521311      1.10344541083132     -1.01320969610361
  H   1.60303207876048      0.46664985944973      0.88203154651706
  N   1.52120601969600     -1.32329757848429     -0.10900558900796
  H   0.92913894917041     -1.93303439460695     -0.64774800987659
  H   2.38213278888964     -1.07311901323371     -0.56322901590508
  N   -0.92137933281597      1.43057085205039      0.67660451937239
  O   -0.22931131379641      2.35438883480066      1.08846522640306
  O   -2.08386398451856      1.18452523939099      0.95962192604413
  N   -1.20571527437852     -0.36135962489177     -0.92765577049477
  O   -1.32835851406786     -1.52743068940321     -0.56307621632522
  O   -1.84716813869960      0.20436134846328     -1.80743670803681
