14
Coordinates from ORCA-job run
  C   0.66101974271454     -0.63916620759616      0.34398710963206
  C   -0.50546079332217      0.04021353482658     -0.35390232440010
  F   0.38136677461709     -1.99261738902412      0.29830116732074
  H   -0.57780152563121     -0.25975073460602     -1.39627162324865
  H   0.69880754093373     -0.33403667123172      1.39093974073761
  N   1.85633583572718     -0.36246910736693     -0.40165370669189
  H   2.49241211921515      0.20984217696201      0.13497102062141
  H   2.30887205658863     -1.23476164952637     -0.64141812678123
  N   -0.35951566352367      1.52747087716956     -0.30675235693915
  O   0.45045255530745      1.99690417720075      0.48759609643158
  O   -1.09764709847311      2.15443678709947     -1.05919867065481
  N   -1.79497583085815     -0.28407910670780      0.32775217657850
  O   -1.88734088710067      0.09115048268965      1.49398148773851
  O   -2.62552482619478     -0.91213716988891     -0.31833199034460
