14
Coordinates from ORCA-job run
  C   0.78063557947747     -0.38595443487816      0.66741812356471
  C   -0.57126748004031      0.27354800842893      0.41208743746202
  F   0.46253382639077     -1.59862680473222      1.30540080359170
  H   -1.08210046732270      0.50412033054762      1.34457594512448
  H   1.30824310972435      0.22127023901552      1.40427278063972
  N   1.55910535743031     -0.50398845678319     -0.48957048910262
  H   1.14285855305916     -1.11951099164934     -1.17324104657014
  H   2.51086983608774     -0.76897675488534     -0.28397063679034
  N   -1.51450748687480     -0.56183935862327     -0.39038568389268
  O   -2.70408062585022     -0.39523674708337     -0.13929129800662
  O   -1.04644149379949     -1.31376347110560     -1.23928452926141
  N   -0.34930278975814      1.57002770468387     -0.31028904608311
  O   -0.72039420907967      1.66315268643399     -1.47073022906324
  O   0.22284829055551      2.41777805063056      0.36300786838752
