14
Coordinates from ORCA-job run
  C   0.85241544394078     -0.49574348881168      0.50623232313249
  C   -0.49404847918295      0.22845792956626      0.53338407222087
  F   0.73135284006729     -1.59529027232822      1.32859536034803
  H   -0.91860097592678      0.22416947180931      1.53543212575304
  H   1.59723504681814      0.15931154266115      0.97811685962761
  N   1.15930935287701     -0.95956620295836     -0.80626510720733
  H   2.03453200762831     -1.46780426717481     -0.79083061848884
  H   1.24159529384645     -0.17699628833774     -1.44325668363745
  N   -1.47351467757492     -0.45970635453781     -0.37413014036746
  O   -1.62022866921864      0.00338560735218     -1.49718785109252
  O   -2.00013342512634     -1.45447248290740      0.10207961859405
  N   -0.38751264587384      1.64823680612251      0.08860578309453
  O   -1.29266458282677      2.39023326736454      0.45445002956789
  O   0.57126347055225      1.95478473218007     -0.61722577154492
