14
Coordinates from ORCA-job run
  C   0.75199639968453     -0.56645122949511      0.33560717203461
  C   -0.50764157608889     -0.01999378471152     -0.30674738640045
  F   0.65217853092409     -1.95762363559806      0.18822570457172
  H   -0.60418208290833     -0.29770123114146     -1.35405453217795
  H   0.74533745571514     -0.35369098028470      1.40329282632491
  N   1.87901773136945      0.00301325660094     -0.28076204892796
  H   2.73231180256731     -0.19933721010888      0.21964727365186
  H   1.97193125930647     -0.27072504539139     -1.25012263405492
  N   -0.50212036672182      1.47347955465442     -0.22665548984746
  O   -0.55253827626948      1.95554022891150      0.89934704661309
  O   -0.41758114098906      2.07401145261776     -1.29151471093544
  N   -1.74242031577846     -0.50583389314226      0.39072457588154
  O   -2.73519561736132     -0.62591663309636     -0.32312500528070
  O   -1.67209380344963     -0.70877084981487      1.59713720854715
