14
Coordinates from ORCA-job run
  C   0.71320315473411     -0.60362650475608      0.35457057768007
  C   -0.51582501281931      0.00269595848842     -0.29335669602600
  F   0.49716710395685     -1.98867097800299      0.30114513068924
  H   -0.66385276367925     -0.33207296116782     -1.31770862525008
  H   0.75360775655834     -0.32423563225045      1.40603371023014
  N   1.86463508881583     -0.16928324461846     -0.32296904288401
  H   2.71292092379264     -0.40785890452230      0.16982404320917
  H   1.90824903665384     -0.50851443173521     -1.27487036436453
  N   -0.38783256867058      1.49259604610757     -0.31071110323810
  O   -0.28345580488778      2.01581621360958     -1.41391482561443
  O   -0.36964948511906      2.04734223414983      0.78228683638850
  N   -1.76551375737050     -0.33589287134558      0.46208026174035
  O   -2.78425232603144     -0.41952546561658     -0.21972089780355
  O   -1.67840134593368     -0.46676945833994      1.67731099524323
