14
Coordinates from ORCA-job run
  C   0.75200569824768     -0.46220983672285      0.67232622085254
  C   -0.58930363885022      0.22851034887572      0.42420153238189
  F   0.49861366656116     -1.54217153769768      1.49126375962620
  H   -1.19593522668624      0.23808443671586      1.32754592465058
  H   1.38127595904834      0.22273472370826      1.25666289563015
  N   1.30999926119225     -0.95239640462231     -0.54362943650679
  H   2.18663376914505     -1.42075116888712     -0.35242850139367
  H   1.47599457909235     -0.18820098655132     -1.18652461001378
  N   -1.36612974057442     -0.50678340547151     -0.63132220814256
  O   -1.96084487320323     -1.49725955350225     -0.23272614052817
  O   -1.30000387124262     -0.07994387756950     -1.77625542925069
  N   -0.42981679301112      1.63952624315335     -0.03280046898636
  O   0.63569417848755      1.95032795363591     -0.56137681009793
  O   -1.39918296820652      2.36953306493542      0.14406327177860
