14
Coordinates from ORCA-job run
  C   0.76779259814686     -0.38650880496275      0.68139203690204
  C   -0.57626738632112      0.27912651734614      0.40130092011069
  F   0.43212409941470     -1.59580415917495      1.31724507705532
  H   -1.10096221680202      0.51678043611890      1.32431347718296
  H   1.28585952234494      0.21897496311266      1.42634215062827
  N   1.56452009701417     -0.51195354009253     -0.46188961472321
  H   2.51133248043277     -0.78231584521354     -0.24118444563389
  H   1.15568747634178     -1.12502070923384     -1.15218642663670
  N   -1.51011363316896     -0.55809682855430     -0.41077651248230
  O   -1.03092353052742     -1.30650423329189     -1.25670862401731
  O   -2.70248904478074     -0.39843939912715     -0.16880640733503
  N   -0.33657333074170      1.57052554417868     -0.32350446401230
  O   -0.69390120486150      1.66232057761186     -1.48852103013327
  O   0.23391407350825      2.41691548128272      0.35298386309472
