14
Coordinates from ORCA-job run
  C   0.69558558895813     -0.71123879957051      0.26453490351609
  C   -0.46025990767526      0.27561190076558      0.35090514685458
  F   0.45536005844673     -1.56260694074336     -0.81505421727488
  H   -0.47721507334318      0.76887177587917      1.32082530236417
  H   0.64643366538194     -1.33110864946869      1.16220035857087
  N   1.92770057830515     -0.03119797350440      0.21528915306807
  H   2.69871861435907     -0.65297877260093      0.41285883201932
  H   2.06271372561788      0.40922216962210     -0.68519234384457
  N   -1.75515192455870     -0.47983730865219      0.21472524623311
  O   -1.98432642693774     -1.23799475188829      1.14891327945204
  O   -2.43165724049839     -0.30356784538568     -0.78704588513259
  N   -0.44933634939977      1.35233858473348     -0.68251650995157
  O   -1.11473635476476      2.34490074478448     -0.40526009718647
  O   0.18617104610890      1.15958586602925     -1.71518316868815
