14
Coordinates from ORCA-job run
  C   0.68935144838697     -0.80803598628453      0.14370778618096
  C   -0.41544452217210      0.24203142440463      0.32176248753021
  F   0.31678237098156     -1.58677372984486     -0.93643102519235
  H   -0.34160944558082      0.72819062207296      1.29369052497515
  H   0.65017159258968     -1.44163342847279      1.03364152943449
  N   1.99685377170584     -0.31481865357550     -0.02066256427173
  H   2.09010859121122      0.45807174248975     -0.65876558195968
  H   2.52425619539581     -0.21190774299687      0.82912384874808
  N   -1.75418779230649     -0.44190552889366      0.27999779525111
  O   -2.47186535278027     -0.26285099107866     -0.69213569085858
  O   -1.96743316867174     -1.16560254140027      1.24586133994338
  N   -0.42683480750818      1.33034824948808     -0.70037812567607
  O   0.19411917287494      1.15327343358309     -1.74479596810171
  O   -1.08426805412642      2.32061313050863     -0.39561635600325
