14
Coordinates from ORCA-job run
  C   0.75504994597531     -0.70894647899879     -0.13588376734007
  C   -0.43900447980518      0.13149296963870      0.32154914265914
  F   0.58662689680472     -0.86528468724837     -1.51346418237539
  H   -0.30997113815166      0.50081993644170      1.33731563947874
  H   0.66632813538637     -1.70383520449370      0.30267947410384
  N   1.98388203803614     -0.13186825588016      0.18135695355609
  H   2.05306958272470      0.86866189349352      0.23028619253769
  H   2.62704871112285     -0.65735433534708      0.74068023969356
  N   -1.74899124573512     -0.59794253172186      0.29401571717067
  O   -1.77213712127952     -1.74325404209141     -0.14155295729511
  O   -2.69323254835471      0.03795783087984      0.75053506156320
  N   -0.56330661321652      1.33292497307531     -0.57137599513498
  O   -1.41176973579598      1.32554958930811     -1.44781791958236
  O   0.26640757228861      2.21107834294418     -0.34632359903503
