14
Coordinates from ORCA-job run
  C   0.71728426732472     -0.73857969921194      0.29639657707334
  C   -0.48477110759920      0.21283900112421      0.23219112558768
  F   0.61211299853571     -1.57481753788180     -0.79965068040642
  H   -0.62637151373266      0.73033446474151      1.18013060374252
  H   0.57081278913350     -1.35031477834044      1.19044658196063
  N   1.98680528341632     -0.13434174235322      0.34724923748952
  H   2.34392401111394      0.03488109897705      1.27164008628962
  H   2.13013855563740      0.62640796665191     -0.29600859691396
  N   -1.73313866759654     -0.58948957003345     -0.01398620826073
  O   -2.05472291483201     -1.30117276753326      0.93052655737646
  O   -2.27722117602014     -0.50412970339477     -1.10425824540997
  N   -0.40447563103096      1.26705456734485     -0.82197307960697
  O   0.40960266620533      1.12092425567549     -1.72952818960208
  O   -1.18997956055541      2.19940444423386     -0.68317576931965
