14
Coordinates from ORCA-job run
  C   0.76074998411323     -0.57794555437122      0.29339736590570
  C   -0.52097154056023     -0.01068955752760     -0.28385441709901
  F   0.64023640525764     -1.96611442929845      0.13135655295173
  H   -0.66707163320343     -0.27156418000432     -1.32973933087640
  H   0.80394732660564     -0.38081671150044      1.36323047147053
  N   1.86437491287518     -0.01032345891053     -0.36489845509816
  H   1.90994357710258     -0.26758424783796     -1.34206533411339
  H   2.73774631657852     -0.22816710065057      0.09242553137546
  N   -0.49751459536787      1.48143198406267     -0.18228055242091
  O   -0.45320969311821      2.09675095116008     -1.24110098104433
  O   -0.49452073682990      1.94722110559067      0.95157053816750
  N   -1.72763175244056     -0.49645294953760      0.46095872329901
  O   -1.60584619544027     -0.71591146028091      1.66036960796032
  O   -2.75223237557235     -0.59883439089380     -0.20936972047804
