14
Coordinates from ORCA-job run
  C   0.73049581522275     -0.64472046975597      0.42136000779565
  C   -0.47210800692132     -0.09812432027888     -0.33223591705309
  F   0.55219964619396     -2.02656004091469      0.36442914929992
  H   -0.50934529000840     -0.44209053660920     -1.36340461912151
  H   0.67179307199648     -0.34739217065367      1.46732985094468
  N   1.95129740957105     -0.25422121089007     -0.14396500632835
  H   1.97624455681652     -0.08332881304949     -1.13572668174173
  H   2.50534773064330      0.38754332034422      0.39359689887790
  N   -0.41233398416902      1.39412303515968     -0.35026498295882
  O   -0.34658788238531      1.95547626947789      0.73897207739339
  O   -0.39810339759935      1.92632796431488     -1.45769719572159
  N   -1.76506966244725     -0.49687146219873      0.31366371048188
  O   -1.81118525628167     -0.45904221516276      1.53813216037385
  O   -2.67164475063175     -0.81111934978321     -0.45318945224219
