14
Coordinates from ORCA-job run
  C   0.76033646474972     -0.66105742694285      0.33677145902243
  C   -0.49092908980511     -0.09110917468605     -0.31277314213937
  F   0.60705283414555     -2.03974901258269      0.19070744513405
  H   -0.58023668959072     -0.37078490867509     -1.36014135738659
  H   0.75020945679300     -0.44218270405015      1.40373438358460
  N   1.93866923277506     -0.19931886654289     -0.26269064628950
  H   2.52636531387536      0.38782012063243      0.30064914935622
  H   1.90148022204864      0.06920401243397     -1.23200475410029
  N   -0.44542863280166      1.40020209662414     -0.24098664762752
  O   -0.43483557338096      1.89548625461330      0.88146821344617
  O   -0.37430027340855      1.99551588584078     -1.31297477559643
  N   -1.74346332681325     -0.54506348670231      0.37422074752903
  O   -1.70488240774342     -0.66342207161068      1.59358506646641
  O   -2.71103753084366     -0.73554071835191     -0.35856514139921
