14
Coordinates from ORCA-job run
  C   0.74328330171867     -0.74994749442991      0.05704977223730
  C   -0.43324047630613      0.21581720706408      0.25216326665548
  F   0.63504506675138     -1.20159732368850     -1.24880263704235
  H   -0.31558365751878      0.82717061215665      1.14536016515096
  H   0.59400796822015     -1.60861290204412      0.71388477835291
  N   2.01278389481061     -0.18175559192887      0.27839826264434
  H   2.09365732618890      0.79147846295691      0.02830389661139
  H   2.41857266492785     -0.39570175963033      1.17327891144854
  N   -1.76652178740664     -0.45884995266439      0.36669882400480
  O   -2.68803518206464      0.28505229219040      0.68699541654389
  O   -1.83049484712824     -1.66413229400574      0.15203900260987
  N   -0.49594558436961      1.15491151186732     -0.91818939004789
  O   -1.35104356965052      0.97339116509465     -1.76933235443312
  O   0.38451488182700      2.01177606706185     -0.91884791473613
