14
Coordinates from ORCA-job run
  C   0.73148754447629     -0.53943372764580      0.41509984382833
  C   -0.49693255720953     -0.04384972580930     -0.32183157978830
  F   0.61704285160537     -1.93740182532300      0.39781947502363
  H   -0.56084922340901     -0.41978424855049     -1.34057243729450
  H   0.69035633704696     -0.22558061989488      1.45676785228438
  N   1.88745543537539     -0.04402955566363     -0.21124985180513
  H   2.01061567956124     -0.40997225030473     -1.14618083231209
  H   2.71969625978517     -0.20602785008421      0.33696661069089
  N   -0.47272755180728      1.45023907238552     -0.38477785331197
  O   -0.33920515482307      1.94455968771037     -1.49815328205729
  O   -0.55869929806056      2.03883602417057      0.68705342182757
  N   -1.76178073867852     -0.44786616811654      0.37381424426201
  O   -1.73691428501182     -0.53363861395234      1.59593179801753
  O   -2.73054529885063     -0.62605019892154     -0.36068740936507
