14
Coordinates from ORCA-job run
  C   0.72057970143115     -0.55852512075357      0.40920273493980
  C   -0.49828758374059     -0.03023479972974     -0.32087085361505
  F   0.57510776334039     -1.95351175272029      0.38156112501922
  H   -0.57277720029985     -0.39682377024368     -1.34230513530720
  H   0.68879509806606     -0.25196081031092      1.45335420028653
  N   1.88575603268784     -0.08412242961836     -0.21631431354078
  H   1.99814789302465     -0.44511220802603     -1.15452854572164
  H   2.71554124354853     -0.26955048842902      0.32821152621592
  N   -0.44166923686602      1.46342798772085     -0.37222228308795
  O   -0.30126884971790      1.96347254467212     -1.48217599137800
  O   -0.51107367482078      2.04539263964974      0.70444721701099
  N   -1.77014138104038     -0.41168635203524      0.37459469403717
  O   -2.74417138277315     -0.56323830926508     -0.35892231992588
  O   -1.74453842283994     -0.50752713091077      1.59596794506687
