14
Coordinates from ORCA-job run
  C   0.83405012660040     -0.50749647975491      0.52828786515317
  C   -0.49262593256805      0.25219095139761      0.52298343227523
  F   0.67367718496171     -1.58483114045044      1.37319858671508
  H   -0.92983161234791      0.28227109417557      1.51905519489782
  H   1.59064288022959      0.13729545145492      0.99568429263276
  N   1.14389603019759     -1.00767049408969     -0.76981640563374
  H   1.23912636849807     -0.24259547141953     -1.42598762242591
  H   2.01321065398451     -1.52513527708966     -0.73702401996093
  N   -1.47968522998137     -0.43049394210915     -0.38147256652696
  O   -1.59628303921316      0.00795306486730     -1.51787353418203
  O   -2.04299980201728     -1.39653627306973      0.11168052596095
  N   -0.34530864168665      1.65876376933675      0.04829643856245
  O   -1.23597152569540      2.43049292393154      0.38744707380306
  O   0.62810253903795      1.92579182281941     -0.65345926127095
