14
Coordinates from ORCA-job run
  C   0.69879564227948     -0.75067751163246      0.11790470085359
  C   -0.46881154513695      0.21186833582407      0.29395802971370
  F   0.48627740509444     -1.51077303862618     -1.01173797063505
  H   -0.41739263518176      0.73149536237987      1.25142110610517
  H   0.68598453124733     -1.45721580167583      0.95384955321076
  N   1.89359388352135      0.00386620875624     -0.05350098418271
  H   1.94427839083450      0.83768419471623      0.51392526312879
  H   2.71675424039145     -0.56450961487961      0.08334733583683
  N   -1.78802050791796     -0.51178377425090      0.28222130262788
  O   -1.79642107187560     -1.58195241976731      0.87845769020028
  O   -2.74091504201112      0.05677910882927     -0.22972966583150
  N   -0.43420210810447      1.25586521977351     -0.77276518637277
  O   -0.72557460958379      0.91231950070240     -1.90819838549915
  O   -0.05434657355689      2.36503422985070     -0.40015278915581
