14
Coordinates from ORCA-job run
  C   0.79036378578694     -0.69815990132098      0.06988737165988
  C   -0.45208072026190      0.18599522217687      0.24329346110829
  F   0.74123251556576     -1.14700182428217     -1.24077513202916
  H   -0.39342406803434      0.80105139946236      1.13975410791102
  H   0.68386551203588     -1.56953165635162      0.71825339352002
  N   2.01366344078964     -0.04904865023992      0.32311141688540
  H   2.41555389915686     -0.24219156452566      1.22430844980236
  H   2.03823658046688      0.92799031863662      0.07652128227837
  N   -1.73875318741766     -0.57693638246499      0.32956696600223
  O   -1.71886685073259     -1.78119249465933      0.10073389594756
  O   -2.71297602937812      0.09997881227477      0.64251924005929
  N   -0.55444029200636      1.12313025151531     -0.92605070043572
  O   -1.38341567877190      0.89212286305581     -1.79085999002491
  O   0.27104109280090      2.03279360672293     -0.91026376268462
