14
Coordinates from ORCA-job run
  C   0.72695429869696     -0.70570797707898     -0.01592443117089
  C   -0.46753460146643      0.17160999708430      0.34398605362939
  F   0.76177520184243     -0.78508641831636     -1.41357364280805
  H   -0.38190911073316      0.58365632373413      1.34736881207469
  H   0.54580022739469     -1.71933299718937      0.34213443761872
  N   1.90635631684427     -0.19064433445594      0.55769242429152
  H   2.11262923156815      0.73758369491660      0.21116276458838
  H   2.69038718634620     -0.80549123924884      0.38748744036628
  N   -1.77852623261436     -0.54493720163894      0.26996571327237
  O   -1.82422318802892     -1.61213002721259     -0.33184353316892
  O   -2.70875975648994      0.03218415176863      0.82397865619012
  N   -0.53314629030324      1.33350902158816     -0.61168744041629
  O   0.38201549733360      2.13919300691263     -0.47783632724100
  O   -1.43381878039025      1.36659399913658     -1.43391092722632
