14
Coordinates from ORCA-job run
  C   0.70585928098059     -0.63947779565998      0.47423386619101
  C   -0.46927447704048     -0.10024318239993     -0.32685309772035
  F   0.46623204629792     -2.01085184132361      0.52544499045111
  H   -0.51557877127691     -0.51422096218960     -1.33167768957396
  H   0.66085089855905     -0.25537116618568      1.49196267375670
  N   1.94922337572240     -0.35684095763007     -0.11219939463151
  H   1.97818832371370     -0.28666695498323     -1.11669328062302
  H   2.49884970411443      0.34393968404637      0.35273105528964
  N   -0.35965036751966      1.38458070852735     -0.44932778578685
  O   -0.44494233680240      1.84812778342585     -1.58428029206765
  O   -0.17291171964702      2.01011809646200      0.59024826690388
  N   -1.77907498018734     -0.40387410257939      0.33733079825576
  O   -2.67728370601718     -0.80059706370140     -0.39983659146529
  O   -1.84048727089711     -0.21962224580869      1.54791648102054
