14
Coordinates from ORCA-job run
  C   0.69733645306297     -0.62722294457450      0.34531307916749
  C   -0.50750136299314      0.02153388587580     -0.30686888997015
  F   0.47050158857089     -2.00585756228774      0.21931319406040
  H   -0.62969879650793     -0.26400166792240     -1.34937116952518
  H   0.71058433983182     -0.39878877459877      1.40967248045564
  N   1.87150960442349     -0.17306790124597     -0.27846772289436
  H   1.93803113887300     -0.46775814800550     -1.24384764750015
  H   2.70290042438424     -0.44619324471747      0.22518264161069
  N   -0.36546511211786      1.50939115803709     -0.25141598699128
  O   -0.22693803774261      2.08196700090920     -1.32600010197630
  O   -0.37082148237332      2.01252333625052      0.86641923130016
  N   -1.78070641927479     -0.33842678143750      0.39749364236097
  O   -1.72854326331478     -0.52645421545866      1.60727709710945
  O   -2.78118907482199     -0.37864414082409     -0.31469984720739
