14
Coordinates from ORCA-job run
  C   0.66424861167197     -0.76798494036294      0.16832621825740
  C   -0.45304179918692      0.24353712807311      0.38334855331032
  F   0.40207806032122     -1.45369608750060     -1.01875361238042
  H   -0.45966688376303      0.60059392886436      1.41135008055183
  H   0.58150235531513     -1.50223361634527      0.97239015987764
  N   1.92273904992848     -0.13788550316837      0.21875663596523
  H   2.08311085410820      0.41561929646580     -0.61256733096553
  H   2.66640191733759     -0.81224425840269      0.33036009198289
  N   -1.77457246008390     -0.43351544546128      0.13893763112457
  O   -2.43229482468706     -0.09658473584001     -0.83389775416211
  O   -2.04364917047943     -1.30154891887123      0.96013448936257
  N   -0.38952234632379      1.45009723657137     -0.49361717207995
  O   0.24992922354105      1.37493724379751     -1.53902403939882
  O   -1.01926258769954      2.42090867218023     -0.08674395144561
