14
Coordinates from ORCA-job run
  C   0.76333771803768     -0.66109017324882      0.32537985880080
  C   -0.51422803485511     -0.10147221540559     -0.28324115921291
  F   0.58199014227690     -2.04529350702299      0.23312976468716
  H   -0.66846967192624     -0.44858781993442     -1.30264124336421
  H   0.80246587024059     -0.41710022876764      1.38670997384592
  N   1.90965273587095     -0.22774358782392     -0.34159003356194
  H   1.83433903334802      0.06019895160674     -1.30194696727043
  H   2.59288149942062      0.27422678324132      0.19383913427907
  N   -0.43695044481726      1.38954679520985     -0.31420945925743
  O   -0.16746276455617      1.88931531224140     -1.40262971748057
  O   -0.58598293483058      1.97540357046016      0.75250921721048
  N   -1.73354743206676     -0.48104613962462      0.50047808555610
  O   -2.76939411220810     -0.56735349228490     -0.15471097468231
  O   -1.60963160393454     -0.64000424864657      1.70892352045028
