14
Coordinates from ORCA-job run
  C   0.71669899892528     -0.73423283302507      0.25719506536650
  C   -0.44187164463392      0.26925127536847      0.17250507136005
  F   0.68400491595633     -1.43391530084079     -0.93838502714617
  H   -0.36405944096041      1.04759369890726      0.92981927402839
  H   0.49864948417123     -1.44240721009294      1.05846145434014
  N   1.98613631706833     -0.15544219359458      0.45258723242984
  H   2.31325508437767     -0.17675234493214      1.40348003194654
  H   2.11507015579963      0.74143721550793      0.01030064916983
  N   -1.79839071349059     -0.34784624632214      0.32902919680084
  O   -1.88405589975704     -1.57068095400852      0.34516852067255
  O   -2.71572876169079      0.45915876842248      0.44101746563245
  N   -0.40245581076732      0.95187968425032     -1.16466078171939
  O   -1.21182086349022      0.62071519429052     -2.01541286115166
  O   0.50556817849183      1.77124124606919     -1.28010529172992
