14
Coordinates from ORCA-job run
  C   0.69941255313281     -0.78500420224679      0.20998078890366
  C   -0.43126288575465      0.24906047676947      0.29303834450905
  F   0.38479965536897     -1.62347955038024     -0.84304005350758
  H   -0.40355280556189      0.78634100312781      1.24016298005771
  H   0.63778516438697     -1.37456591198859      1.12848697275938
  N   2.00328918609120     -0.27342417755087      0.07042312393330
  H   2.49013299512854     -0.10784259134071      0.93457467673174
  H   2.10482800959084      0.46594785805477     -0.60524699826411
  N   -1.75415679545783     -0.46491427394278      0.23890186999248
  O   -1.98901656003055     -1.14155979252532      1.23335939811327
  O   -2.43816547568323     -0.35260288214861     -0.76683632675638
  N   -0.42629672380244      1.28296416648129     -0.78427293166430
  O   0.23865736147081      1.06747117034878     -1.79377708869819
  O   -1.11645367887955      2.27160870734179     -0.55675475611004
