14
Coordinates from ORCA-job run
  C   0.89335105548808     -0.56170382225416      0.44053325470626
  C   -0.44435964563084      0.18406552061260      0.57822803251385
  F   0.61911217096798     -1.80598657225924      1.00902360345655
  H   -0.71469646943817      0.33850995414291      1.62109386568810
  H   1.60997171554951     -0.05693835634980      1.08972591257966
  N   1.42674238774790     -0.68077621377374     -0.84420954397532
  H   2.20572339441097     -0.08287773193341     -1.05297963627457
  H   0.76785230774583     -0.80241635701210     -1.59411034327035
  N   -1.58398560620328     -0.53547774544474     -0.05942982865242
  O   -2.64816378519412     -0.50208192812397      0.55080348611686
  O   -1.37708158490718     -1.08269952739540     -1.13831401359213
  N   -0.30466357444724      1.53504388487475     -0.05311055328545
  O   -0.98022568960844      1.80365899876127     -1.03711756602759
  O   0.53042332351901      2.24967989615503      0.49086333001653
