14

C	-0.521652	0.006978	-1.415163
C	0.0	0.0	0.0
F	0.099762	-0.880085	-2.217684
H	1.088825	0.0	0.0
H	-0.355342	0.867082	0.550798
C	-1.98077	-0.177431	-1.503271
N	-3.151049	-0.266568	-1.533458
N	-0.260996	1.398185	-2.049112
O	0.070054	2.317915	-1.31467
O	-0.436399	1.43917	-3.258523
N	-0.470286	-1.202731	0.72873
O	-0.726771	-2.212958	0.074023
O	-0.537518	-1.106656	1.950556
Br	3.367567	0.0	0.0
