14

C	-0.574052	-0.020289	-1.393588
C	0.0	0.0	0.0
F	-0.110521	-1.138975	-2.024844
H	1.089818	0.0	0.0
H	-0.322547	-0.907909	0.514022
C	-2.044517	-0.048327	-1.427284
N	-3.212477	-0.16543	-1.403036
N	-0.10874	1.154811	-2.258052
O	-0.703044	1.261439	-3.327469
O	0.827456	1.825495	-1.852343
N	-0.513947	1.143617	0.786711
O	-1.136682	2.023333	0.186907
O	-0.279087	1.131174	1.987687
Br	3.397356	0.0	0.0
