14

C	-0.499952	0.040768	-1.425896
C	0.0	0.0	0.0
F	-0.032255	-0.986231	-2.156986
H	1.090594	0.0	0.0
H	-0.349652	0.867172	0.559003
C	-1.960976	0.1428	-1.569543
N	-3.118924	0.275392	-1.716945
N	0.057891	1.344184	-2.046941
O	-0.26585	2.367593	-1.458855
O	0.726815	1.236056	-3.058089
N	-0.491696	-1.213501	0.703924
O	-1.295045	-1.942122	0.115149
O	-0.055147	-1.400303	1.833919
Br	3.370817	0.0	0.0
