18

C	0.0	0.0	0.0
C	-0.261111	0.007354	-1.577287
Br	1.986464	0.0	0.0
H	0.599239	0.523656	-2.008496
C	-0.325509	1.350632	0.506651
N	-0.404756	2.500818	0.73655
N	-0.617472	-0.986238	0.794438
H	-0.474636	-1.88934	0.35656
H	-1.654378	-0.737001	0.669028
C	-1.48479	0.765262	-2.099344
H	-1.56592	1.752016	-1.642294
H	-2.413054	0.252123	-1.863796
H	-1.343719	0.89037	-3.183115
C	-0.264178	-1.422689	-2.101713
H	-1.165669	-1.944443	-1.762892
H	-0.281312	-1.404481	-3.196889
H	0.625707	-1.983858	-1.787952
H	-2.992276	0.0	0.0
