18

C	0.0	0.0	0.0
C	-0.288612	0.056223	-1.56575
Br	1.986549	0.0	0.0
H	0.608261	0.469923	-2.033646
C	-0.298694	1.31474	0.596572
N	-0.470235	2.386465	1.047052
N	-0.646491	-0.997834	0.770758
H	-1.670913	-0.729181	0.715406
H	-0.554745	-1.889691	0.299381
C	-1.458488	0.955614	-1.958106
H	-1.229269	2.006769	-1.758143
H	-1.639291	0.844719	-3.034078
H	-2.355164	0.676716	-1.387754
C	-0.488746	-1.358938	-2.096123
H	0.316951	-2.03408	-1.785827
H	-0.496042	-1.335745	-3.190178
H	-1.450666	-1.751933	-1.76072
H	-3.255323	0.0	0.0
