18

C	0.0	0.0	0.0
C	-0.379586	0.151877	-1.53301
Br	1.969187	0.0	0.0
H	0.563022	0.310482	-2.059356
C	-0.27139	1.258547	0.735173
N	-0.441035	2.235218	1.369815
N	-0.617601	-1.131245	0.603744
H	-0.449169	-1.098596	1.60685
H	-1.65083	-0.909625	0.461751
C	-1.26182	1.365042	-1.832674
H	-0.76291	2.300231	-1.561129
H	-1.46217	1.389288	-2.909999
H	-2.203362	1.26844	-1.285324
C	-1.002493	-1.127629	-2.085643
H	-2.006074	-1.25076	-1.673261
H	-1.073674	-1.031726	-3.175076
H	-0.400742	-2.007118	-1.848087
H	-3.083098	0.0	0.0
