18

C	0.0	0.0	0.0
C	-0.357124	0.13034	-1.54551
Br	1.969071	0.0	0.0
H	0.588493	-0.002085	-2.07406
C	-0.305656	1.2398	0.749442
N	-0.463457	2.205253	1.40385
N	-0.578194	-1.16652	0.586118
H	-1.612088	-0.956913	0.47344
H	-0.385575	-1.157557	1.585191
C	-0.879233	1.5237	-1.903374
H	-1.842179	1.693608	-1.413766
H	-0.173025	2.307454	-1.608179
H	-1.00826	1.587673	-2.989387
C	-1.291146	-0.96624	-2.062618
H	-1.335729	-0.881661	-3.156756
H	-0.916422	-1.960469	-1.806951
H	-2.286701	-0.834686	-1.627901
H	-3.022414	0.0	0.0
