18

C	0.0	0.0	0.0
C	-0.486199	0.029339	-1.463654
Br	1.97628	0.0	0.0
H	-1.581224	0.084	-1.286442
C	-0.322001	1.291958	0.64224
N	-0.490407	2.345043	1.136797
N	-0.554986	-1.037402	0.809862
H	-0.394457	-1.926074	0.346672
H	-1.590653	-0.830155	0.734804
C	-0.172743	-1.256407	-2.216134
H	-0.604351	-2.132536	-1.726935
H	-0.614478	-1.202409	-3.21593
H	0.905523	-1.40944	-2.32925
C	-0.031667	1.249796	-2.253368
H	-0.25576	2.177012	-1.720877
H	-0.565754	1.28078	-3.208579
H	1.041733	1.221906	-2.464291
H	-3.00696	0.0	0.0
