16

C	-0.477386	0.095848	-1.435903
C	0.0	0.0	0.0
F	-1.840855	0.329099	-1.458327
H	1.090243	0.0	0.0
H	-0.377503	-0.932877	0.435673
C	0.2321	1.140233	-2.243805
H	-0.139891	1.152905	-3.269337
H	0.036181	2.097173	-1.760525
H	1.303452	0.945787	-2.231024
N	-0.323582	-1.27966	-2.075248
O	0.64316	-1.47371	-2.804871
O	-1.176685	-2.114491	-1.783771
N	-0.434883	1.205619	0.703405
H	-1.326546	1.055096	1.15292
H	0.253721	1.428283	1.408675
Cl	3.456396	0.0	0.0
