16

C	-0.498322	0.109642	-1.430026
C	0.0	0.0	0.0
F	-1.847325	0.37849	-1.42412
H	1.090236	0.0	0.0
H	-0.370245	-0.939491	0.43159
C	0.224154	1.142323	-2.244457
H	-0.178744	1.176754	-3.258405
H	1.287075	0.909932	-2.259971
H	0.071766	2.101244	-1.750935
N	-0.357396	-1.256631	-2.082729
O	0.7738	-1.574484	-2.430477
O	-1.360849	-1.960074	-2.176966
N	-0.430743	1.1953	0.721909
H	0.277692	1.428478	1.405058
H	-1.307576	1.033777	1.197484
Cl	3.454928	0.0	0.0
