16

C	-0.51835	-0.012529	-1.424101
C	0.0	0.0	0.0
F	-0.027591	-1.104534	-2.081674
H	1.097193	0.0	0.0
H	-0.352193	0.915815	0.477889
C	-2.020595	-0.006712	-1.564872
H	-2.288031	-0.06942	-2.62107
H	-2.39964	-0.875815	-1.031163
H	-2.437754	0.903416	-1.136517
N	0.008427	1.214952	-2.149623
O	0.655888	1.061409	-3.173774
O	-0.312303	2.292593	-1.651975
N	-0.540175	-1.181153	0.693043
H	-0.665222	-0.950408	1.671676
H	0.173741	-1.900249	0.660192
Cl	3.516641	0.0	0.0
