16

C	-0.473404	0.114719	-1.434361
C	0.0	0.0	0.0
F	-1.849031	0.291567	-1.460003
H	1.090952	0.0	0.0
H	-0.373839	-0.940168	0.419069
C	0.196202	1.209146	-2.208754
H	1.274224	1.047472	-2.208885
H	-0.181158	1.244706	-3.231802
H	-0.026832	2.14151	-1.690801
N	-0.273704	-1.237048	-2.113504
O	0.551357	-1.327616	-3.018104
O	-0.974747	-2.156658	-1.694561
N	-0.44177	1.191382	0.725506
H	0.27537	1.43977	1.393541
H	-1.301506	1.008079	1.223382
Cl	3.449342	0.0	0.0
