16

C	-0.445747	0.10361	-1.454008
C	0.0	0.0	0.0
F	-1.76809	0.502208	-1.513602
H	1.089888	0.0	0.0
H	-0.32796	0.93939	0.46047
C	0.411043	1.024979	-2.278901
H	0.325893	2.030667	-1.86231
H	1.452907	0.710854	-2.212523
H	0.071434	1.039866	-3.317304
N	-0.42469	-1.2895	-2.056822
O	-1.491603	-1.891224	-2.158932
O	0.679412	-1.7374	-2.344974
N	-0.522925	-1.12628	0.751273
H	-1.479165	-1.327933	0.487139
H	0.045613	-1.943582	0.573553
Cl	3.495066	0.0	0.0
