16

C	-0.35423	0.081358	-1.479518
C	0.0	0.0	0.0
F	-0.184564	1.37894	-1.912652
H	1.094064	0.0	0.0
H	-0.386687	0.894904	0.488998
C	0.443363	-0.844148	-2.350435
H	0.247147	-1.883496	-2.08786
H	1.499278	-0.625947	-2.165166
H	0.190886	-0.700277	-3.401598
N	-1.859164	-0.160401	-1.647145
O	-2.246799	-0.999235	-2.460651
O	-2.597017	0.523355	-0.940751
N	-0.455579	-1.195723	0.686347
H	-1.429063	-1.404073	0.509537
H	0.118676	-1.991919	0.445448
Cl	3.49331	0.0	0.0
