16

C	-0.424719	0.117515	-1.456051
C	0.0	0.0	0.0
F	-1.795207	0.343021	-1.530681
H	1.091556	0.0	0.0
H	-0.393834	-0.935109	0.404835
C	0.296564	1.183004	-2.228683
H	1.371056	1.020035	-2.155704
H	0.048722	2.146807	-1.78334
H	-0.016309	1.181043	-3.273566
N	-0.233866	-1.239416	-2.116062
O	0.705986	-1.379785	-2.890648
O	-1.037343	-2.113142	-1.800924
N	-0.44616	1.129487	0.807143
H	-1.337205	1.480488	0.485873
H	0.242068	1.866878	0.7673
Cl	3.447696	0.0	0.0
