13
Coordinates from ORCA-job run
  C   -0.55064895040810      0.24919330445922     -0.39021666399353
  C   0.93450975299717     -0.00201952741487     -0.26123170283788
  H   -1.04058412812052     -0.53612845461388     -0.96768990664299
  H   1.42522287484083      0.08977796641621     -1.23238108130248
  H   1.40504392468529      0.66814819398137      0.45416219669828
  C   -0.80822429921993      1.55612825987322     -0.98456333206839
  N   -0.97633765423899      2.60977968890574     -1.47508312373493
  N   -1.23172247715489      0.20436712620251      0.97218400702196
  O   -2.45337903705871      0.19498003662054      0.94217996308269
  O   -0.51089770653752      0.18979818676253      1.96140509395926
  N   1.19678557599108     -1.39788905779116      0.21870457903258
  O   0.28445617575032     -2.21415624529990      0.12593076948509
  O   2.32677594847395     -1.61197947810152      0.63559920130032
