14
Coordinates from ORCA-job run
  C   -0.34007847226265     -0.24414479816645      0.27707301630386
  C   0.95553661026432     -0.72903994820990     -0.38487789659682
  Br  -0.23609528327527     -0.66416134254250      2.19402456053649
  H   0.84947880602756     -0.60911107933842     -1.47036721876619
  H   1.07469886889052     -1.79495037041968     -0.18123029033436
  C   -0.53143117768085      1.25959479845618      0.13900679413636
  H   -1.47191794698419      1.56103290484494      0.60379091946988
  H   -0.57227002623950      1.51513780933216     -0.92614298858343
  H   0.28192034830868      1.82047141040521      0.60183447769139
  N   -1.41240025562306     -1.05612822102631     -0.26847869087600
  H   -1.54896989866797     -0.80581666076357     -1.24417507744753
  H   -2.27750975887251     -0.86325420742799      0.22415792785517
  C   2.14045474476558      0.00402345824866      0.04803804804793
  N   3.08858344134935      0.60734624660769      0.38534641856325
