14
Coordinates from ORCA-job run
  C   -0.35657488407918     -0.20859072816414      0.29818240390614
  C   1.09790719760203     -0.64633694800178      0.09275486265800
  Br  -0.87767149234997     -1.07334409556587      2.07793821670297
  H   1.15051711974063     -1.73566843620233      0.00666708934836
  H   1.69627294206854     -0.36253677028558      0.96107745891579
  C   -0.49912340103979      1.28774769713273      0.49286988241304
  H   -1.53657152520107      1.54538973948028      0.71482822613733
  H   -0.19726814417572      1.79365544459046     -0.42777048555716
  H   0.12076870865109      1.63359979430123      1.32013392621830
  N   -1.15233345116715     -0.65717638875878     -0.77332590568351
  H   -2.11444861863147     -0.35481767352343     -0.69343110488284
  H   -1.12147871455813     -1.66128845690592     -0.89609303970312
  C   1.66322842175490     -0.03449528079356     -1.11057487643176
  N   2.12677584138528      0.47186210269669     -2.06225665404154
