14
Coordinates from ORCA-job run
  C   -0.28568365316597      0.07712450391603      0.34484437684754
  C   1.12770167614281     -0.06746135064793     -0.26125350264138
  Br  -0.07458469297054     -0.08278337812872      2.29931860040081
  H   1.05652621822569      0.14693513341375     -1.33463073453917
  H   1.81604236573761      0.65695609515117      0.18134982009509
  C   -0.84654831572589      1.45238590219265      0.03220807511102
  H   -1.81958929437450      1.56667472934283      0.50888473208444
  H   -0.17905304831173      2.24041159854476      0.38301612255467
  H   -0.97149141187668      1.55655779689014     -1.05171720839024
  N   -1.22774818785291     -0.93033730082958     -0.06162111581119
  H   -1.45085024477812     -0.82281572704333     -1.04524255308680
  H   -0.86951920783577     -1.86482953204798      0.10041564552164
  C   1.66035016102677     -1.41645128758394     -0.09794813552324
  N   2.06544763575924     -2.51336718316986      0.00237587737681
