14
Coordinates from ORCA-job run
  C   -0.28623572402283     -0.14576673785398      0.49334181920918
  C   1.20374161555016     -0.45452958421906      0.28283845466972
  Br  -0.60857351152733     -0.31128653162529      2.43075975866754
  H   1.40787795039346     -1.46281751721851      0.64941417660114
  H   1.82025274204058      0.25182922571919      0.84349946812494
  C   -0.63727778001689      1.28027680323870      0.08981093020577
  H   -0.46746362806792      1.40076676495864     -0.98477601638092
  H   -0.03351667394787      2.01408022657980      0.62787998647522
  H   -1.68970461210029      1.48034227237980      0.29942066735378
  N   -1.06042515912188     -1.18227693335392     -0.15133254173273
  H   -2.05022450746138     -1.02708333066747      0.00320235324565
  H   -0.88887027869342     -1.15577142358994     -1.15273872082774
  C   1.53872634802249     -0.37682760487036     -1.13926713785307
  N   1.75069321895312     -0.30893562947761     -2.29205319775849
