14
Coordinates from ORCA-job run
  C   -0.36086011862699     -0.07094987972825      0.48520122777564
  C   1.12406118319716     -0.46551142931709      0.31211132144139
  Br  -0.70027302445191     -0.22219241558387      2.42511687846272
  H   1.77462142744206      0.21291664531417      0.87049448531776
  H   1.28386603830318     -1.47392764196256      0.70386612241139
  C   -0.61248229137013      1.36394548207476      0.06107274220488
  H   -0.41075503365788      1.47079433412456     -1.00982556398862
  H   0.03191133077834      2.05383934283365      0.60721665121031
  H   -1.65470580045139      1.61998245135750      0.24994008183021
  N   -1.29282177949315     -0.93842976246001     -0.18075855788263
  H   -1.24920199881861     -0.79504924712344     -1.18394206658025
  H   -1.11344375822916     -1.91375743072304      0.02609113267201
  C   1.47731644013761     -0.43784027907747     -1.10673810387497
  N   1.70076738524086     -0.40382016972890     -2.25884635099985
