14
Coordinates from ORCA-job run
  C   -0.25259614203465      0.05666983798932      0.24096761163733
  C   1.15942539276173     -0.00843913834783     -0.34905662809895
  Br  -0.01044373196402     -0.07839903751098      2.26273950693613
  H   1.79533948292011      0.74708641270247      0.11598211819806
  H   1.08018612478127      0.21072042662216     -1.41937078845206
  C   -0.88869811784196      1.40947303916369     -0.01660450538951
  H   -1.86815776703985      1.46797516298096      0.46170734141873
  H   -0.27004466753531      2.21455056052868      0.38029555465046
  H   -1.01552353942413      1.53833513056926     -1.09519542247090
  N   -1.04733479149686     -0.98388040670401     -0.28389204330632
  H   -1.99871306947375     -0.94182148288029      0.05842856594672
  H   -0.66392450635969     -1.90231890378012     -0.09333790079893
  C   1.76608438342401     -1.32676224232925     -0.18882089150899
  N   2.21440094928310     -2.40518935900408     -0.07384251876176
