14
Coordinates from ORCA-job run
  C   -0.40655107816626     -0.16562666353523      0.42161635229054
  C   1.04807629917060     -0.65326329290888      0.22934770246289
  Br  -0.92602673295716     -0.82047043285288      2.21115535014847
  H   1.70318241372235     -0.23626606610742      0.99892575132151
  H   1.08469354293894     -1.74258311082274      0.31852317203510
  C   -0.49514380797200      1.34908797750594      0.41661571801686
  H   -0.19071610448672      1.73149281422163     -0.56304113003271
  H   -1.52407801713484      1.65212730348511      0.60824468005485
  H   0.15489361967343      1.78315131393939      1.17700900152460
  N   -1.34847018761855     -0.70423007342260     -0.52052123728892
  H   -1.20423327021577     -0.28980371158791     -1.43512686997584
  H   -1.27282967693243     -1.71185715168985     -0.59416830119775
  C   1.52615234677890     -0.26256284514983     -1.09625388719152
  N   1.85205065319952      0.07180393892530     -2.17332630216807
