14
Coordinates from ORCA-job run
  C   -0.27293555327461      0.10358210379668      0.34631456734559
  C   1.12100162905373     -0.06831145931337     -0.29720065858030
  Br  0.01110361885873      0.13071109282720      2.29758584911272
  H   1.80885475389775      0.70497312476184      0.05383089568606
  H   1.00721779143940      0.04938622053649     -1.38179084333534
  C   -0.87585200992411      1.43256590167853     -0.07112045620847
  H   -1.83311249738576      1.57235828598965      0.43008071135500
  H   -1.04283940608522      1.43221688165464     -1.15435701483902
  H   -0.21410516635149      2.26277774905777      0.17886564154577
  N   -1.20591813630248     -0.95545322932457      0.07057757215840
  H   -0.82048567676294     -1.86329381460567      0.30564237334601
  H   -1.46386259068364     -0.94555769700583     -0.91040633064805
  C   1.68582743560361     -1.38812213366739     -0.03454926867984
  N   2.09410580791703     -2.46983302638598      0.16652696174147
