14
Coordinates from ORCA-job run
  C   -0.39784563231640     -0.16688481589856      0.30587738247700
  C   0.88315218465721     -0.69860434434788     -0.37074600882409
  Br  -0.24051474340307     -0.59154168311751      2.22440053006091
  H   0.97343710344286     -1.77289036319556     -0.18687689988380
  H   0.77063722867951     -0.55434622796678     -1.45209961416881
  C   -0.53844185525779      1.33462026963077      0.14746470931784
  H   -0.59174359336294      1.58257594356404     -0.91918391410313
  H   -1.45707878573789      1.66526870562410      0.63151251922837
  H   0.31001419501350      1.86222269332070      0.58249131581150
  N   -1.59390247251381     -0.81385041731334     -0.17047858822009
  H   -1.51169662906390     -1.82322739366302     -0.13722258741981
  H   -1.79240112424668     -0.52338960534768     -1.12180368624369
  C   2.10625749873762     -0.03050608527019      0.06499583531882
  N   3.08112662537179      0.52955332398092      0.40166900664897
