14

C	-0.576609	0.047726	-1.378525
C	0.0	0.0	0.0
F	-1.942406	0.151844	-1.387818
H	1.089782	0.0	0.0
H	-0.315935	0.900781	0.528469
C	-0.013639	1.195782	-2.10439
N	0.414103	2.129622	-2.672418
N	-0.22773	-1.191184	-2.231312
O	0.965521	-1.389082	-2.383765
O	-1.160397	-1.81962	-2.705932
N	-0.513249	-1.135601	0.763412
O	-0.688034	-0.972288	1.971178
O	-0.684769	-2.20523	0.172212
F	2.461788	0.0	0.0
