14

C	-0.471816	0.067104	-1.417284
C	0.0	0.0	0.0
F	-1.832146	0.185653	-1.541682
H	1.09006	0.0	0.0
H	-0.399212	-0.890644	0.483506
C	0.160742	1.085809	-2.262709
N	0.612757	1.847217	-3.034132
N	-0.112894	-1.308443	-2.019075
O	0.982085	-1.419862	-2.552608
O	-0.95728	-2.18387	-1.862281
N	-0.4727	1.15735	0.7573
O	-0.592883	2.233471	0.167155
O	-0.674539	0.999279	1.96093
F	2.466565	0.0	0.0
