14

C	-0.418704	-0.04828	-1.430574
C	0.0	0.0	0.0
F	-0.189612	1.182637	-1.990619
H	1.089829	0.0	0.0
H	-0.374725	0.902077	0.475148
C	0.25057	-1.062931	-2.249542
N	0.816718	-1.820652	-2.943254
N	-1.94203	-0.227505	-1.592481
O	-2.351441	-0.843109	-2.568309
O	-2.628737	0.349055	-0.759324
N	-0.507452	-1.15197	0.72528
O	-0.522798	-1.092983	1.951741
O	-0.867939	-2.138363	0.068034
F	2.467565	0.0	0.0
