15
Coordinates from ORCA-job run
  C   0.56836932306654      0.48438815906199     -0.24516434882879
  C   -0.86553283861537      0.36506486460500      0.31974865368684
  F   0.81015227451884      1.84906205900072     -0.28891269673192
  H   -0.87868048356815      0.85037507700848      1.29773551360226
  C   0.63741465369519     -0.03890304123106     -1.61743679794999
  N   0.73779980554340     -0.46271054648601     -2.70827323522731
  C   1.60456587054047     -0.16999892683377      0.64530790162347
  H   1.49845255267672      0.19661510972234      1.66748723416758
  H   1.50714508564653     -1.25580047732507      0.63984280981238
  H   2.59357537343007      0.09557311607650      0.26964439081394
  N   -1.17936774367474     -1.09089197300765      0.56171644178810
  O   -1.54016257038955     -1.74896930601419     -0.40690945417569
  O   -0.99316256346059     -1.49138171641657      1.70638256295621
  C   -1.85455121125406      0.95719926616678     -0.56850592228025
  N   -2.64801752815532      1.45937833567252     -1.27366305325685
