15
Coordinates from ORCA-job run
  C   0.54825834959353      0.09003010478469     -0.36722113589739
  C   -0.79400093439932     -0.20926869569632      0.33408250637058
  F   0.31940768706718      1.08912537628968     -1.29210550778299
  H   -0.67815240457467     -1.06777127986603      1.00014197406205
  C   1.01428337625326     -1.10899268344111     -1.08439863664041
  N   1.44933838707377     -2.05048967252558     -1.63539803699290
  C   1.59895681163723      0.56095876366674      0.62059026154691
  H   2.52536161825928      0.75763236255007      0.07979394908883
  H   1.78810328114705     -0.19870717552823      1.38137692743135
  H   1.26374661342618      1.48373326354308      1.09612686177186
  N   -1.81504220440577     -0.62512139181105     -0.70698407319481
  O   -2.49646223024565      0.25810123996843     -1.20872596073015
  O   -1.82902277416134     -1.82313931167635     -0.96826466926170
  C   -1.27379936923853      0.95718668400946      1.06156109291666
  N   -1.62097620743222      1.88672241573250      1.68942444731211
