15
Coordinates from ORCA-job run
  C   0.59483916027087      0.58591166598775     -0.05791333616080
  C   -0.92640352321788      0.33578883412618      0.07318094165918
  F   0.94647722416100      1.56559086041268      0.84816308945917
  H   -1.43329133400128      1.30659116729186      0.09954946248251
  C   0.81659287333042      1.14069363345259     -1.40756349190082
  N   1.01293208768152      1.58463379999137     -2.47735446143743
  C   1.44473438370050     -0.65055851055324      0.15922791856873
  H   1.32196445005243     -1.00488063263385      1.18155248936548
  H   1.16800871523954     -1.43564587563350     -0.54715555773872
  H   2.49123632113967     -0.38837636910800      0.00087518007533
  N   -1.31103848066408     -0.33885693335978      1.38774019309327
  O   -0.61385662702684     -0.08777222134297      2.36060833143671
  O   -2.32667010999147     -1.02083259439824      1.36416125951950
  C   -1.41752812099221     -0.47239324851724     -1.03466406289849
  N   -1.76899701968216     -1.11889357571562     -1.95040795552360
