15
Coordinates from ORCA-job run
  C   0.51175590210472      0.12469031536475     -0.46115471063844
  C   -0.71339329962826     -0.13635962957013      0.43682435130953
  F   0.17874708705380      1.03873234562232     -1.43459633351416
  H   -0.41595199867502     -0.73505846115464      1.30096869589385
  C   0.90703932374812     -1.14024936641495     -1.10355122012987
  N   1.25461040447490     -2.16178377955452     -1.56712914515464
  C   1.65598674554760      0.69467804862580      0.35918924027760
  H   1.33732013626109      1.62852844127827      0.82590722814519
  H   2.49235989136093      0.90489435837894     -0.30806994390415
  H   1.98235369715428     -0.01000003313477      1.12556751593159
  N   -1.77747772803985     -0.96044869765393     -0.26606082930079
  O   -2.31048374355692     -1.82557729248174      0.41901335786949
  O   -2.01630900705156     -0.67690562020998     -1.43142213992337
  C   -1.31221534127629      1.11958499305964      0.87036499050758
  N   -1.77534206947755      2.13627437784494      1.23214894263060
