14
Coordinates from ORCA-job run
  C   -0.30893444552316     -0.00402528290067     -0.30124837515744
  C   1.05425203654619     -0.60642401908884      0.02890452453897
  Cl  -0.57910907200298     -0.05869144522510     -2.04356726785069
  H   1.19145355833851     -0.61810176520052      1.11124562711099
  H   1.06137070050084     -1.63728563100620     -0.33444201919237
  C   -1.43924542354210     -0.69837754981529      0.43424360443226
  H   -1.28064402808536     -0.61660898085953      1.51195209162440
  H   -1.47147488772613     -1.75094096021780      0.14955938938224
  H   -2.39104711926164     -0.23467014268882      0.17162441052629
  N   -0.32703681441178      1.45695574689850      0.16886713323268
  O   0.29852117084679      1.66944277516939      1.20379027252864
  O   -1.01359411009209      2.25825277186134     -0.44458200511437
  C   2.15768118185997      0.12765200335191     -0.58359617159800
  N   3.04780725255293      0.71382247972163     -1.07375121446357
