14
Coordinates from ORCA-job run
  C   -0.33152545727613      0.13533451551116     -0.33406389483729
  C   1.19127794023422      0.18146560157285     -0.16073663348033
  Cl  -0.73101339792079     -0.28662632747591     -2.00071844234399
  H   1.61985331180066      0.84959446455152     -0.91277970018478
  H   1.41600741794574      0.58389836130789      0.83261705155938
  C   -1.03021809059428     -0.80048894232086      0.62525641420304
  H   -2.11131609662236     -0.70851452371976      0.51610751924221
  H   -0.75756074446103     -0.56622086588316      1.65345185813594
  H   -0.74011358005038     -1.82606596803891      0.39530904799676
  N   -0.77153152039141      1.58405679748004     -0.06560536362814
  O   -0.76289146387807      2.37531621629166     -0.99687342472781
  O   -1.01408884924729      1.84437560932180      1.10944800587034
  C   1.78099250479328     -1.14637624884424     -0.28659602149313
  N   2.24412802566783     -2.22074868975408     -0.37581641631219
