14
Coordinates from ORCA-job run
  C   -0.26845590582749      0.17842027228678     -0.32291414513461
  C   1.23320756483497      0.14633726455196     -0.04522306667965
  Cl  -0.55644318899650     -0.10889217999716     -2.05230051087407
  H   1.41396807972879      0.46801521658977      0.98459050703365
  H   1.74949460919883      0.84581638326991     -0.70342418844320
  C   -1.06769833454017     -0.79110958204316      0.51487544956376
  H   -2.12593740113179     -0.70619484551057      0.27860789215641
  H   -0.92073241824105     -0.56903069148007      1.57548476228334
  H   -0.73267418799759     -1.80866072186903      0.31308214249005
  N   -0.76990482211755      1.60032675139260     -0.04272363951273
  O   0.07275605851570      2.48615101954503      0.06448757367186
  O   -1.98259064056641      1.74359011535370      0.03480394490662
  C   1.76482513064733     -1.20006764576510     -0.23160795988470
  N   2.18818545649292     -2.28570135632466     -0.36873876157673
