14
Coordinates from ORCA-job run
  C   -0.37853290621138      0.07184335097147     -0.44153638052346
  C   1.07131755153305     -0.36074693726909     -0.64054783685286
  Cl  -1.18401818508450      0.03935393822004     -2.02763925423769
  H   1.07030898343089     -1.37876570628160     -1.03871478396635
  H   1.55786652143503      0.29185087725761     -1.36552179751628
  C   -1.13887284247052     -0.76866788500824      0.55459018993969
  H   -0.68190903437837     -0.68068274934210      1.54238930528004
  H   -1.10915798186683     -1.81201982655535      0.23598320425683
  H   -2.17425494963512     -0.44152076195951      0.61471591126392
  N   -0.39372801631009      1.53943924467982      0.00184043403304
  O   -1.36510616620772      1.90956018787143      0.64890343414811
  O   0.54888088982034      2.23623108285469     -0.35729991202952
  C   1.80631981149888     -0.33080975597808      0.62140351006087
  N   2.37188632444635     -0.31406505946109      1.64943397614367
