14
Coordinates from ORCA-job run
  C   -0.43507514051339      0.05760378035850     -0.38904779251344
  C   0.97638895762817     -0.38759590154705     -0.76039507289110
  Cl  -1.44212752748656     -0.03031924351859     -1.85320537570358
  H   1.36258869273466      0.23647380365401     -1.56642583165285
  H   0.92479340649151     -1.41955917007187     -1.11703625681185
  C   -1.05702228560418     -0.74237062466113      0.72883475526936
  H   -1.06943584346895     -1.79676404846057      0.44763347610929
  H   -0.47357245051248     -0.62080230482953      1.64382320358870
  H   -2.07540418990800     -0.40858608858952      0.91346895475528
  N   -0.39273869579210      1.54082153510610     -0.00258161909295
  O   -1.26729637915345      1.93780494423345      0.75682912815920
  O   0.49068652544024      2.22091942282861     -0.51240864714626
  C   1.87249809037344     -0.31374770092864      0.39079382721548
  N   2.58571683977109     -0.27287840357377      1.32171725071471
