14
Coordinates from ORCA-job run
  C   -0.44728379891038      0.05507682224747     -0.37439340121168
  C   0.95947534024588     -0.35424307988719     -0.80110872192481
  Cl  -1.50105608603923     -0.02659514964099     -1.80569279176478
  H   0.91566371429818     -1.38010012496086     -1.17609013785050
  H   1.30649074974384      0.29225507250281     -1.60724708535902
  C   -1.01519575168243     -0.77786033020776      0.74828144811507
  H   -0.40415236787035     -0.66014670732077      1.64555387055325
  H   -2.03348188259609     -0.46883578221109      0.97231041225961
  H   -1.01548498116909     -1.82710744237772      0.44825148406396
  N   -0.42254258930484      1.53153264547743      0.03878364098386
  O   0.43503758548462      2.23771658979065     -0.47976955911585
  O   -1.28590326754801      1.89747769918930      0.82610035576254
  C   1.89045299029213     -0.28437146540292      0.32238204496866
  N   2.61698034505577     -0.23579874719836      1.24263844051970
