14
Coordinates from ORCA-job run
  C   -0.31873597755582      0.01065955272613     -0.28911964251893
  C   1.05297990961208     -0.60773817047563     -0.03216934583905
  Cl  -0.64628568636420      0.03604249295336     -2.02243869264178
  H   1.22800461158559     -0.66505361412877      1.04319987263880
  H   1.04409858505631     -1.62236508175415     -0.43863219170086
  C   -1.42661758148722     -0.71484954549522      0.45022805643560
  H   -1.47207337787528     -1.75270727675457      0.11741813804595
  H   -2.38481482625334     -0.23732580661727      0.24101401425812
  H   -1.23247997732126     -0.68425015899360      1.52480887686036
  N   -0.31642145359321      1.44882321364829      0.24750268316930
  O   0.34189303284984      1.61154837918252      1.27107327568600
  O   -1.01691922002233      2.27966965011458     -0.30827404251113
  C   2.13660423279822      0.14885871653720     -0.65277593740257
  N   3.01076772857062      0.75068764905714     -1.15283506447980
