14
Coordinates from ORCA-job run
  C   -0.33522739444866      0.13651212417266     -0.28200493553936
  C   1.18844799860669      0.03633128642023     -0.34495100723627
  Cl  -1.03206404326716     -0.43260143070278     -1.81452411312948
  H   1.55761624140430      0.55096341441164     -1.23219578832317
  H   1.61327512547729      0.53868964453288      0.53007940871767
  C   -0.94985397690896     -0.60068540342014      0.88238223234139
  H   -0.54971611832958     -0.20867399615720      1.82111729924084
  H   -0.70842495449118     -1.66109358096696      0.80501391922124
  H   -2.03011133277846     -0.47617862096665      0.88134202141332
  N   -0.68957511940310      1.62611562487017     -0.19126974282966
  O   0.11052877737649      2.41852895035997     -0.67810697007403
  O   -1.75951069192763      1.90971348466719      0.33158777074019
  C   1.61941784653881     -1.35752368531363     -0.35670978294831
  N   1.96419764215115     -2.47909781190738     -0.35276031159437
