14
Coordinates from ORCA-job run
  C   -0.28379819552483      0.15455752013822     -0.32223929015204
  C   1.23067116815474      0.02261069744920     -0.17430454216942
  Cl  -0.76484463456231     -0.34916909888394     -1.95628476862829
  H   1.53804356799001      0.46995510982533      0.77550583519186
  H   1.73291713360909      0.57016316362435     -0.97247596002943
  C   -1.07002279468417     -0.60584295135940      0.71936815947488
  H   -0.80115557150030     -0.24728213203386      1.71677017368619
  H   -2.13641607439351     -0.45735017343339      0.56507441344576
  H   -0.83878856556384     -1.66870859323422      0.64734035118992
  N   -0.64074585081983      1.64224222184062     -0.21662023149942
  O   -1.82505323468034      1.90746804766577     -0.06108125716740
  O   0.27662290770306      2.45192596031753     -0.31222169890111
  C   1.63213948240327     -1.38028745827976     -0.19999405871781
  N   1.95143066186895     -2.50928231363645     -0.20683712572366
