14
Coordinates from ORCA-job run
  C   -0.43744674653999      0.06271951052705     -0.38571267674945
  C   0.96779259539504     -0.38759307258833     -0.77496324362909
  Cl  -1.45970748027131     -0.01023131531512     -1.83982183581458
  H   0.90539287089810     -1.41599194086138     -1.14025656254252
  H   1.34986807537373      0.24038886638926     -1.57997414368088
  C   -1.05162566419637     -0.74180033761564      0.73356464161206
  H   -0.45873485633458     -0.62714284726227      1.64354374172904
  H   -1.07045871462033     -1.79495286452338      0.44712497600328
  H   -2.06726241639264     -0.40515853604800      0.92922372918957
  N   -0.38399604016846      1.54236056361440      0.01183476392968
  O   -1.25838174071485      1.93987822009512      0.77120692859833
  O   0.50747954232918      2.21934109227937     -0.48821475183369
  C   1.87489713457904     -0.32982552950764      0.36844833949095
  N   2.58218344066343     -0.29099180918344      1.30399609369728
