14
Coordinates from ORCA-job run
  C   -0.33887487408828      0.01887162312337     -0.28426334005315
  C   1.04705773783298     -0.59718986248906     -0.09473436167082
  Cl  -0.71772670389637      0.12681437982702     -2.00078538785383
  H   1.04501503810297     -1.59060320426891     -0.55032600275635
  H   1.24432263492991     -0.70285602210625      0.97381380930643
  C   -1.41678978305447     -0.75414387967905      0.45070923825904
  H   -1.18222830294213     -0.79319939969111      1.51537571154705
  H   -1.47608617693577     -1.76695671046972      0.04986445757597
  H   -2.38376761537245     -0.26835272134531      0.31069612196197
  N   -0.29863310582357      1.42684832302717      0.33007435548269
  O   -0.70262781405979      2.38198161813858     -0.31198944123630
  O   0.12361664200222      1.44296237989041      1.48333873704461
  C   2.10323156366306      0.21105049133624     -0.69782790227853
  N   2.95349075964168      0.86377298470661     -1.17494599532879
