14

C	0.0	0.0	0.0
C	-0.205143	0.284884	-1.502403
Br	1.953096	0.0	0.0
H	0.235133	-0.534759	-2.069386
H	-0.312167	0.853339	0.601796
H	0.286758	1.221029	-1.760083
C	-0.616672	-1.2879	0.476998
H	-0.301395	-2.126601	-0.147991
H	-0.345139	-1.491776	1.514661
H	-1.706702	-1.165989	0.409583
N	-1.589221	0.428035	-2.051432
O	-2.056983	1.56178	-2.064871
O	-2.092522	-0.579637	-2.538483
Cl	-4.004788	0.0	0.0
