14

C	0.0	0.0	0.0
C	-0.552761	-0.363123	-1.354329
Br	1.953755	0.0	0.0
H	-1.648835	-0.281645	-1.275877
H	-0.282009	1.02559	0.23253
H	-0.250998	-1.35639	-1.683412
C	-0.505437	-0.96036	1.059192
H	-0.129557	-0.674915	2.04344
H	-0.175685	-1.980168	0.846481
H	-1.598241	-0.914993	1.058275
N	-0.114391	0.577783	-2.42018
O	-0.102642	1.776943	-2.15482
O	0.179631	0.094723	-3.51416
Cl	-3.733245	0.0	0.0
