14

C	0.0	0.0	0.0
C	-0.557405	-0.347882	-1.367338
Br	1.955162	0.0	0.0
H	-1.647918	-0.434284	-1.252768
H	-0.287511	1.037637	0.178774
H	-0.298103	0.405567	-2.107987
C	-0.491742	-0.863426	1.147729
H	-0.147196	-1.890989	1.043065
H	-1.584485	-0.8361	1.131932
H	-0.127688	-0.457255	2.09333
N	-0.036542	-1.630526	-1.910705
O	-0.257237	-2.658171	-1.271774
O	0.578317	-1.588063	-2.978186
Cl	-3.723398	0.0	0.0
