14

C	0.0	0.0	0.0
C	-0.210118	0.167577	-1.524807
Br	1.953152	0.0	0.0
H	0.107378	1.163337	-1.829393
H	-0.322868	0.891614	0.535486
H	0.39908	-0.580797	-2.030493
C	-0.595028	-1.250542	0.590455
H	-1.684262	-1.155483	0.494144
H	-0.251953	-2.142243	0.060102
H	-0.335411	-1.334544	1.648042
N	-1.560616	-0.03317	-2.144374
O	-2.13123	0.964358	-2.571352
O	-1.915075	-1.198327	-2.294721
Cl	-3.884259	0.0	0.0
