13

C	-0.279811	-0.115087	-1.490724
C	0.0	0.0	0.0
F	-0.166209	1.166191	-2.061682
H	1.091615	0.0	0.0
H	-0.458648	0.905766	0.400956
H	-0.377021	-0.879991	0.52975
C	0.779181	-0.998011	-2.1329
H	0.73848	-0.914611	-3.222497
H	0.617861	-2.040366	-1.844331
H	1.741404	-0.669989	-1.709119
C	-1.653485	-0.564647	-1.81457
N	-2.737483	-0.949761	-2.053709
F	2.749974	0.0	0.0
