13

C	0.0	0.0	0.0
C	-0.500817	0.208694	-1.429838
F	1.381815	0.0	0.0
H	-1.59847	0.29872	-1.278115
H	-0.340496	-1.003732	0.265153
H	-0.234647	-0.625427	-2.078007
N	-0.509719	0.894946	0.985388
H	-1.530192	0.697288	0.896661
H	-0.365476	1.839348	0.644316
N	0.071065	1.406038	-2.076194
O	-0.012484	2.488015	-1.489463
O	0.599636	1.274339	-3.184807
F	-2.791855	0.0	0.0
