13

C	0.0	0.0	0.0
C	-0.516512	-0.09571	-1.416169
F	1.381847	0.0	0.0
H	-1.616992	-0.167482	-1.275472
H	-0.295257	-0.906919	0.537058
H	-0.195357	0.764825	-1.999032
N	-0.526302	1.210306	0.554444
H	-0.291487	1.221752	1.542574
H	-1.553465	1.011757	0.477253
N	0.00112	-1.296916	-2.101212
O	-0.119984	-2.383984	-1.533863
O	0.509107	-1.158022	-3.218575
F	-2.812157	0.0	0.0
