13

C	0.0	0.0	0.0
C	-0.530014	-0.165975	-1.400027
F	1.406691	0.0	0.0
H	-0.239216	0.667525	-2.035103
H	-0.277218	-0.881842	0.583876
H	-1.631539	-0.230021	-1.235583
N	-0.527132	1.230452	0.50387
H	-0.315155	1.270574	1.495891
H	-1.553903	1.032681	0.421675
N	-0.043604	-1.397069	-2.052405
O	0.024248	-2.428834	-1.383876
O	0.2275	-1.340159	-3.254932
F	-2.821591	0.0	0.0
