13

C	0.0	0.0	0.0
C	-0.443363	0.174938	-1.446412
F	1.4106	0.0	0.0
H	-0.918114	1.13916	-1.599488
H	-0.284758	-0.994075	0.348459
H	0.434172	0.076625	-2.094529
N	-0.490706	1.083888	0.78787
H	-1.521763	0.912945	0.618191
H	-0.325889	0.839481	1.761486
N	-1.392617	-0.848232	-1.972185
O	-1.256381	-2.013651	-1.616387
O	-2.147322	-0.478764	-2.865855
F	-2.644134	0.0	0.0
