13

C	0.0	0.0	0.0
C	-0.481544	0.034345	-1.451902
F	1.398412	0.0	0.0
H	-0.192014	-0.865926	-1.991625
H	-0.336661	-0.964116	0.385392
H	-1.578139	0.137758	-1.329984
N	-0.508072	1.011662	0.860283
H	-1.530339	0.804059	0.792561
H	-0.359533	1.906484	0.407341
N	0.101106	1.157423	-2.210157
O	0.779621	0.901534	-3.209435
O	-0.113464	2.305153	-1.809255
F	-2.781561	0.0	0.0
