16

C	-0.444342	-0.02691	-1.459751
C	0.0	0.0	0.0
Cl	-0.173844	1.628484	-2.160953
H	1.101701	0.0	0.0
H	-0.315445	-0.967004	0.416198
N	0.369273	-0.935135	-2.246636
H	0.202212	-1.87367	-1.894101
H	1.348438	-0.726298	-2.04913
C	-1.915349	-0.349425	-1.622855
H	-2.099957	-1.367969	-1.262341
H	-2.200183	-0.290563	-2.674201
H	-2.510313	0.342782	-1.027551
N	-0.638636	1.057585	0.788255
H	-0.385151	0.901379	1.75798
H	-0.193511	1.93115	0.527718
Cl	3.554355	0.0	0.0
