14
Coordinates from ORCA-job run
  C   0.54117444670028      0.06030491603355     -0.58835426384352
  C   -0.68018047295229     -0.75430403512237     -0.16379935644298
  F   1.06139927122446     -0.50936417130484     -1.70293011773527
  H   -0.34263679379550     -1.77137504279775      0.08295046567319
  H   -1.30828990701215     -0.82095504550876     -1.05631491377396
  N   1.58498324170589     -0.08569034202331      0.51892204698590
  O   1.35301327146955      0.56378586056155      1.53567178655816
  O   2.51823967946018     -0.85343341842797      0.33897424781620
  N   0.36413477654490      1.44942641552464     -0.81199580526088
  H   -0.20937686548992      1.81955695196000     -0.06237012816981
  H   -0.12729783131308      1.57113045786669     -1.68944620887108
  N   -1.41971972640662     -0.06108515650775      0.87963906240387
  H   -2.36085495083538     -0.42472568111057      0.93959268609649
  H   -0.97458813930032     -0.18427170914312      1.77946049856367
