14
Coordinates from ORCA-job run
  C   0.38675600492032      0.03550280472990     -0.43099316043296
  C   -0.51325252891315     -0.67219911800891      0.56442202550479
  F   0.57874266954925     -0.69893233264635     -1.54429366929373
  H   -0.52664973964843     -0.06437966207764      1.48168737949840
  H   -0.04642891664809     -1.63223878381742      0.80155479383432
  N   1.78047844757941      0.13472732240826      0.25149758594485
  O   1.87672338771242      1.02163647281269      1.09866428739495
  O   2.64303090331740     -0.67559698515020     -0.05614914970977
  N   -0.10869099827784      1.30904171157332     -0.79781980894361
  H   -0.02375484746071      1.95330750307692     -0.02228338499933
  H   0.40162846247357      1.66843673397458     -1.59557018801089
  N   -1.80197049224025     -0.90708635843130     -0.05816210115463
  H   -2.39187540289828     -1.44916183180731      0.55851121616997
  H   -2.25373694946564     -0.02305747663656     -0.25006582580235
