16

C	-0.194541	-0.023675	-1.523915
C	0.0	0.0	0.0
Br	-0.262534	2.041167	-2.177897
H	1.09378	0.0	0.0
H	-0.409853	-0.931848	0.39809
N	0.93181	-0.658851	-2.000908
H	1.801565	-0.419221	-1.465264
H	1.017558	-0.689582	-3.005007
C	-1.506024	-0.546848	-2.06848
H	-2.341187	0.019144	-1.661239
H	-1.596567	-1.597199	-1.768338
H	-1.529297	-0.485179	-3.158583
N	-0.69285	1.085968	0.708338
O	-1.926211	1.008891	0.767384
O	-0.031134	1.984111	1.220005
F	2.679637	0.0	0.0
