16

C	-0.066492	0.16895	-1.516139
C	0.0	0.0	0.0
Br	-1.921811	0.554758	-2.144307
H	1.094225	0.0	0.0
H	-0.45636	-0.916741	0.364169
N	0.818735	1.202873	-2.013682
H	0.530272	2.075975	-1.584002
H	1.712138	0.963607	-1.553165
C	0.385695	-1.156073	-2.106143
H	0.447822	-1.065055	-3.1904
H	1.381525	-1.334187	-1.686801
H	-0.28544	-1.974101	-1.837323
N	-0.539727	1.098514	0.797895
O	-1.156735	0.804332	1.825802
O	-0.336077	2.260823	0.438024
F	2.617193	0.0	0.0
