14

C	-0.097601	-0.055228	-1.551916
C	0.0	0.0	0.0
Br	0.112697	1.907943	-2.220876
H	1.097773	0.0	0.0
N	0.928272	-0.894414	-1.968946
H	1.037687	-0.949612	-2.97129
H	1.798659	-0.667613	-1.438077
C	-1.406666	-0.422879	-2.089035
N	-2.451705	-0.755237	-2.51426
C	-0.467838	-1.25924	0.562194
N	-0.839838	-2.26885	1.036058
C	-0.620992	1.13027	0.656246
N	-1.122842	2.010551	1.252548
F	2.541773	0.0	0.0
