14

C	-0.32551	-0.021725	-1.48124
C	0.0	0.0	0.0
Br	-2.410151	-0.380028	-1.72742
H	1.098166	0.0	0.0
N	0.049	1.158572	-2.11865
H	-0.297868	1.984686	-1.648195
H	-0.174007	1.16684	-3.103051
C	0.253978	-1.188121	-2.142951
N	0.705999	-2.131878	-2.677688
C	-0.446175	-1.181961	0.70451
N	-0.755739	-2.155182	1.287138
C	-0.479938	1.220331	0.609874
N	-0.83542	2.253671	1.046906
F	2.405746	0.0	0.0
