14

C	-0.095039	0.085209	-1.537576
C	0.0	0.0	0.0
Br	-1.913347	0.626966	-2.175612
H	1.099777	0.0	0.0
N	0.873339	1.053605	-1.937656
H	1.739111	0.830562	-1.405122
H	1.033424	1.017079	-2.936418
C	0.103826	-1.252524	-2.123262
N	0.327979	-2.288809	-2.634018
C	-0.59535	-1.187813	0.572399
N	-1.065936	-2.153343	1.050412
C	-0.466908	1.215726	0.640683
N	-0.823804	2.185964	1.199608
F	2.521103	0.0	0.0
