14

C	-0.442663	0.030781	-1.468287
C	0.0	0.0	0.0
Br	0.469884	-1.52453	-2.389218
H	1.095301	0.0	0.0
N	-1.856523	-0.013888	-1.615585
H	-2.228312	-0.821246	-1.126984
H	-2.12381	-0.057876	-2.591839
C	0.082366	1.219143	-2.144542
N	0.428036	2.179076	-2.727424
C	-0.508719	-1.19254	0.651732
N	-0.932101	-2.158493	1.173913
C	-0.468062	1.195642	0.682911
N	-0.805008	2.176664	1.23734
F	2.429009	0.0	0.0
