14

C	-0.101352	0.008799	-1.538028
C	0.0	0.0	0.0
Br	-1.920698	0.53002	-2.194145
H	1.109267	0.0	0.0
N	0.868799	0.951084	-1.993463
H	1.734861	0.755992	-1.452731
H	1.02782	0.859554	-2.9886
C	0.08447	-1.356219	-2.06174
N	0.285397	-2.410101	-2.54567
C	-0.582289	-1.16001	0.638694
N	-1.024926	-2.102521	1.185503
C	-0.46754	1.242298	0.585926
N	-0.833874	2.227858	1.111331
F	2.518483	0.0	0.0
