14

C	-0.323357	0.251672	-1.458026
C	0.0	0.0	0.0
Br	-2.410735	-0.056963	-1.770261
H	1.107793	0.0	0.0
N	0.048671	1.530302	-1.866789
H	-0.306854	2.255747	-1.256368
H	-0.169655	1.716013	-2.835422
C	0.256666	-0.76825	-2.327264
N	0.704223	-1.55582	-3.075564
C	-0.444246	-1.291939	0.473818
N	-0.749605	-2.351947	0.880743
C	-0.476495	1.086139	0.82655
N	-0.819726	2.019402	1.456026
F	2.402156	0.0	0.0
