17

C	0.0	0.0	0.0
C	-0.517447	-0.247334	-1.441441
Br	1.938356	0.0	0.0
H	-1.5786	-0.443136	-1.222245
N	-0.557081	1.140192	0.601339
H	-0.401959	1.882167	-0.07631
H	-1.589148	0.888758	0.548411
N	-0.37694	-1.202574	0.895991
O	-0.328924	-2.321917	0.384372
O	-0.650801	-0.988621	2.064036
N	0.188812	-1.283552	-2.199709
H	0.33404	-2.072604	-1.581884
H	-0.458291	-1.599557	-2.916061
N	-0.408245	1.018159	-2.161353
H	0.279206	0.89687	-2.894239
H	-1.306054	1.255828	-2.559622
F	-2.826754	0.0	0.0
