17

C	0.0	0.0	0.0
C	-0.52616	0.071671	-1.48959
Br	1.938629	0.0	0.0
H	0.339981	0.047657	-2.155317
N	-0.550021	0.911318	0.923416
H	-0.47471	1.820046	0.474599
H	-1.562053	0.659771	0.900077
N	-0.28729	-1.437253	0.563274
O	0.295104	-2.374065	0.036782
O	-1.067492	-1.52353	1.499725
N	-1.165089	1.388623	-1.614471
H	-2.065674	1.242234	-1.136877
H	-1.359119	1.530861	-2.600978
N	-1.36857	-1.071672	-1.789807
H	-1.635165	-1.000207	-2.766086
H	-2.206539	-0.918572	-1.201152
F	-2.9556	0.0	0.0
