17

C	0.0	0.0	0.0
C	-0.298987	0.063351	-1.537106
Br	2.038933	0.0	0.0
H	0.561174	-0.397625	-2.026698
N	-0.667892	0.919422	0.753333
H	-1.720309	0.709926	0.482771
H	-0.545239	0.711016	1.738558
N	-0.202069	-1.486338	0.499895
O	-0.704917	-1.610643	1.613121
O	0.181942	-2.398313	-0.215271
N	-0.369211	1.498585	-1.894827
H	0.061857	2.071533	-1.176493
H	0.135065	1.633889	-2.764382
N	-1.446576	-0.709979	-1.935986
H	-2.248256	-0.417295	-1.349058
H	-1.628309	-0.47495	-2.906532
F	-2.931662	0.0	0.0
