17

C	0.0	0.0	0.0
C	-0.520901	-0.165691	-1.444469
Br	1.925558	0.0	0.0
H	-1.549967	-0.488169	-1.26361
N	-0.614725	1.075535	0.635888
H	-0.382533	1.060272	1.621959
H	-1.661639	0.813232	0.485451
N	-0.327368	-1.340198	0.770322
O	-0.693612	-2.328274	0.152481
O	-0.196744	-1.286434	1.990447
N	0.240575	-1.144959	-2.203303
H	0.709169	-0.649682	-2.94813
H	-0.381844	-1.838887	-2.585133
N	-0.478556	1.145558	-2.100478
H	-0.465549	1.849951	-1.3675
H	-1.368702	1.260938	-2.580437
F	-2.837166	0.0	0.0
