17

C	0.0	0.0	0.0
C	-0.303993	-0.014668	-1.557979
Br	2.037468	0.0	0.0
H	0.511479	-0.603933	-1.988205
N	-0.639765	0.94461	0.744587
H	-1.67121	0.807251	0.468492
H	-0.538976	0.718559	1.730375
N	-0.213254	-1.463832	0.553661
O	-0.550418	-1.559155	1.728204
O	-0.007307	-2.410074	-0.198143
N	-0.294635	1.381085	-1.979379
H	-0.527359	1.36743	-2.965748
H	0.629824	1.77933	-1.853625
N	-1.533272	-0.596083	-2.013937
H	-1.443899	-1.60091	-1.93642
H	-2.289896	-0.305476	-1.355392
F	-2.964181	0.0	0.0
