12

C	0.0	0.0	0.0
C	-0.349743	0.061597	-1.508907
F	1.375725	0.0	0.0
H	-1.444762	0.123117	-1.546115
H	0.100718	0.962587	-1.944521
C	-0.52319	1.181896	0.720746
N	-0.638979	2.152949	1.393217
C	-0.574521	-1.155887	0.698081
N	-0.644783	-2.035794	1.487124
C	0.125788	-1.118795	-2.224108
N	0.531909	-2.060193	-2.796122
H	-2.200291	0.0	0.0
