12

C	0.0	0.0	0.0
C	-0.35471	0.115197	-1.501219
F	1.375553	0.0	0.0
H	0.017596	1.07403	-1.867496
H	-1.448302	0.081557	-1.521193
C	-0.509749	1.152015	0.76023
N	-0.452396	2.118136	1.445062
C	-0.569581	-1.230748	0.583828
N	-0.549107	-2.250062	1.187461
C	0.253815	-0.972386	-2.254142
N	0.737132	-1.856541	-2.853571
H	-2.331975	0.0	0.0
