12

C	0.0	0.0	0.0
C	-0.319349	-0.080017	-1.512069
F	1.37571	0.0	0.0
H	0.16239	-0.984456	-1.911402
H	-1.404197	-0.128212	-1.59908
C	-0.570495	1.191743	0.683623
N	-0.66965	2.150801	1.368466
C	-0.496545	-1.165657	0.744221
N	-0.665658	-2.136843	1.39448
C	0.207477	1.084864	-2.198106
N	0.618813	2.010281	-2.79071
H	-2.354223	0.0	0.0
