12

C	0.0	0.0	0.0
C	-0.309791	0.082182	-1.51255
F	1.375733	0.0	0.0
H	-1.392941	0.11845	-1.624582
H	0.163954	0.991461	-1.889392
C	-0.448792	1.204388	0.741338
N	-0.762204	2.122216	1.407616
C	-0.523169	-1.21948	0.64383
N	-0.71297	-2.117793	1.381344
C	0.247475	-1.066019	-2.223148
N	0.610673	-2.00554	-2.828545
H	-2.368884	0.0	0.0
