12

C	0.0	0.0	0.0
C	-0.300559	-0.082213	-1.52542
F	1.375722	0.0	0.0
H	0.109347	-1.039598	-1.864231
H	-1.379602	-0.06815	-1.664736
C	-0.472923	1.270887	0.584783
N	-0.499732	2.336678	1.091429
C	-0.700809	-1.116574	0.663271
N	-0.623805	-2.163737	1.230647
C	0.33916	0.995815	-2.271242
N	0.832159	1.848759	-2.910374
H	-2.212271	0.0	0.0
