12

C	0.0	0.0	0.0
C	-0.296749	-0.009537	-1.527408
F	1.375751	0.0	0.0
H	0.118959	0.924587	-1.92116
H	-1.373801	-0.030899	-1.673023
C	-0.727044	1.131825	0.60704
N	-0.615883	2.194239	1.144377
C	-0.465426	-1.24181	0.657734
N	-0.556795	-2.239562	1.279572
C	0.34655	-1.129969	-2.204426
N	0.851492	-2.022455	-2.775354
H	-2.204821	0.0	0.0
