12

C	0.0	0.0	0.0
C	-0.386327	-0.041219	-1.495558
F	1.375581	0.0	0.0
H	-0.020524	0.88373	-1.966426
H	-1.481186	-0.07228	-1.525434
C	-0.537381	1.213555	0.650438
N	-0.704426	2.179568	1.308111
C	-0.574657	-1.137588	0.754053
N	-0.719327	-1.985218	1.567091
C	0.213679	-1.191163	-2.159814
N	0.707419	-2.100587	-2.713195
H	-2.438114	0.0	0.0
