12

C	0.0	0.0	0.0
C	-0.343732	0.009634	-1.506931
F	1.375607	0.0	0.0
H	-1.443029	0.019025	-1.555793
H	0.077626	0.922305	-1.945044
C	-0.507579	1.232416	0.658988
N	-0.700255	2.207376	1.295611
C	-0.601528	-1.153331	0.695817
N	-0.722032	-2.006486	1.507403
C	0.205681	-1.146327	-2.191086
N	0.622963	-2.093433	-2.751968
H	-2.375318	0.0	0.0
