14
Coordinates from ORCA-job run
  C   -0.12102718934326      0.37763399513583      0.34741956405398
  C   1.16376468895452     -0.19338267982630     -0.25313773533864
  Br  0.26265058424198      1.15182438877887      2.09012824787890
  H   0.96418074861945     -0.48885365287905     -1.28880479338615
  H   1.94239511856443      0.56932758021324     -0.27562035793936
  N   -0.56812750232211      1.54664789728497     -0.53353083948737
  O   -1.74369617013753      1.87841010051523     -0.45429622947815
  O   0.28679965233375      2.07745228473301     -1.23575250598592
  C   -1.24387060270569     -0.62791795195572      0.45178981315696
  H   -2.13574955254476     -0.16380160619587      0.86604301664263
  H   -1.47744046968659     -1.01445685304580     -0.54496960579596
  H   -0.93540008387476     -1.45479972510203      1.09198239939094
  C   1.62209442926512     -1.35666155399912      0.49929819645709
  N   1.98142634863545     -2.30142222365727      1.09545082983104
