14
Coordinates from ORCA-job run
  C   -0.16791925091893      0.32914520199368      0.57387636846577
  C   1.13992775122910     -0.45977503884791      0.55647855109912
  Br  -0.34061986966632      1.17025619065815      2.32139188142537
  H   1.97835559978513      0.19801968021758      0.78539953892101
  H   1.08610445120858     -1.23248378997667      1.32752189287992
  N   -0.05444989991479      1.48130538044846     -0.42799500729328
  O   1.06880726917156      1.92740763038692     -0.63310894557267
  O   -1.09735590694040      1.88457995961792     -0.92692712672253
  C   -1.39004525540144     -0.50265434290271      0.26592340023643
  H   -1.31245698569208     -0.90891179841922     -0.74561229023759
  H   -2.29286587745367      0.09978985827576      0.33330301962825
  H   -1.45240549268174     -1.32562433571484      0.98016766137178
  C   1.34844001961901     -1.08282459993745     -0.74946847777859
  N   1.48748344765599     -1.57922999579968     -1.80395046642301
