14
Coordinates from ORCA-job run
  C   -0.16370103979836      0.35585006683800      0.55479153044681
  C   1.16651622655794     -0.39419191295956      0.54350389839535
  Br  -0.30413307188114      1.30541645262121      2.24890462764871
  H   1.99163000432520      0.30255250372059      0.69116950815145
  H   1.16498650273444     -1.10874736892276      1.37058500142789
  N   -0.12226361559772      1.44174969468742     -0.52332804011546
  O   -1.19717676071067      1.79893642032492     -0.98854581136590
  O   0.98059921155980      1.88922750563954     -0.81767487771917
  C   -1.36900195095316     -0.52943984543292      0.34471721668685
  H   -2.28736468237091      0.04961790925447      0.40595355282547
  H   -1.38130858882653     -1.30627637680344      1.11112154015423
  H   -1.31292189227184     -0.99788629189033     -0.64100148061907
  C   1.34894117451820     -1.10927243189626     -0.71864240492906
  N   1.48419848271473     -1.69853632518089     -1.72455426098811
