14
Coordinates from ORCA-job run
  C   -0.11932980005935      0.37376410056991      0.35546261907886
  C   1.18342425175274     -0.24639440435556     -0.15015693404632
  Br  0.13554664100210      1.03877854058768      2.16542490246842
  H   2.00269551454283      0.46682724110069     -0.05741792291891
  H   1.06985924220543     -0.47826131116299     -1.21462805619058
  N   -0.41075022700920      1.60869565184338     -0.50073966579314
  O   0.53679319075038      2.11612527586567     -1.09292617323122
  O   -1.56721662774054      2.00983620113773     -0.51347621957667
  C   -1.30278307955172     -0.56380245229375      0.29885570210200
  H   -2.20272673615862     -0.06545918152848      0.65130292018011
  H   -1.10618488366026     -1.43801561918656      0.91999536657384
  H   -1.45970555206666     -0.88687622429976     -0.73479369231266
  C   1.49825358355598     -1.47131037123120      0.57761145297792
  N   1.74212448243690     -2.46490744704680      1.15248570068836
