14
Coordinates from ORCA-job run
  C   -0.10549040356795      0.37995660377302      0.35138818856663
  C   1.17014769631175     -0.28043950712326     -0.17206384124738
  Br  0.20536220746028      1.06717132601363      2.14430710245928
  H   1.02649606698891     -0.52803686785476     -1.22933730566512
  H   2.00818859518555      0.41410431566677     -0.11061297101817
  N   -0.38545348335245      1.60822163998071     -0.51812278610335
  O   0.56044655461913      2.08172652980987     -1.14024808209250
  O   -1.53127657679008      2.03880383142107     -0.51037994918033
  C   -1.31242994671897     -0.52881602347787      0.33566863905081
  H   -1.49967264439774     -0.86445664454644     -0.68893780210125
  H   -2.19203290655233     -0.00271923744108      0.69904404606481
  H   -1.12364485472570     -1.39752998323439      0.96693333110914
  C   1.47224682334564     -1.49966126474513      0.57053655448858
  N   1.70611287219400     -2.48832471824217      1.15782487566887
