17

C	-0.014614	0.015327	-0.023715
C	-0.386032	0.031216	-1.528935
Cl	1.771731	-0.148909	0.120845
H	0.279076	0.759507	-2.001596
N	-0.304488	1.412065	0.530604
O	-0.165851	2.356927	-0.243458
O	-0.589569	1.502168	1.717071
C	-0.711902	-1.03755	0.788267
H	-0.403822	-2.018576	0.42244
H	-0.444365	-0.944872	1.839047
H	-1.798637	-0.939784	0.680004
N	-1.744166	0.377486	-1.851437
H	-1.887748	1.365566	-1.692342
H	-2.449694	-0.123872	-1.302508
C	-0.04606	-1.287717	-2.090106
N	0.226742	-2.334816	-2.545265
Cl	-4.1637	-0.513056	0.156242
