16

C	-0.206592	0.229192	-1.51375
C	0.0	0.0	0.0
F	-1.337435	0.952236	-1.792582
H	1.099821	0.0	0.0
N	0.93645	0.797332	-2.050196
H	1.774428	0.54971	-1.491079
H	1.036461	0.660843	-3.044534
N	-0.51322	-1.171604	-2.156008
O	0.408919	-1.976857	-2.092891
O	-1.60031	-1.357656	-2.691705
C	-0.622084	-1.187742	0.535565
N	-1.100758	-2.173515	0.960911
N	-0.427091	1.206905	0.765499
O	-1.071183	1.032166	1.799556
O	-0.054939	2.293837	0.341797
F	2.534014	0.0	0.0
