16

C	-0.412673	-0.013719	-1.464501
C	0.0	0.0	0.0
F	0.03592	-1.204829	-1.978771
H	1.090301	0.0	0.0
N	-1.772567	0.208763	-1.746787
H	-2.031439	-0.226969	-2.620894
H	-2.372398	-0.068711	-0.984164
N	0.349347	1.067146	-2.237388
O	0.470003	2.138968	-1.667672
O	0.65783	0.811132	-3.394798
C	-0.519599	-1.197801	0.63133
N	-0.918653	-2.172682	1.153613
N	-0.559237	1.173809	0.752065
O	-1.786552	1.211329	0.89959
O	0.225064	1.996406	1.203061
F	2.453463	0.0	0.0
