16

C	-0.476818	0.056719	-1.437153
C	0.0	0.0	0.0
F	-0.008683	-1.062653	-2.063281
H	1.092719	0.0	0.0
N	-1.871009	0.11463	-1.632623
H	-2.238174	0.915482	-1.135219
H	-2.05977	0.204302	-2.624345
N	0.239422	1.204118	-2.206985
O	-0.065238	1.265707	-3.399666
O	1.00909	1.946715	-1.619151
C	-0.444872	-1.230472	0.621393
N	-0.785656	-2.228576	1.140117
N	-0.454549	1.13888	0.822354
O	-0.171882	1.106322	2.014967
O	-1.057604	2.069621	0.272394
F	2.422823	0.0	0.0
