16

C	-0.623539	-0.222397	-1.363105
C	0.0	0.0	0.0
F	-0.110492	-1.429035	-1.841289
H	1.106138	0.0	0.0
N	-2.024639	-0.2007	-1.332188
H	-2.369206	-0.936159	-0.728264
H	-2.415776	-0.271673	-2.261229
N	-0.146442	0.765526	-2.428613
O	-0.958469	1.046538	-3.310784
O	1.023401	1.101026	-2.387813
C	-0.400699	-1.087112	0.86909
N	-0.694803	-2.005145	1.54292
N	-0.448588	1.289734	0.560222
O	-0.640925	1.366886	1.771963
O	-0.548078	2.228937	-0.229456
F	2.419088	0.0	0.0
