16

C	-0.110786	0.014488	-1.513625
C	0.0	0.0	0.0
F	0.157796	1.291847	-1.977655
H	1.093716	0.0	0.0
N	0.784175	-0.947134	-1.98649
H	0.881475	-0.87367	-2.991185
H	1.677762	-0.787594	-1.486803
N	-1.491514	-0.276553	-2.091367
O	-1.559113	-0.280912	-3.318096
O	-2.417393	-0.489538	-1.318644
C	-0.458308	-1.223177	0.617692
N	-0.777589	-2.217603	1.15499
N	-0.566733	1.171737	0.708365
O	-0.232655	1.287709	1.886
O	-1.317816	1.934215	0.103341
F	2.523491	0.0	0.0
