14

C	0.0	0.0	0.0
C	-0.471873	-0.157745	-1.431889
F	1.389505	0.0	0.0
H	-0.24122	-1.196521	-1.70718
H	-1.556704	-0.030045	-1.430681
C	-0.326696	1.361313	0.519802
N	-0.52637	2.415246	0.996852
N	-0.495893	-1.06571	0.810008
H	-0.327722	-0.846582	1.785476
H	-1.513434	-1.070777	0.679039
N	0.158435	0.851777	-2.273093
H	-0.375881	0.961413	-3.12399
H	1.095638	0.563113	-2.517793
Cl	-3.631963	0.0	0.0
