14

C	0.0	0.0	0.0
C	-0.531788	0.304506	-1.380976
F	1.416534	0.0	0.0
H	-1.617853	0.390845	-1.261922
H	-0.328842	-0.576487	-2.01244
C	-0.335594	1.077931	0.957705
N	-0.542063	1.888566	1.779752
N	-0.505967	-1.219411	0.467695
H	-0.25368	-1.434319	1.419258
H	-0.361071	-1.988825	-0.165614
N	0.043935	1.5457	-1.880226
H	0.969483	1.377224	-2.249479
H	-0.538201	1.911824	-2.621124
Cl	-4.00425	0.0	0.0
