14

C	0.0	0.0	0.0
C	-0.596623	0.229719	-1.400604
F	1.420681	0.0	0.0
H	-1.306634	1.058865	-1.320548
H	0.233506	0.521755	-2.049803
C	-0.281518	1.163243	0.883286
N	-0.404132	2.099893	1.579167
N	-0.489715	-1.17396	0.571993
H	-0.023228	-1.426303	1.428939
H	-0.558486	-1.912868	-0.113503
N	-1.238559	-0.986934	-1.888257
H	-2.178098	-0.974147	-1.476801
H	-1.343308	-0.917563	-2.892723
Cl	-3.846802	0.0	0.0
