14

C	0.0	0.0	0.0
C	-0.586464	0.156533	-1.386917
F	1.400341	0.0	0.0
H	-1.638691	-0.143426	-1.302236
H	-0.037875	-0.542782	-2.027586
C	-0.321713	1.17899	0.854942
N	-0.486824	2.111821	1.547568
N	-0.471005	-1.183439	0.617458
H	0.194749	-1.571951	1.265597
H	-0.854856	-1.860533	-0.021564
N	-0.407386	1.52345	-1.883322
H	-1.171728	2.076693	-1.50962
H	-0.530023	1.511328	-2.887816
Cl	-3.847775	0.0	0.0
