14

C	0.0	0.0	0.0
C	-0.470571	-0.170346	-1.431443
F	1.388847	0.0	0.0
H	-0.228019	-1.207314	-1.703544
H	-1.556471	-0.055078	-1.429022
C	-0.325972	1.366239	0.506752
N	-0.534477	2.426531	0.965407
N	-0.497731	-1.057567	0.817379
H	-0.322971	-0.836522	1.791358
H	-1.515899	-1.055864	0.690898
N	0.147591	0.843397	-2.27732
H	-0.392905	0.949817	-3.124619
H	1.086083	0.561169	-2.528035
Cl	-3.629007	0.0	0.0
