13

C	0.0	0.0	0.0
C	-0.441275	-0.184795	-1.454006
F	1.37502	0.0	0.0
H	-0.222665	0.71768	-2.022453
H	-1.525538	-0.38376	-1.384672
C	-0.470539	1.309966	0.477579
N	-0.574694	2.422312	0.845441
C	-0.454088	-1.059025	0.917908
N	-0.572789	-1.895212	1.736171
N	0.295881	-1.286107	-2.114668
O	0.485618	-2.319566	-1.478281
O	0.624601	-1.115457	-3.290535
F	-2.423343	0.0	0.0
