18

C	0.0	0.0	0.0
C	-0.50739	0.147498	-1.444268
F	1.390427	0.0	0.0
H	-1.605242	0.205719	-1.291723
C	-0.415488	1.201717	0.840555
H	0.001794	2.131738	0.445403
H	-0.040273	1.059254	1.860186
H	-1.507674	1.20926	0.828476
N	-0.523708	-1.24228	0.498391
H	-1.549452	-1.059872	0.417452
H	-0.313023	-1.280022	1.492195
C	-0.124035	-1.045827	-2.322815
H	-0.540794	-1.952542	-1.888148
H	-0.512221	-0.915738	-3.336589
H	0.96296	-1.151113	-2.372894
C	-0.015982	1.383365	-2.046689
N	0.371514	2.360884	-2.572301
F	-2.891815	0.0	0.0
