18

C	0.0	0.0	0.0
C	-0.201748	0.289554	-1.553861
F	1.39916	0.0	0.0
H	0.617908	0.974641	-1.800834
C	-0.490033	1.171701	0.818634
H	-0.155928	1.030021	1.849293
H	-0.082535	2.11052	0.433326
H	-1.58351	1.149312	0.761572
N	-0.574632	-1.193636	0.502445
H	-1.596818	-0.985142	0.452003
H	-0.375236	-1.964438	-0.127514
C	-1.517718	0.902848	-2.041655
H	-1.548544	0.883989	-3.136014
H	-2.367797	0.396701	-1.56768
H	-1.559125	1.946181	-1.717117
C	0.088656	-0.949975	-2.277959
N	0.315121	-1.951891	-2.849576
F	-3.032986	0.0	0.0
