18

C	0.0	0.0	0.0
C	-0.495907	0.218765	-1.452016
F	1.379648	0.0	0.0
H	-1.592885	0.282137	-1.292153
C	-0.442676	1.159483	0.876426
H	-0.019151	2.098271	0.510868
H	-1.534402	1.170985	0.84858
H	-0.080368	0.970065	1.88944
N	-0.519807	-1.20946	0.57107
H	-0.313478	-1.988025	-0.045409
H	-1.544651	-1.026351	0.524405
C	-0.143452	-0.937696	-2.392176
H	-0.395023	-0.686496	-3.425203
H	-0.71749	-1.825411	-2.122792
H	0.924412	-1.168777	-2.342713
C	0.010899	1.469604	-2.008586
N	0.414621	2.46464	-2.488685
F	-2.896234	0.0	0.0
