18

C	0.0	0.0	0.0
C	-0.298964	0.071451	-1.523801
F	1.392715	0.0	0.0
H	0.45648	-0.613154	-1.928467
C	-0.428801	1.214384	0.804686
H	-1.520458	1.228901	0.743795
H	0.026453	2.137564	0.436884
H	-0.104037	1.06386	1.840652
N	-0.512029	-1.242624	0.49094
H	-1.54219	-1.051568	0.405405
H	-0.302257	-1.285754	1.485695
C	-0.04269	1.461646	-2.111259
H	-0.82366	2.15605	-1.798581
H	-0.042034	1.413285	-3.20324
H	0.928944	1.832247	-1.776627
C	-1.567915	-0.446162	-2.056162
N	-2.350505	-0.865084	-2.828523
F	-2.780452	0.0	0.0
