11
Coordinates from ORCA-job run
  C   -0.53293324171244      0.06073624700940     -0.12972630536788
  C   0.76689161698595      0.06011355981845      0.32155609872352
  C   -1.54118558839696      0.74045182198351      0.63250998154303
  N   -2.39002412488353      1.28064328877046      1.24385917036362
  N   -0.93678007354439     -0.48370276101618     -1.30621524017182
  H   -1.91875942246900     -0.66156764773545     -1.43846390019039
  H   -0.29795418420850     -1.09555116185538     -1.79357422813659
  C   1.14533545154120      0.71505918397316      1.52728845117725
  N   1.47021966017367      1.25073139800499      2.52361659270902
  C   1.74735947995061     -0.63306571000011     -0.44482548473453
  N   2.48783042656338     -1.23284821895286     -1.13702513591525
