11
Coordinates from ORCA-job run
  C   -0.53409550006977      0.01306797839621     -0.13877684676458
  C   0.73497473548785      0.01682519348900      0.39308001799682
  C   -1.61163965865067      0.59093249987574      0.61272780044761
  N   -2.50992199409263      1.07043381686172      1.20341506965702
  N   -0.87036269456833     -0.56869963105445     -1.31815051953078
  H   -0.12899228477897     -0.85257704256479     -1.94217596013730
  H   -1.74711594184513     -0.31741781293780     -1.74369072320716
  C   1.01331124312952      0.57732770497888      1.67155959979381
  N   1.25789198351479      1.03769774424698      2.72681888387521
  C   1.79222365428685     -0.54550789396936     -0.37835224592478
  N   2.60372645758651     -1.02208255732213     -1.08645507620585
