11
Coordinates from ORCA-job run
  C   -0.51266962426240     -0.10538980524473     -0.17166214076695
  C   0.75750742075059     -0.01931297916907      0.35071804525317
  C   -1.42663559405104     -1.07644665982996      0.35874734356201
  N   -2.20022618197752     -1.85614771872188      0.78249425740768
  N   -0.96030565328305      0.62626178497134     -1.22390756854921
  H   -1.95306864464339      0.68414720082943     -1.37949450199546
  H   -0.40830062306301      1.41533390123810     -1.52799160587867
  C   1.64064552936557      0.96171309668357     -0.18491836666843
  N   2.29588280029774      1.80185875875386     -0.68695475177052
  C   1.19704023430645     -0.86862408110269      1.40495555735727
  N   1.56913033656007     -1.56339349840796      2.27901373204911
