11
Coordinates from ORCA-job run
  C   -0.54420460558283     -0.01315095145319     -0.08425677752562
  C   0.78160866374197     -0.11409133797974      0.26977832757744
  C   -1.47205640559196     -1.00738392982759      0.37408149595036
  N   -2.25320939678779     -1.81445094909209      0.72635778291019
  N   -1.07281777673841      1.01681985652612     -0.79341825503086
  H   -0.44044909952208      1.65230760055684     -1.25830693086066
  H   -1.97695133825897      0.89106827618913     -1.21781625388875
  C   1.26443225556159     -1.17685413089366      1.08425978641357
  N   1.67336463857712     -2.05288955049912      1.75541483418492
  C   1.68425364951300      0.87955997292959     -0.20721874991467
  N   2.35502941508837      1.74106514354372     -0.64887525981593
