11
Coordinates from ORCA-job run
  C   -0.52508796289551      0.08351566193269     -0.14443608422639
  C   0.75880762665434      0.02261174249937      0.34676368388415
  C   -1.52582511516169      0.80240442934412      0.59143729225678
  N   -2.36983689832382      1.37510568916855      1.17930987883368
  N   -0.91607383884090     -0.43581649508527     -1.33626844747196
  H   -0.28979304520677     -1.07062345742661     -1.81024262952249
  H   -1.90031382324890     -0.56744574330459     -1.50136787346604
  C   1.12816426444682      0.65560311879525      1.56692449344419
  N   1.44332769425824      1.17297981233667      2.57600343764527
  C   1.73149662116962     -0.70673003254525     -0.39548029390773
  N   2.46513447714856     -1.33260472571493     -1.07164345746946
