11
Coordinates from ORCA-job run
  C   -0.51980919132422     -0.04814299054611     -0.17773358706339
  C   0.75992688204679     -0.11667110173188      0.32316404195044
  C   -1.46899585332339     -1.06410405047923      0.17812169155221
  N   -2.27045593660303     -1.87818572293820      0.46240666500758
  N   -0.94874408534509      0.88901963241846     -1.06147384344834
  H   -1.94006999638533      1.01820445142105     -1.17854712272562
  H   -0.36607633293415      1.69831625734641     -1.22093463732687
  C   1.68101567525389      0.90932341295432     -0.03455049824535
  N   2.37128232020496      1.79942059433590     -0.37866647500393
  C   1.17442956359386     -1.17040072381466      1.18569355330588
  N   1.52649695481572     -2.03577975896606      1.90152021199739
