11
Coordinates from ORCA-job run
  C   -0.53232043641778      0.00951554566737     -0.14378594169099
  C   0.76276400124993     -0.20158623757685      0.27058618670414
  C   -1.55588171938499     -0.91636248163379      0.24949286042658
  N   -2.41723173317332     -1.65339010846044      0.56669486944693
  N   -0.91818880474199      1.01027016195259     -0.97601564830099
  H   -1.89675997274579      1.24060509670471     -1.02708226151752
  H   -0.26701551694800      1.76057532319108     -1.15714691457627
  C   1.12107415043184     -1.31616565656965      1.08024210455315
  N   1.42770361854396     -2.23251064727891      1.75220815865953
  C   1.75944897535603      0.73655746865483     -0.12366900419256
  N   2.51540743783012      1.56149153534905     -0.49152440951200
