11
Coordinates from ORCA-job run
  C   -0.54190368415097     -0.00353043799336     -0.10168507299406
  C   0.76809904861560     -0.11639899377935      0.30390548659574
  C   -1.51450580987145     -0.93442896043602      0.39535761430392
  N   -2.33061638937539     -1.69092937083086      0.77936451358363
  N   -1.01480943871668      0.98704397245653     -0.90065230408317
  H   -1.90854702185067      0.85789097052814     -1.34540335084943
  H   -0.34794401714304      1.56878074332075     -1.38712870536836
  C   1.19128472900369     -1.13084490171127      1.20824391386449
  N   1.55262635682808     -1.96702363888161      1.95347759121304
  C   1.71648579685616      0.81249495314316     -0.21293848189168
  N   2.42883042980467      1.61794566418389     -0.69354120437413
