11
Coordinates from ORCA-job run
  C   -0.54047287425359     -0.02237612191484     -0.10758515454148
  C   0.75465772103468      0.07260716665877      0.34732332218579
  C   -1.60827120937931      0.49240927478363      0.70136074652669
  N   -2.49979459041076      0.92076726218281      1.33969967328203
  N   -0.90614955933485     -0.64344140020045     -1.25830961758340
  H   -0.18413374415332     -0.88403373791327     -1.92218337578161
  H   -1.81814760094225     -0.44873715972383     -1.63753082992713
  C   1.79908126738067     -0.43339843389743     -0.47875679241244
  N   2.59576420667920     -0.87197365344549     -1.22729623924936
  C   1.06865712868773      0.66476801726390      1.60313312882934
  N   1.33880925469180      1.15340878620619      2.63914513867155
