11
Coordinates from ORCA-job run
  C   -0.53970694708466     -0.02034538183827     -0.11088550440211
  C   0.75183347806839      0.07052404842119      0.35473419004974
  C   -1.61471378798310      0.48608643008516      0.69346968595237
  N   -2.51527498966822      0.90291265482152      1.32685227364407
  N   -0.89600498389074     -0.63332671549707     -1.26902148964418
  H   -0.16825955591110     -0.86706015450800     -1.92914143005086
  H   -1.80551824424668     -0.43709380355851     -1.65335772866285
  C   1.80132508671827     -0.43139223619564     -0.46745246433619
  N   2.60065613306290     -0.86724044252465     -1.21458605109972
  C   1.05914653743966      0.65601923766909      1.61512663686244
  N   1.32651727349530      1.14191636312518      2.65326188168727
