11
Coordinates from ORCA-job run
  C   -0.53862780664748     -0.02166361468410     -0.11518099491539
  C   0.75024841387846      0.08807734079595      0.35370109196392
  C   -1.61079006840911      0.57446281797445      0.62991031516311
  N   -2.50839946746899      1.06613238465434      1.21153637819531
  N   -0.89655612456463     -0.72561227196984     -1.21928477665207
  H   -1.79889907527485     -0.54782071918499     -1.62754399711121
  H   -0.16921637242027     -1.02921266024233     -1.84995058589170
  C   1.05414374954733      0.77208999471995      1.56450135807501
  N   1.31509107327076      1.33503232270514      2.56443808737643
  C   1.79957950990511     -0.49947996271031     -0.40999807950806
  N   2.60342616818369     -1.01100563205826     -1.10212879669536
