11
Coordinates from ORCA-job run
  C   -0.53469263654968     -0.01727596101979     -0.13354987555383
  C   0.74866353633189     -0.07705910383324      0.35894468284671
  C   -1.53554069542490     -0.89434267473195      0.40413665907903
  N   -2.37409545894724     -1.61053804678528      0.81607829070173
  N   -0.95957114027795      0.87597139214800     -1.06349709824003
  H   -0.26553892300170      1.40398087757027     -1.57217930347588
  H   -1.82355762571533      0.68944317089267     -1.54423107533749
  C   1.72854191250265      0.79344493147585     -0.19897219582321
  N   2.47450735293098      1.54412707557310     -0.71537748271246
  C   1.11502871666640     -0.98182156253519      1.39504932177926
  N   1.42725496148488     -1.72493009875446      2.25259807673617
