11
Coordinates from ORCA-job run
  C   -0.53849779275307     -0.00580678401525     -0.11651961263042
  C   0.75097060647238      0.05454111538368      0.35997259989302
  C   -1.60438744870402      0.55027258357702      0.66725858073181
  N   -2.49634379570563      1.00877290785761      1.28364910338892
  N   -0.90276264657862     -0.62841404675908     -1.26656472313006
  H   -1.80434693668617     -0.41683699070183     -1.66096806545919
  H   -0.17780413120496     -0.89964927706174     -1.91508404591687
  C   1.06286706231702      0.65193094620817      1.61364132020684
  N   1.33115924419332      1.14573272417993      2.64779789058025
  C   1.79266541358676     -0.49390814784689     -0.44202145667541
  N   2.58648042506299     -0.96863503082161     -1.17116159098888
