11
Coordinates from ORCA-job run
  C   -0.53903206764654     -0.00322434734593     -0.11576703106022
  C   0.75162182813473      0.05249093424618      0.35804065179776
  C   -1.59988863798402      0.56490811547607      0.66597241104252
  N   -2.48674247890778      1.03399356346227      1.28174915156539
  N   -0.90953176373023     -0.63254824895157     -1.26028335957463
  H   -1.80912268365935     -0.41498907580531     -1.65616226062056
  H   -0.18757924756405     -0.91298250077557     -1.90817863255822
  C   1.78849889691156     -0.50864193498119     -0.44159150030499
  N   2.57899506425844     -0.99131986149390     -1.16911196563413
  C   1.06937923710837      0.65666941025380      1.60712436354747
  N   1.34340185307889      1.15564394591515      2.63720817179959
