11
Coordinates from ORCA-job run
  C   -0.50189781092050     -0.05682594807456     -0.21870952611002
  C   0.75177907266843     -0.11187488368001      0.34593392325994
  C   -1.35047191501528     -1.21299046257878     -0.16040492703657
  N   -2.07112858773502     -2.14267188444381     -0.11621469449666
  N   -0.98797064303927      1.00861329407248     -0.90512268047169
  H   -1.98003975626028      1.06264722900847     -1.06745481305794
  H   -0.49120580932939      1.88546387440321     -0.84332189853394
  C   1.57067634533890      1.05190751542674      0.28285577751218
  N   2.17193383694605      2.06015033523224      0.18703401808961
  C   1.23866550610678     -1.28783763413072      0.98317064942991
  N   1.64965976123959     -2.25558143523526      1.51223417141519
