11
Coordinates from ORCA-job run
  C   -0.53473263348334      0.04482498989036     -0.12733478989582
  C   0.74621471342605     -0.00441121354787      0.37277911139841
  C   -1.55144905766755      0.73878177468796      0.61036690519765
  N   -2.40236394302048      1.31022210778952      1.18937561327719
  N   -0.94162427950989     -0.58826858041267     -1.25749983776744
  H   -0.23679045170694     -0.95761493889774     -1.87931891028879
  H   -1.80893215667683     -0.30125739891848     -1.68026276770204
  C   1.73850187897643     -0.69314683044359     -0.38239798201703
  N   2.48952235075128     -1.28142884725550     -1.07312838145398
  C   1.09768612200869      0.61259188930063      1.60635658499275
  N   1.40296745690258      1.12070704780737      2.62306445425909
