11
Coordinates from ORCA-job run
  C   -0.53136561586575      0.04547364772887     -0.13912624872953
  C   0.73663446953279     -0.01503005034890      0.39177366160743
  C   -1.56281593324632      0.73510438555757      0.58220929723363
  N   -2.42376764729783      1.30483038423769      1.14783959161607
  N   -0.91271316700067     -0.57148067559869     -1.28705114930972
  H   -1.76725203864026     -0.27395201596481     -1.72812029955792
  H   -0.19332553599288     -0.93376759974651     -1.89627039999465
  C   1.74627813722339     -0.69355193347922     -0.34932680616964
  N   2.51386199703124     -1.27043935484998     -1.03129707470003
  C   1.05875040764993      0.58766645433892      1.64038392285837
  N   1.33571492660636      1.08614675812507      2.66998550514599
