11
Coordinates from ORCA-job run
  C   -0.53201414878742      0.04577570976549     -0.13807631552334
  C   0.73617264556079     -0.02045433041915      0.39145556338231
  C   -1.57443021814960      0.68677142653795      0.61152698958860
  N   -2.44567623778635      1.21657955345667      1.19981645269906
  N   -0.90361381350627     -0.52557444460206     -1.31216975378995
  H   -0.17940882629643     -0.85389868066832     -1.93453906579417
  H   -1.76282337754452     -0.22358314595124     -1.74104989900088
  C   1.75564402819532     -0.65272617717358     -0.37671942944240
  N   2.53191113013546     -1.18788403533898     -1.08254509757099
  C   1.05056929073160      0.52995268549715      1.66602252925787
  N   1.32466952744742      0.98504143889606      2.71627802619390
