11
Coordinates from ORCA-job run
  C   -0.53121061774525      0.05387615191267     -0.13897185647383
  C   0.73693326963609     -0.02180186715131      0.38956296543080
  C   -1.54798122747631      0.77283996280512      0.57404314948603
  N   -2.39729615186722      1.36695466353358      1.13215732633394
  N   -0.92734125867427     -0.57461654993483     -1.27576400499550
  H   -1.77702202501467     -0.26751585217441     -1.71986096371868
  H   -0.21635423015915     -0.95882910443303     -1.88124490785870
  C   1.73157484654448     -0.73280293502341     -0.34165970559317
  N   2.48836604969561     -1.33405936030349     -1.01465375738281
  C   1.07420143761488      0.59363913089707      1.62796032313044
  N   1.36412990744581      1.10131575987200      2.64943143164145
