11
Coordinates from ORCA-job run
  C   -0.52337280658557      0.08469318931618     -0.15064380182406
  C   0.75166137713208      0.01626458886409      0.36202904554102
  C   -1.54960326840490      0.74625645908234      0.60350953579300
  N   -2.41327398353701      1.27274264318499      1.20574569177281
  N   -0.88265281835615     -0.37437613202744     -1.37672734468312
  H   -0.23739710263446     -0.97444508190659     -1.87010709413800
  H   -1.86113543907470     -0.51102496070362     -1.56917387843708
  C   1.74962951636402     -0.65685232065674     -0.39963384222466
  N   2.50538579488882     -1.23441568665809     -1.09419920788831
  C   1.08718351865726      0.58390011273083      1.62358673598332
  N   1.37457521155060      1.04725718877405      2.66661416010509
