11
Coordinates from ORCA-job run
  C   -0.52219298138692      0.09527597279223     -0.14862956200161
  C   0.75638888253924      0.00588481686385      0.35226110007836
  C   -1.50867459726984      0.84683366287206      0.57376921177518
  N   -2.33869568896893      1.44923426169765      1.15162265448687
  N   -0.91763748032305     -0.42365930266696     -1.33911896435486
  H   -1.90366948362545     -0.52902137610135     -1.51227467479039
  H   -0.30437575537317     -1.07714732899256     -1.80450471010436
  C   1.71494916193237     -0.75417242012969     -0.37762669991161
  N   2.43703068671413     -1.40348316911195     -1.04410893169182
  C   1.13277070119838      0.63740142140636      1.57113120907937
  N   1.45310655456324      1.15285346137037      2.57947936743486
