11
Coordinates from ORCA-job run
  C   -0.53860564465038      0.01218072508993     -0.11906850547912
  C   0.77079014562213     -0.20048096019430      0.24649605711025
  C   -1.56038313299342     -0.85579406793344      0.39287864537991
  N   -2.41971807963637     -1.54493147033316      0.80795943216064
  N   -0.94346554431426      0.95746366955423     -1.00556183786397
  H   -1.91819788305975      1.20832361375028     -1.02587237577223
  H   -0.28674882427109      1.67740818333929     -1.27003112032678
  C   1.76692084563958      0.68054084424644     -0.26382434488221
  N   2.52173166182775      1.45649777078822     -0.72788841646655
  C   1.14420266715005     -1.25979752504371      1.12100031757029
  N   1.46247378868575     -2.13141078326379      1.84491214856977
