11
Coordinates from ORCA-job run
  C   -0.54552139400174     -0.01547523631275     -0.07466035699137
  C   0.79742465085089     -0.16125805897024      0.18688532668227
  C   -1.48358439464884     -0.90753271643696      0.54513075277904
  N   -2.27696394921637     -1.61777582488119      1.04710107512813
  N   -1.06367206165266      0.88331950724738     -0.95055020383910
  H   -0.46345893368602      1.62114264622601     -1.28973148239961
  H   -2.04697945358897      1.09165000914777     -0.89632344201723
  C   1.70721301615408      0.74501286626363     -0.42971995320790
  N   2.38329876832775      1.53889126166249     -0.97719331316671
  C   1.28853150517289     -1.17365249099426      1.05858286241755
  N   1.70371224628899     -2.00532196295188      1.78047873461491
