11
Coordinates from ORCA-job run
  C   -0.54026617030640     -0.02897333033851     -0.10447845485052
  C   0.75461462331582      0.08541975475968      0.34642877374280
  C   -1.61247277546760      0.49103977133740      0.69516503368792
  N   -2.51271563157000      0.91959688876717      1.32097613626832
  N   -0.90172750066725     -0.67342730018312     -1.24367840739846
  H   -0.17804872513156     -0.91835046630006     -1.90415097793147
  H   -1.81581447141828     -0.49366341104796     -1.62502887265460
  C   1.80166839129596     -0.42587845430494     -0.47312522840771
  N   2.59913107750866     -0.87095878614274     -1.21683450145367
  C   1.06717425662567      0.70219613655914      1.59069182974483
  N   1.33945692581499      1.21399919689395      2.61503466925257
