11
Coordinates from ORCA-job run
  C   -0.53871131267229     -0.02283101894478     -0.10992769783038
  C   0.75318777253518      0.07616450448816      0.35340369876773
  C   -1.61313679595674      0.50092422318665      0.68441310429988
  N   -2.51364028650569      0.92726230999950      1.31140725073690
  N   -0.89580372300784     -0.65472481470993     -1.25732869645319
  H   -0.16958412881598     -0.90372054214400     -1.91342532233597
  H   -1.80765707202631     -0.47107664837719     -1.64206863389759
  C   1.80174871753470     -0.44330576780248     -0.45877193888706
  N   2.60143487971043     -0.89397573884952     -1.19666974637180
  C   1.05942520239324      0.68855352136348      1.60101261626904
  N   1.32473674681132      1.19672997179011      2.62895536570247
