11
Coordinates from ORCA-job run
  C   -0.52141655598813     -0.00988850476165     -0.17923469864352
  C   0.76190564173317     -0.18190547633457      0.28666512951024
  C   -1.46986712999840     -1.07736978813309     -0.03557734573813
  N   -2.26831141003610     -1.93453588404323      0.08051322254331
  N   -0.95490471885867      1.09178044998666     -0.84362710410268
  H   -1.94679593323315      1.24225746691650     -0.92612394486386
  H   -0.37191518311197      1.91624504334252     -0.83465701457324
  C   1.68117932312101      0.89679990756174      0.14396066617285
  N   2.36842965673449      1.84021929415771     -0.01370723234058
  C   1.18170988866947     -1.39314520133916      0.90534658924320
  N   1.53998642096827     -2.39045730735343      1.41744173279241
