11
Coordinates from ORCA-job run
  C   -0.53974234630815     -0.02547544492338     -0.10954639018148
  C   0.75245956990009      0.08106304431736      0.35097081883418
  C   -1.61526533980621      0.49019241056620      0.68839291179333
  N   -2.51627375008578      0.91504922447097      1.31565349416512
  N   -0.89556113683310     -0.66046341901051     -1.25564734859441
  H   -1.80814534809917     -0.47875834865226     -1.63969366819217
  H   -0.16889917662837     -0.90321050144687     -1.91358149611264
  C   1.80323177735915     -0.42956193712619     -0.46412205460221
  N   2.60467060910508     -0.87484932636929     -1.20341915027018
  C   1.05862253945791      0.69025036752899      1.60050238664103
  N   1.32490260193856      1.19576393064498      2.62949049651943
