11
Coordinates from ORCA-job run
  C   -0.51492876212153     -0.12167548300029     -0.15548845499552
  C   0.77260917353147     -0.00024136839627      0.31441275108465
  C   -1.35454864451631     -1.16661452336294      0.35721989652744
  N   -2.06845924343270     -2.00580503126991      0.77181302458039
  N   -1.04659054461518      0.64376214092556     -1.14279799453285
  H   -0.54898935914500      1.47670938737193     -1.42276468568408
  H   -2.04753745649351      0.66068972847503     -1.24873577866237
  C   1.30218693158717     -0.88388810816203      1.29664013371492
  N   1.74964452621448     -1.60729695063089      2.11010005056461
  C   1.58186062513912      1.05280769344852     -0.20085448075882
  N   2.17375275385200      1.95155251460128     -0.67954446183837
