11
Coordinates from ORCA-job run
  C   -0.52731635334337      0.07359810140736     -0.14365326621620
  C   0.75774573638928      0.03728044883275      0.34691056197848
  C   -1.55018741758420      0.73525893426997      0.61468379726912
  N   -2.41102706897423      1.26085224260048      1.22174225340698
  N   -0.90134194528898     -0.42009500867520     -1.35168740410093
  H   -0.25608487095733     -1.02235182355173     -1.84268350456578
  H   -1.88110212395086     -0.57557974289081     -1.52264484641482
  C   1.75259991302140     -0.63902221238085     -0.41619677730307
  N   2.50527431690040     -1.22124265038797     -1.11019856246541
  C   1.10636621981885      0.64009130009267      1.58846562034186
  N   1.40407359396903      1.13221041068333      2.61526212806976
