11
Coordinates from ORCA-job run
  C   -0.53198508748400     -0.00907710965560     -0.14406227231227
  C   0.74780975116793     -0.12815922187017      0.34714042754109
  C   -1.49976482290407     -1.02386172825274      0.16129378024733
  N   -2.31095736784001     -1.84725467279930      0.38457713681411
  N   -0.98483227140590      1.05606191628014     -0.85361565542147
  H   -0.30830820076654      1.71391924048881     -1.21328939976855
  H   -1.83829009338737      0.95491142299423     -1.37775382516953
  C   1.14455208560173     -1.23054318590247      1.15559411170290
  N   1.48470678960615     -2.13780046831367      1.82361093528001
  C   1.69306129056678      0.88615816163457      0.02030903287981
  N   2.40500792684530      1.76664564539621     -0.30380427179344
