11
Coordinates from ORCA-job run
  C   -0.52210493441820      0.09145137243697     -0.14852079660496
  C   0.75695696454122      0.01372095452607      0.35292846163387
  C   -1.51611358592375      0.83421103336100      0.57256626281511
  N   -2.35414652983919      1.42919307950830      1.14664265080300
  N   -0.91226918278775     -0.43208558508361     -1.33867532176414
  H   -0.29312935660789     -1.08165464719764     -1.80214213878972
  H   -1.89684570972747     -0.54558656676838     -1.51317405035042
  C   1.72224249008947     -0.73725492971105     -0.37730991053678
  N   2.44687051476782     -1.38169551254914     -1.04569028441687
  C   1.12694074257142      0.64763161828793      1.57248685362215
  N   1.44259858733431      1.16406918318955      2.58188827358875
