11
Coordinates from ORCA-job run
  C   -0.54370933165916      0.03257358536777     -0.08635073753797
  C   0.76711463521955     -0.17625960398339      0.27607322505313
  C   -1.55432853908795     -0.87540612659162      0.37604770171072
  N   -2.39924361626879     -1.61418053366495      0.73118859304955
  N   -0.97965710738140      1.09733929156066     -0.80731814786434
  H   -0.29302021789945      1.67146375427608     -1.27507158465585
  H   -1.88900945859659      1.04457762870451     -1.23578923357345
  C   1.75261153551570      0.73210859178432     -0.20656138175571
  N   2.49566532547407      1.52827248868488     -0.65504063593388
  C   1.15540941830720     -1.26935571432841      1.10109234091989
  N   1.48716735637683     -2.17113336180983      1.78072986058790
