11
Coordinates from ORCA-job run
  C   -0.52047873909121      0.08297942095702     -0.16147839276729
  C   0.74872210785791      0.03082332101528      0.36764041941285
  C   -1.54213068087778      0.81449926828872      0.53185561437267
  N   -2.40241547574025      1.39727859275381      1.08513176637222
  N   -0.87665795766764     -0.45832702468528     -1.35451484465680
  H   -0.23688442192413     -1.10037787459550     -1.79946099450345
  H   -1.85570266074439     -0.58825815047668     -1.54946371869257
  C   1.74091218917346     -0.71316705305097     -0.33316665816988
  N   2.49081128787070     -1.35421657687098     -0.97639540010460
  C   1.08288096764248      0.68012938676557      1.58919412635089
  N   1.37094338350085      1.20863668989901      2.60065808238595
