11
Coordinates from ORCA-job run
  C   -0.53709844086366      0.02107157646116     -0.12366538059640
  C   0.74728372582260      0.01844852511191      0.36992937665281
  C   -1.57683838381253      0.66589913565796      0.62669795660729
  N   -2.44703252259096      1.19918833904743      1.21330594156227
  N   -0.92377801948426     -0.61381095235106     -1.25975976355668
  H   -0.20755789828821     -0.94791854735129     -1.88820990107927
  H   -1.80311813936401     -0.35669602325420     -1.67645329366420
  C   1.76554423965325     -0.61343543893154     -0.39977738136562
  N   2.54093502264769     -1.15352178493543     -1.10280291592163
  C   1.07795539853694      0.63547170285041      1.60944947936335
  N   1.36270501774314      1.14530346769465      2.63128588199807
