11
Coordinates from ORCA-job run
  C   -0.53801726358126     -0.00485012999052     -0.11922107587878
  C   0.74887812045924      0.04891935118473      0.36490261205683
  C   -1.60927299580561      0.53110461258827      0.67119607155327
  N   -2.50565448224304      0.97243107524502      1.29372077371002
  N   -0.89518557889739     -0.60489564187724     -1.28366873327262
  H   -0.16534606203545     -0.85825092003544     -1.93407676589202
  H   -1.79337309043906     -0.38268073871131     -1.68019235619571
  C   1.79604010593435     -0.47984093099470     -0.44318892484703
  N   2.59443290777092     -0.93658341896253     -1.17879687476062
  C   1.05269857770839      0.62093151511761      1.63243711574066
  N   1.31479976112891      1.09371522643610      2.67788815778600
