11
Coordinates from ORCA-job run
  C   -0.53912486621521     -0.00439513302560     -0.11178664775067
  C   0.75415778729111      0.05253288929836      0.35450668401963
  C   -1.59525286291648      0.57090622127158      0.67126222830611
  N   -2.47953432018642      1.04633194801018      1.28595176520174
  N   -0.91682252275253     -0.63969021064816     -1.25056546108716
  H   -0.19912056918046     -0.92505532318871     -1.90108941248368
  H   -1.81914680790985     -0.42480653177011     -1.64179860375920
  C   1.78578685759440     -0.51495009979304     -0.44728203578976
  N   2.56979279294908     -1.00485373992050     -1.17695980166697
  C   1.07972788794844      0.66738651192970      1.59635630193366
  N   1.35953662337793      1.17759346783630      2.61940498307632
