11
Coordinates from ORCA-job run
  C   -0.52992548892279      0.04874608072225     -0.14346274540698
  C   0.73374234598141     -0.01894164806158      0.39684832317513
  C   -1.56433131557448      0.73978010991533      0.57245963061431
  N   -2.42929513098172      1.30910731192238      1.13237889577671
  N   -0.90493343954722     -0.56146304716049     -1.29698100779966
  H   -1.75523061706024     -0.25968292961605     -1.74321886758951
  H   -0.18282727326188     -0.92596862796038     -1.90164766080247
  C   1.74686381997447     -0.69785767608889     -0.33902993250149
  N   2.51878993380196     -1.27400012060466     -1.01673981102854
  C   1.04805601122751      0.57525909825594      1.65156245735798
  N   1.31909115436299      1.06502144867614      2.68683071820452
