11
Coordinates from ORCA-job run
  C   -0.54004418589342     -0.01891345926295     -0.10918277737204
  C   0.75419907441543      0.07435781757736      0.34877764422035
  C   -1.60796500663663      0.51138777697551      0.68934447120775
  N   -2.50142060973650      0.94741158475503      1.31984731998676
  N   -0.90472564154989     -0.65318191413337     -1.25283077721999
  H   -0.18180355688548     -0.90564088328003     -1.91124327233416
  H   -1.81511952626734     -0.46031170868026     -1.63665862808543
  C   1.06923986279490      0.68104335971177      1.59726340016905
  N   1.33914752001786      1.18353253452191      2.62677378616791
  C   1.79721889424162     -0.45119743936968     -0.46685421697499
  N   2.59127317549943     -0.90948766881527     -1.20623694976523
