15
Coordinates from ORCA-job run
  C   -0.67904492550919      0.02021408253863     -0.08828629685764
  C   0.20752381905536     -0.12919378160650      1.14078510472338
  Cl  -2.38573084105627      0.03163922104264      0.42888450393276
  H   0.01544024200368     -1.12830959420397      1.54015975198351
  H   -0.10741380079565      0.59760237396954      1.89403130725753
  C   -0.45468819877521     -1.03733223595162     -1.13856495251059
  H   -0.66900749201267     -2.01490928984523     -0.70304424350800
  H   -1.10593780046146     -0.87677288150271     -1.99462863755108
  H   0.58836879578783     -1.00241635550800     -1.45284477431417
  N   -0.42586127115913      1.40132848830450     -0.69487215244954
  O   -0.68496114607039      1.55022190520667     -1.88239264624337
  O   -0.00963402377214      2.27518248507135      0.06157587984116
  N   1.60092562588892     -0.00829006770115      0.73842559820844
  H   1.91766463441887      0.94284336394148      0.86731115082599
  H   2.19035638245746     -0.62080771375561      1.28346040666162
