13

C	0.0	0.0	0.0
C	-0.397641	-0.302447	-1.436089
Br	2.057233	0.0	0.0
H	-0.066347	0.498451	-2.101842
H	-1.494009	-0.334564	-1.357097
H	0.0147	-1.251387	-1.790546
N	-0.605671	1.150613	0.549146
H	-0.464347	1.924018	-0.09402
H	-1.646234	0.821487	0.453669
N	-0.345287	-1.092792	0.838708
H	0.166658	-1.928594	0.598021
H	-0.186414	-0.836569	1.803492
F	-2.874825	0.0	0.0
