13

C	0.0	0.0	0.0
C	-0.343607	-0.000701	-1.485782
Br	2.057234	0.0	0.0
H	-1.43806	0.048062	-1.470107
H	0.011014	-0.91983	-1.961002
H	0.0893	0.856043	-2.00869
N	-0.357605	1.25082	0.581134
H	-0.43566	1.131841	1.582164
H	0.307416	1.976689	0.355745
N	-0.64038	-1.005599	0.745587
H	-1.693411	-0.66683	0.564021
H	-0.525998	-1.88698	0.254586
F	-2.868989	0.0	0.0
