13

C	0.0	0.0	0.0
C	-0.395195	0.213954	-1.458284
Br	1.99582	0.0	0.0
H	-0.019413	1.172382	-1.822228
H	-0.002473	-0.590993	-2.085535
H	-1.489544	0.197566	-1.438871
N	-0.48813	1.106682	0.771171
H	-1.510992	1.005523	0.603605
H	-0.335335	0.860357	1.745862
N	-0.470122	-1.247479	0.554086
H	-1.496646	-1.087207	0.483532
H	-0.226459	-2.004678	-0.077864
F	-2.845092	0.0	0.0
