17

C	-0.344587	0.017465	-1.486621
C	0.0	0.0	0.0
F	-1.740041	0.093233	-1.636349
H	1.096328	0.0	0.0
N	0.209948	1.225705	-2.034957
H	1.189658	1.285295	-1.763802
H	0.165206	1.187705	-3.047766
C	0.103755	-1.259752	-2.167393
H	-0.384442	-2.124047	-1.723682
H	1.183338	-1.360801	-2.049279
H	-0.144737	-1.201716	-3.230549
N	-0.472016	-1.213091	0.654789
H	0.075393	-1.359319	1.494491
H	-1.44362	-1.102756	0.920728
C	-0.486028	1.224842	0.656639
N	-0.887097	2.13712	1.279237
Br	3.48122	0.0	0.0
