17

C	-0.493928	-0.024914	-1.45973
C	0.0	0.0	0.0
F	-0.08707	-1.27903	-1.935806
H	1.099967	0.0	0.0
N	-1.924354	0.013899	-1.593134
H	-2.243446	0.971444	-1.521401
H	-2.321854	-0.513094	-0.820736
C	0.191215	1.028579	-2.295514
H	-0.077436	2.032153	-1.956771
H	-0.114156	0.904663	-3.336295
H	1.271889	0.906031	-2.202017
N	-0.574019	-1.161217	0.70134
H	-0.129729	-1.971581	0.28119
H	-0.248689	-1.130712	1.662047
C	-0.485743	1.229189	0.628035
N	-0.910032	2.212321	1.110651
Br	3.536145	0.0	0.0
