17

C	-0.394904	-0.04141	-1.486579
C	0.0	0.0	0.0
F	-0.206973	1.28914	-1.96867
H	1.09575	0.0	0.0
N	0.469834	-0.947677	-2.13869
H	1.440266	-0.756805	-1.895114
H	0.350529	-0.892308	-3.142248
C	-1.849289	-0.369449	-1.727471
H	-2.05243	-0.372078	-2.802342
H	-2.4857	0.385994	-1.26106
H	-2.066723	-1.353027	-1.312469
N	-0.43285	-1.212491	0.700833
H	0.349193	-1.56026	1.238229
H	-1.194113	-1.010841	1.333204
C	-0.510321	1.214015	0.641542
N	-0.999389	2.116974	1.212673
Br	3.499834	0.0	0.0
