17

C	-0.466183	-0.007196	-1.462842
C	0.0	0.0	0.0
F	-0.182492	-1.247574	-2.003101
H	1.095212	0.0	0.0
N	-1.918969	0.102419	-1.502081
H	-2.217674	-0.078226	-2.454646
H	-2.184857	1.053932	-1.272215
C	0.298528	1.017112	-2.281377
H	1.371542	0.838312	-2.176113
H	0.077364	2.031373	-1.940122
H	0.007146	0.924667	-3.33175
N	-0.488339	-1.164503	0.711747
H	0.001737	-1.242982	1.593689
H	-1.483578	-1.081536	0.874787
C	-0.448274	1.277725	0.596269
N	-0.87508	2.255747	1.090834
Br	3.544257	0.0	0.0
