17

C	-0.493699	-0.045497	-1.459655
C	0.0	0.0	0.0
F	-0.087044	-1.307081	-1.918167
H	1.09992	0.0	0.0
N	-1.923501	-0.007471	-1.592781
H	-2.323038	-0.515772	-0.808903
H	-2.242305	0.952233	-1.545511
C	0.192568	0.994623	-2.310994
H	-0.072406	2.003452	-1.985188
H	-0.114881	0.857757	-3.349676
H	1.272864	0.870222	-2.218115
N	-0.576445	-1.14952	0.718061
H	-0.135656	-1.967694	0.308972
H	-0.250492	-1.107584	1.678482
C	-0.485321	1.239383	0.609139
N	-0.908158	2.230387	1.077199
Br	3.5378	0.0	0.0
