17

C	-0.460282	0.004556	-1.460462
C	0.0	0.0	0.0
F	0.011361	-1.238095	-1.97948
H	1.099828	0.0	0.0
N	-1.878306	0.051868	-1.524696
H	-2.188684	-0.140236	-2.469243
H	-2.245414	-0.652	-0.892684
C	0.209977	1.086121	-2.270833
H	-0.109692	2.068476	-1.920581
H	-0.064706	0.976388	-3.32409
H	1.292546	0.99196	-2.165835
N	-0.557324	-1.19663	0.660624
H	-0.032848	-1.977439	0.27813
H	-0.309439	-1.147294	1.643643
C	-0.477695	1.203736	0.679402
N	-0.837931	2.170392	1.240139
Br	3.547371	0.0	0.0
