19

C	-0.577313	0.010141	-1.410628
C	0.0	0.0	0.0
Cl	0.198026	-1.2575	-2.414946
H	1.095089	0.0	0.0
C	-2.078691	-0.148625	-1.486467
H	-2.534438	0.631984	-0.874379
H	-2.355637	-1.128895	-1.098001
H	-2.418807	-0.063549	-2.516636
N	-0.212335	1.329394	-2.104436
O	-0.854383	1.619886	-3.113924
O	0.702704	1.993799	-1.638518
C	-0.418155	-1.24808	0.762713
H	-1.477431	-1.229074	1.045885
H	-0.217679	-2.155985	0.191723
H	0.191639	-1.295627	1.669607
N	-0.50869	1.206892	0.680152
H	0.272991	1.85358	0.730165
H	-0.749702	0.962799	1.633446
H	2.920388	0.0	0.0
