19

C	-0.576648	0.017932	-1.411283
C	0.0	0.0	0.0
Cl	0.226267	-1.21775	-2.432781
H	1.095049	0.0	0.0
C	-2.073072	-0.173521	-1.492289
H	-2.548981	0.588107	-0.871936
H	-2.327291	-1.165421	-1.118644
H	-2.41438	-0.081959	-2.521341
N	-0.233076	1.354933	-2.080451
O	-0.929633	1.695436	-3.037982
O	0.726016	1.980458	-1.651113
C	-0.42285	-1.248477	0.757668
H	-0.224202	-2.154395	0.182228
H	0.185669	-1.302592	1.66494
H	-1.482416	-1.227203	1.039056
N	-0.506482	1.208836	0.679584
H	0.276398	1.85496	0.722995
H	-0.739409	0.96773	1.635944
H	2.92592	0.0	0.0
