14

C	0.0	0.0	0.0
C	-0.463034	-0.262059	-1.455925
Br	1.933622	0.0	0.0
H	0.401519	-0.557364	-2.055734
H	-1.173818	-1.080961	-1.391185
C	-0.444116	1.260565	0.580972
N	-0.574434	2.319758	1.074466
N	-0.392585	-1.144102	0.92643
O	-0.55247	-0.879632	2.107734
O	-0.40208	-2.263645	0.432151
N	-1.049166	0.961515	-1.988026
H	-1.249699	0.810418	-2.970962
H	-1.93265	0.981409	-1.466553
F	-2.417764	0.0	0.0
