14

C	0.0	0.0	0.0
C	-0.40697	0.30443	-1.52687
Br	1.927717	0.0	0.0
H	0.526304	0.344285	-2.091856
H	-0.836349	1.305169	-1.477971
C	-0.462218	1.026054	0.922929
N	-0.604397	1.952383	1.634707
N	-0.387657	-1.368486	0.51678
O	-0.660217	-1.472806	1.702628
O	-0.285793	-2.29707	-0.27897
N	-1.336623	-0.543515	-2.21398
H	-2.136781	-0.550324	-1.567733
H	-0.952332	-1.477917	-2.259241
F	-2.387154	0.0	0.0
