13

C	0.0	0.0	0.0
C	-0.564153	0.269407	-1.385718
F	1.403466	0.0	0.0
H	-0.367666	1.314149	-1.648352
H	-1.658565	0.134231	-1.292043
N	-0.501425	0.944904	0.904889
H	-0.181171	0.807149	1.850605
H	-0.405781	1.897976	0.591467
C	-0.34034	-1.368148	0.460769
N	-0.477191	-2.468692	0.844002
C	0.021193	-0.590001	-2.406966
N	0.495639	-1.260888	-3.24489
Cl	-3.705647	0.0	0.0
