13

C	0.0	0.0	0.0
C	-0.576352	-0.197561	-1.393192
F	1.402046	0.0	0.0
H	-0.276214	-1.172929	-1.781575
H	-1.677007	-0.173912	-1.264647
N	-0.489101	1.170779	0.592754
H	-0.714709	1.916461	-0.044771
H	0.036228	1.466708	1.399826
C	-0.323953	-1.185174	0.840748
N	-0.474332	-2.147747	1.494412
C	-0.117673	0.848507	-2.299633
N	0.252848	1.693452	-3.02526
Cl	-3.679027	0.0	0.0
