19

C	-0.113858	0.096938	-1.518343
C	0.0	0.0	0.0
F	-1.418709	0.462856	-1.948859
H	1.098454	0.0	0.0
N	0.796	1.154381	-1.908403
H	1.671714	0.958335	-1.397702
H	0.987256	1.07386	-2.902347
C	0.214547	-1.230183	-2.174917
H	-0.491502	-2.006306	-1.881271
H	1.217065	-1.502313	-1.83509
H	0.210666	-1.108627	-3.263845
N	-0.516052	-1.258974	0.538695
H	0.087789	-1.533528	1.304163
H	-1.444471	-1.109883	0.920196
C	-0.55343	1.235659	0.690038
H	-1.649638	1.261517	0.62609
H	-0.163722	2.141206	0.224173
H	-0.267095	1.230912	1.747248
F	2.752615	0.0	0.0
