19

C	-0.089904	0.057315	-1.525552
C	0.0	0.0	0.0
F	-1.393235	0.396115	-1.965904
H	1.097415	0.0	0.0
N	0.821308	1.070973	-2.046344
H	0.501578	1.972513	-1.707799
H	1.704885	0.87605	-1.547187
C	0.309209	-1.268731	-2.130095
H	1.317042	-1.479559	-1.761005
H	0.32147	-1.168658	-3.217337
H	-0.363279	-2.063459	-1.809656
N	-0.528426	-1.242703	0.564989
H	-1.483625	-1.098346	0.876414
H	0.02732	-1.472528	1.380442
C	-0.552429	1.241483	0.685354
H	-0.333021	1.194388	1.756599
H	-1.640231	1.313817	0.556988
H	-0.102824	2.161689	0.305745
F	2.748762	0.0	0.0
