19

C	-0.208376	-0.03916	-1.525397
C	0.0	0.0	0.0
F	-0.146646	1.332139	-1.993263
H	1.098068	0.0	0.0
N	0.884573	-0.783471	-2.045534
H	1.747039	-0.520446	-1.533113
H	0.985947	-0.623961	-3.040788
C	-1.546762	-0.550281	-2.018498
H	-2.357606	0.091432	-1.652656
H	-1.69508	-1.566112	-1.653221
H	-1.567543	-0.539814	-3.114673
N	-0.480649	-1.272872	0.588101
H	-0.849116	-1.079469	1.512279
H	0.349152	-1.843522	0.725943
C	-0.624953	1.194397	0.682181
H	-0.278998	2.12053	0.22802
H	-1.722726	1.166175	0.631151
H	-0.33191	1.204259	1.737213
F	2.773642	0.0	0.0
