19

C	-0.222182	0.065573	-1.519172
C	0.0	0.0	0.0
F	-0.106929	1.424043	-1.891052
H	1.095224	0.0	0.0
N	0.846818	-0.631579	-2.200786
H	1.700048	-0.425094	-1.651979
H	0.675835	-1.620736	-2.048781
C	-1.581364	-0.389213	-2.011276
H	-2.365381	0.243856	-1.585822
H	-1.757922	-1.424516	-1.716189
H	-1.611561	-0.304804	-3.099471
N	-0.388272	-1.348301	0.45585
H	-1.272796	-1.310037	0.953642
H	0.321295	-1.655997	1.111082
C	-0.616914	1.12527	0.804759
H	-1.716411	1.109978	0.759986
H	-0.31977	1.030231	1.854398
H	-0.273385	2.093469	0.440409
F	2.742111	0.0	0.0
