17

C	-0.341697	-0.035692	-1.468941
C	0.0	0.0	0.0
Br	-2.316537	-0.106909	-1.787712
H	1.094219	0.0	0.0
H	-0.079065	0.956018	-1.843695
C	0.360888	-1.075407	-2.315437
H	1.4167	-1.049413	-2.019692
H	0.262611	-0.823658	-3.374845
H	-0.029702	-2.073095	-2.13868
N	-0.40474	-1.20372	0.732344
O	-0.262339	-2.301407	0.180629
O	-0.780614	-1.078935	1.90603
C	-0.453132	1.252192	0.716607
H	-0.103399	2.118066	0.147872
H	0.004646	1.293612	1.70472
H	-1.538839	1.302054	0.824131
H	2.628001	0.0	0.0
