17

C	-0.501506	0.112029	-1.425404
C	0.0	0.0	0.0
Br	-0.005234	-1.499303	-2.450438
H	1.091458	0.0	0.0
H	-1.593052	0.120785	-1.476737
C	0.128596	1.313146	-2.111557
H	-0.107426	1.314616	-3.177782
H	-0.254979	2.239927	-1.675025
H	1.211939	1.273743	-1.969517
N	-0.547309	-1.212022	0.66925
O	-1.658207	-1.625796	0.31498
O	0.109218	-1.6956	1.588522
C	-0.426672	1.182924	0.859885
H	-0.16604	0.964898	1.898943
H	-1.499348	1.387253	0.7861
H	0.143425	2.064209	0.567433
H	2.828044	0.0	0.0
