17

C	-0.338955	-0.038034	-1.469471
C	0.0	0.0	0.0
Br	-2.314248	-0.106149	-1.792329
H	1.094216	0.0	0.0
H	-0.073862	0.952467	-1.845349
C	0.362959	-1.081299	-2.312077
H	0.266786	-0.832065	-3.372491
H	-0.031317	-2.077464	-2.133557
H	1.417936	-1.057515	-2.0134
N	-0.404708	-1.205548	0.730808
O	-0.230246	-2.303658	0.19049
O	-0.81649	-1.079947	1.890855
C	-0.456894	1.251541	0.714394
H	-1.542239	1.300276	0.819481
H	-0.002141	1.295906	1.703235
H	-0.107292	2.116647	0.145244
H	2.629899	0.0	0.0
