17

C	0.0	0.0	0.0
C	-0.45827	-0.003989	-1.460513
Cl	1.810096	0.0	0.0
H	-0.008325	-0.863956	-1.970815
H	-1.546146	-0.154827	-1.386011
N	-0.50749	1.100365	0.780628
H	-1.534729	0.957279	0.744002
H	-0.31528	1.970078	0.29481
C	-0.446687	-1.2849	0.67307
H	-1.544319	-1.282325	0.643305
H	-0.051979	-2.156949	0.144987
H	-0.099185	-1.295195	1.708143
C	-0.173799	1.275715	-2.235286
H	-0.457073	1.151519	-3.284594
H	-0.765251	2.106455	-1.843759
H	0.884188	1.550239	-2.200912
H	-3.22364	0.0	0.0
