17

C	0.0	0.0	0.0
C	-0.507965	-0.06089	-1.428149
Cl	1.870964	0.0	0.0
H	-1.597715	-0.183994	-1.295684
H	-0.092606	-0.95343	-1.907898
N	-0.425556	1.196255	0.6275
H	-0.242336	1.182676	1.621079
H	-0.007819	2.016072	0.211449
C	-0.489402	-1.18983	0.789955
H	-0.109535	-1.162008	1.816071
H	-0.167634	-2.123244	0.323696
H	-1.588724	-1.11066	0.783516
C	-0.236705	1.18113	-2.265258
H	-0.818933	2.02383	-1.885404
H	0.824549	1.447706	-2.277269
H	-0.555074	1.013975	-3.297881
H	-3.578739	0.0	0.0
