17

C	0.0	0.0	0.0
C	-0.238153	-0.045299	-1.536865
Cl	1.807422	0.0	0.0
H	0.280485	-0.941405	-1.895408
H	0.319464	0.810336	-1.930392
N	-0.536675	1.22217	0.54236
H	-0.377801	1.222307	1.54877
H	-1.559229	1.105675	0.419343
C	-0.494837	-1.244464	0.71237
H	-0.097995	-2.159284	0.262518
H	-1.590437	-1.213462	0.63635
H	-0.20837	-1.217332	1.769837
C	-1.641097	-0.024159	-2.129395
H	-1.533014	-0.067718	-3.222777
H	-2.190622	0.87283	-1.856174
H	-2.267116	-0.84177	-1.782698
H	-3.471895	0.0	0.0
