14
Coordinates from ORCA-job run
  C   -0.74857318206987      0.07430458277849     -0.02704724575192
  C   0.34329368229251      0.11727811487709     -1.07812382448918
  Br  -2.44442044755705      0.28488643417235     -0.88334459193810
  H   0.38352129658453      1.12241203878933     -1.49508211419661
  H   0.13671510098899     -0.62850878643214     -1.84395392346149
  N   -0.63323882429253      1.21418281629651      0.99390766970053
  O   -1.06218762594125      0.97918487399043      2.11239628742287
  O   -0.20107192977519      2.26903137064697      0.55831065484648
  N   -0.66776855715682     -1.23641788844508      0.76323698729791
  O   -1.53109411879040     -2.08004604206276      0.59797347925579
  O   0.32556985958740     -1.30195020572096      1.47625098440787
  N   1.70130302278277     -0.19449544487631     -0.52170345457901
  O   2.22507596783928      0.66588088116211      0.17531167627388
  O   2.17287575550762     -1.28574274517601     -0.82713258478901
