14
Coordinates from ORCA-job run
  C   -0.26821878612839     -0.37077898945777      0.36140257621100
  C   0.36526111011554     -0.01943743394753     -0.96653536393407
  Br  0.54829693445796     -1.87632149654301      1.18523911696326
  H   0.27961527498641     -0.84669332097155     -1.66465827083086
  H   -0.10548958996202      0.87752236494694     -1.37124326266640
  N   -1.75358140732296     -0.68998327125176      0.14388385495624
  O   -2.44534958616771     -0.68749429537994      1.14925011520597
  O   -2.10052663317314     -0.93233150596184     -1.00418762159096
  N   -0.31374565783687      0.85891953571536      1.28815887377352
  O   -0.83350211435162      1.82479857799805      0.74391317756165
  O   0.10597664015219      0.76864319163719      2.42315930059157
  N   1.81842373244985      0.28007152222191     -0.79711449891599
  O   2.13013827486360      0.97845428503537      0.16323987339498
  O   2.57270180791716     -0.16436916404141     -1.65450787071993
