14

C	-0.420848	0.047454	-1.473391
C	0.0	0.0	0.0
Br	-2.358167	0.222571	-1.681267
H	1.096085	0.0	0.0
N	0.187056	1.278553	-2.177624
O	0.503736	2.213525	-1.462116
O	0.242626	1.214646	-3.397067
C	0.00947	-1.142489	-2.190532
N	0.320109	-2.108401	-2.785498
C	-0.455784	-1.26171	0.58082
N	-0.820895	-2.276315	1.047857
C	-0.519344	1.112868	0.788928
N	-0.952298	1.961752	1.476128
Cl	3.072639	0.0	0.0
