14

C	-0.384816	-0.030347	-1.481828
C	0.0	0.0	0.0
Br	0.239037	-1.67147	-2.294192
H	1.09854	0.0	0.0
N	-1.92189	0.00649	-1.689177
O	-2.3048	0.243003	-2.825444
O	-2.614713	-0.22221	-0.708233
C	0.159451	1.115249	-2.196582
N	0.584398	2.04021	-2.785471
C	-0.452301	-1.175863	0.736753
N	-0.758154	-2.125957	1.356175
C	-0.477071	1.236779	0.613006
N	-0.835785	2.247295	1.09385
Cl	3.079083	0.0	0.0
