14

C	-0.454313	0.0078	-1.467472
C	0.0	0.0	0.0
Br	-2.374819	-0.031314	-1.67843
H	1.094465	0.0	0.0
N	0.092771	1.320739	-2.150042
O	-0.634981	1.914104	-2.925157
O	1.258631	1.560777	-1.890214
C	0.124261	-1.111397	-2.200338
N	0.606843	-2.00354	-2.796814
C	-0.495271	-1.180776	0.682418
N	-0.880022	-2.135706	1.254225
C	-0.472695	1.221142	0.636895
N	-0.875753	2.230234	1.091377
Cl	2.672316	0.0	0.0
