15

C	0.0	0.0	0.0
C	-0.363238	0.265869	-1.52085
F	1.354748	0.0	0.0
H	-0.094749	1.325627	-1.629098
C	-0.501519	1.017052	0.915813
N	-0.798081	1.892093	1.640613
N	-0.402707	-1.383077	0.488346
O	-0.222955	-1.594239	1.681503
O	-0.776744	-2.184551	-0.356115
N	-1.665693	0.059647	-2.068862
H	-2.400531	0.442229	-1.463731
H	-1.865388	-0.933855	-2.082914
C	0.616406	-0.486203	-2.329296
N	1.391467	-1.040259	-3.014435
Cl	-3.886842	0.0	0.0
