15

C	0.0	0.0	0.0
C	-0.430433	0.229734	-1.474732
F	1.354467	0.0	0.0
H	0.525189	0.163071	-2.009345
C	-0.444164	1.022489	0.951438
N	-0.510469	1.887071	1.745393
N	-0.322147	-1.390046	0.54053
O	-0.104352	-2.305787	-0.246389
O	-0.600121	-1.491814	1.725817
N	-0.916013	1.591506	-1.614716
H	-1.856816	1.587851	-1.214389
H	-0.996721	1.80029	-2.603278
C	-1.277663	-0.798339	-2.11037
N	-1.77433	-1.513031	-2.902969
Cl	-3.074301	0.0	0.0
