15

C	0.0	0.0	0.0
C	-0.423386	-0.13621	-1.490116
F	1.355111	0.0	0.0
H	0.538509	-0.306265	-1.987199
C	-0.446784	1.224176	0.667695
N	-0.539895	2.253015	1.228836
N	-0.321237	-1.214476	0.86711
O	-0.105853	-2.295716	0.330336
O	-0.593325	-1.022539	2.042741
N	-0.926335	1.143367	-1.958765
H	-1.868655	1.226091	-1.571761
H	-1.00231	1.102552	-2.968886
C	-1.240516	-1.304696	-1.870997
N	-1.712617	-2.201591	-2.467856
Cl	-3.053698	0.0	0.0
