15

C	0.0	0.0	0.0
C	-0.449778	0.499947	-1.437265
F	1.359583	0.0	0.0
H	-0.555174	1.586141	-1.320211
C	-0.481817	0.83546	1.095885
N	-0.715327	1.600933	1.956138
N	-0.37805	-1.453914	0.229101
O	-0.734847	-1.783978	1.352117
O	-0.187904	-2.187739	-0.734911
N	-1.636833	0.000593	-2.051423
H	-1.554874	-0.995591	-2.206913
H	-2.46481	0.158375	-1.457388
C	0.686458	0.277112	-2.355431
N	1.544686	0.087763	-3.133665
Cl	-3.92111	0.0	0.0
