15

C	0.0	0.0	0.0
C	-0.372942	0.267465	-1.550581
Cl	1.7844	0.0	0.0
H	0.577432	0.155465	-2.07692
C	-0.448812	1.019686	0.94185
N	-0.585769	1.854966	1.762916
C	-0.477279	-1.323534	0.399346
N	-0.546332	-2.472087	0.666219
N	-0.781101	1.651948	-1.65513
H	-1.661279	1.716785	-1.144655
H	-0.990343	1.811723	-2.63639
N	-1.288702	-0.656709	-2.184791
H	-0.870234	-1.582926	-2.212086
H	-2.089547	-0.690906	-1.541943
H	-2.264476	0.0	0.0
