15

C	0.0	0.0	0.0
C	-0.266574	-0.046472	-1.573629
Cl	1.797185	0.0	0.0
H	0.625583	0.414057	-2.009363
C	-0.447307	1.266796	0.580375
N	-0.505908	2.321877	1.106381
C	-0.622201	-1.116266	0.704064
N	-0.630628	-2.114187	1.349901
N	-1.3521	0.771813	-2.065232
H	-1.367673	0.677169	-3.078253
H	-2.208952	0.400516	-1.662433
N	-0.378249	-1.460255	-1.95447
H	-0.080761	-1.550518	-2.920431
H	0.248034	-2.032295	-1.394195
H	-2.059664	0.0	0.0
