15

C	0.0	0.0	0.0
C	-0.391133	0.162897	-1.557702
Cl	1.784625	0.0	0.0
H	0.567362	0.138691	-2.079915
C	-0.430643	1.092382	0.868575
N	-0.550777	1.993082	1.619775
C	-0.470634	-1.284405	0.517028
N	-0.530235	-2.399024	0.902139
N	-0.969177	1.476458	-1.741743
H	-1.217467	1.535423	-2.724993
H	-1.838358	1.441805	-1.206879
N	-1.192146	-0.899042	-2.130237
H	-2.013479	-0.956473	-1.522218
H	-0.690549	-1.78092	-2.069654
H	-2.28777	0.0	0.0
