17
Coordinates from ORCA-job run
  C   0.55933772179607     -0.43578099956979     -0.00748680629066
  C   -0.75679783192017      0.36197601999228     -0.03609268322085
  Br  0.30633773438158     -2.18576710348335     -0.79733531307223
  H   -0.49430759285987      1.36043903304713      0.33819273308618
  N   1.00258004327302     -0.61954714310686      1.44352573400725
  O   1.75144606344054     -1.54432867285193      1.71872841708232
  O   0.64517392231138      0.26616081563700      2.22215669993047
  C   1.69687028015634      0.28678240709638     -0.70289434004489
  H   2.60754135478364     -0.31154314779349     -0.65965127289648
  H   1.86946974685979      1.24594323144704     -0.20525808121475
  H   1.41532375865594      0.46612747274969     -1.73848278074211
  N   -1.76771905394499     -0.30270868771612      0.77472752742764
  H   -1.59405083040260     -0.13570178282878      1.75875695826650
  H   -2.67427585037294      0.08701893378056      0.54839546469119
  N   -1.15541096436384      0.51754618053192     -1.41542923500053
  H   -1.81399049709892      1.28068448002923     -1.50386497354273
  H   -1.59652800469498     -0.33630103696090     -1.73798804846632
