13
Coordinates from ORCA-job run
  C   0.73699413029933      0.27271366763909      0.53293526770755
  C   -0.65252608162724     -0.25557763500350      0.19693683995294
  F   0.81461937372366      1.59180721109611      0.28442978396962
  H   -0.61793637545727     -1.34776725363070      0.15752838801843
  H   0.98097383627543      0.07148583292120      1.57855419860375
  N   1.79030136130244     -0.46783900181021     -0.27092189299411
  O   1.72907219668007     -1.68627920907581     -0.16065764414694
  O   2.60723455644447      0.19294326638017     -0.88513091274835
  N   -1.04026444720343      0.20059500541461     -1.20285878406334
  O   -2.15764389403401      0.66638131875012     -1.36185857154316
  O   -0.17928776079105      0.01643744816149     -2.05280518023852
  C   -1.62819861598329      0.20408650767773      1.17441404545462
  N   -2.38333827962913      0.54001284147970      2.00843446202752
