13
Coordinates from ORCA-job run
  C   0.67455185309508      0.36426557779290      0.55782592527927
  C   -0.58871796006539     -0.39489912575829      0.17055212280672
  F   0.49050938021586      1.68921693590018      0.42307960404489
  H   -0.34321974212238     -1.45254521769920      0.04093478371576
  H   0.96484636604217      0.12661176554970      1.58377923185339
  N   1.84360164034240     -0.08540762684221     -0.29971890926454
  O   2.51085277712796      0.77200827491156     -0.84820113673113
  O   2.02061836897934     -1.29750066564408     -0.29709374333491
  N   -1.07392553114434      0.08971213117130     -1.18857416615168
  O   -2.26476098315406      0.32728155076100     -1.31666233627486
  O   -0.20159618336497      0.15831749827546     -2.04411054357171
  C   -1.62368591259366     -0.21481657743252      1.17818853348854
  N   -2.41007407335802     -0.08224452098581      2.04000063414024
