13
Coordinates from ORCA-job run
  C   0.78756614482861     -0.47005141853230     -0.10227765050462
  C   -0.61825546759205      0.04339308606828      0.17078771832973
  F   0.86092514783629     -1.75393674254757      0.31169349778762
  H   -0.86148315668368     -0.10899888975520      1.22462405483729
  H   1.08444583223583     -0.38037307683357     -1.14534448486664
  N   1.73439434371576      0.36329667724648      0.72319394222350
  O   2.39022225725432      1.19937898882699      0.11057232501220
  O   1.73084574408451      0.14405519505485      1.92874063419388
  N   -1.58379737919333     -0.81144288789417     -0.62921961516790
  O   -2.52804449444442     -1.28422332138261     -0.01276020657848
  O   -1.32430667076347     -0.93860028215698     -1.81906100876657
  C   -0.77487117643965      1.43540979098603     -0.22450880267148
  N   -0.89664112483873      2.56109288091977     -0.53644040382852
