13
Coordinates from ORCA-job run
  C   0.77052917827721     -0.49835315861839     -0.04409079775207
  C   -0.60540591062360      0.10153091990385      0.20252507389805
  F   0.86992891518880     -1.64586382149393      0.66361673076412
  H   -0.76304372560612      0.21699147145965      1.27682867907762
  H   0.98272046614151     -0.67228606342388     -1.09737038209011
  N   1.78749145882011      0.48242927810297      0.47932121348545
  O   2.46017451288882      1.06861081505922     -0.36265028136295
  O   1.82300135178568      0.61633816853073      1.69721042417030
  N   -1.63507621232113     -0.89834575304106     -0.28910466018797
  O   -1.49069484636849     -1.29043925407437     -1.44001954787988
  O   -2.50813852160066     -1.21374297400187      0.50699698551320
  C   -0.78066471317406      1.35832810777347     -0.51021344160894
  N   -0.91082195340805      2.37480226382361     -1.08404999602682
