13
Coordinates from ORCA-job run
  C   0.65721240594319      0.20257793949875      0.65342659671320
  C   -0.62681629430906     -0.36689564365214      0.06216962108634
  F   0.58133515488313      1.54141932093805      0.74854035616366
  H   -0.45004013770144     -1.40269233289011     -0.24048792535201
  H   0.85398620220342     -0.23446310141538      1.63496750484502
  N   1.84924016541038     -0.18869855292809     -0.20131999720997
  O   2.61513520872821      0.69124198485144     -0.54825976478021
  O   1.93668746152682     -1.39346406842578     -0.40448678472675
  N   -0.97436574837556      0.38685214188813     -1.21371562398178
  O   -0.03953582233658      0.52816724752578     -1.99063670453312
  O   -2.13177862127836      0.74433673111913     -1.36668285945945
  C   -1.71670911943398     -0.27824650160020      1.02301038561965
  N   -2.55335085526019     -0.23113516490958      1.84547519561540
