13
Coordinates from ORCA-job run
  C   0.78761229203291     -0.47247897260135     -0.02665119550491
  C   -0.61889004828674      0.07186117069096      0.17146534179365
  F   0.88280833417174     -1.65656429449263      0.61867850482422
  H   -0.84189414961718      0.11847281460118      1.23932879724785
  H   1.06620805734300     -0.57754041247471     -1.07353387702486
  N   1.74049064883334      0.50437039809214      0.61221824706455
  O   2.44212087675078      1.15791532531551     -0.15299008844688
  O   1.70073790227664      0.56735052622940      1.83568150707781
  N   -1.58587463336399     -0.92607325154959     -0.43742840416960
  O   -1.36155872425019     -1.24658097926978     -1.59762851657418
  O   -2.49449141808922     -1.31097595903114      0.28490606773585
  C   -0.79310373586606      1.36319365556018     -0.47682829412435
  N   -0.92316540193502      2.40804997892983     -0.99721808989914
