13
Coordinates from ORCA-job run
  C   0.75533727733525     -0.65508737823026      0.35731047687931
  C   -0.71439208559869     -0.24187927955109      0.31947163686558
  F   1.10701319153096     -0.92103320329097      1.63103221258085
  H   -1.27398338836409     -1.00327986246786      0.87209812495832
  H   0.93951910078640     -1.51810981046391     -0.28264444666116
  N   1.60497479912558      0.47730430783258     -0.17100692620260
  O   1.22390622718222      0.90915672061913     -1.25417241120662
  O   2.56677058879883      0.83459231056116      0.48748832798974
  N   -1.25291848941580     -0.31730737207610     -1.10085918628384
  O   -1.02521143328401     -1.37748842374616     -1.66847611160359
  O   -1.88728967923988      0.63380887161363     -1.52469676581203
  C   -0.93388779248776      1.06995149159587      0.90810152285244
  N   -1.10983831636901      2.10837162760399      1.42735354564357
