13

C	-0.48083	-0.096682	-1.441547
C	0.0	0.0	0.0
F	-0.229138	1.118001	-2.087811
H	1.093838	0.0	0.0
H	-1.568884	-0.236271	-1.498329
H	-0.304583	-0.906762	0.53617
C	0.262125	-1.192299	-2.174295
H	-0.007536	-2.171022	-1.765903
H	0.008777	-1.174781	-3.237329
H	1.334843	-1.039769	-2.035652
C	-0.556161	1.15316	0.688785
N	-1.027383	2.07362	1.246375
H	2.889148	0.0	0.0
