15

C	0.0	0.0	0.0
C	-0.489618	-0.201198	-1.431401
F	1.417015	0.0	0.0
H	-0.167092	0.633993	-2.058468
H	-1.588155	-0.22189	-1.381866
C	-0.493573	1.313471	0.552876
H	-1.587258	1.295707	0.553145
H	-0.123019	2.141212	-0.056152
H	-0.122095	1.444847	1.572639
N	-0.451278	-1.082907	0.796792
H	-0.285457	-0.913173	1.778571
H	-0.014807	-1.951078	0.514388
C	0.019921	-1.44356	-2.003837
N	0.418304	-2.450651	-2.4563
Cl	-3.894084	0.0	0.0
