15

C	0.0	0.0	0.0
C	-0.484508	0.137273	-1.442006
F	1.414657	0.0	0.0
H	-0.216618	-0.763168	-2.0038
H	-1.580999	0.195142	-1.393492
C	-0.486077	1.133616	0.868156
H	-1.578734	1.112612	0.877077
H	-0.125478	2.087336	0.479175
H	-0.098158	1.006434	1.883219
N	-0.46169	-1.24999	0.488877
H	0.054279	-2.012296	0.070156
H	-0.406549	-1.303137	1.495764
C	0.085752	1.296678	-2.121348
N	0.554291	2.222195	-2.670202
Cl	-3.879393	0.0	0.0
