15

C	0.0	0.0	0.0
C	-0.436756	-0.122029	-1.471254
F	1.393414	0.0	0.0
H	-0.072705	0.734932	-2.045892
H	-1.533622	-0.123021	-1.477359
C	-0.446958	1.328361	0.572764
H	-0.088894	1.390791	1.601723
H	-1.535367	1.390812	0.554058
H	-0.012553	2.145539	-0.008273
N	-0.454681	-1.068696	0.837001
H	-1.468379	-0.974849	0.911525
H	-0.260509	-1.959483	0.390212
C	0.072998	-1.348022	-2.077712
N	0.468774	-2.345648	-2.553414
Cl	-3.673456	0.0	0.0
