15

C	0.0	0.0	0.0
C	-0.470418	0.313086	-1.421588
F	1.389507	0.0	0.0
H	-1.566585	0.369259	-1.411663
H	-0.16516	-0.517242	-2.063381
C	-0.426311	1.066727	0.991228
H	-0.011741	2.040956	0.721069
H	-1.516314	1.110856	1.013969
H	-0.050061	0.79392	1.981932
N	-0.453844	-1.330379	0.30855
H	-1.472484	-1.321265	0.217872
H	-0.257748	-1.513512	1.288113
C	0.099787	1.553591	-1.934503
N	0.565333	2.545715	-2.355424
Cl	-3.677631	0.0	0.0
