15

C	0.0	0.0	0.0
C	-0.31164	0.032443	-1.524495
F	1.396132	0.0	0.0
H	-0.41831	-1.004982	-1.856421
H	0.600887	0.426144	-1.985019
C	-0.41877	1.25802	0.730773
H	-0.047242	1.20412	1.762342
H	0.002449	2.150464	0.256508
H	-1.507644	1.309748	0.73309
N	-0.492008	-1.222036	0.554195
H	-1.499304	-1.217217	0.360702
H	-0.406189	-1.178787	1.565343
C	-1.396116	0.849244	-2.07264
N	-2.086922	1.545184	-2.717858
Cl	-3.623595	0.0	0.0
