15

C	0.0	0.0	0.0
C	-0.223952	0.072881	-1.531622
F	1.420292	0.0	0.0
H	-0.07757	-0.935465	-1.930691
H	0.586242	0.691942	-1.926753
C	-0.546827	1.188267	0.741514
H	-1.640667	1.141693	0.69682
H	-0.19316	2.115859	0.287326
H	-0.212263	1.158744	1.782894
N	-0.493589	-1.209087	0.523878
H	-0.67727	-1.188253	1.513888
H	0.060937	-2.006531	0.254119
C	-1.454404	0.624104	-2.097973
N	-2.264033	1.138591	-2.775232
Cl	-4.10038	0.0	0.0
