14

C	0.0	0.0	0.0
C	-0.576189	-0.433414	-1.306862
F	1.358384	0.0	0.0
H	-1.659746	-0.522456	-1.095079
H	-0.37976	0.959134	0.346348
H	-0.152444	-1.40626	-1.566662
N	-0.349252	-0.969574	1.115831
O	-0.370882	-2.166095	0.844711
O	-0.469384	-0.490209	2.241106
C	-0.335638	0.617309	-2.383576
H	-0.927793	1.508891	-2.162532
H	-0.662788	0.243196	-3.356557
H	0.717279	0.903873	-2.469432
H	-3.17043	0.0	0.0
