14

C	0.0	0.0	0.0
C	-0.424081	0.02422	-1.484009
F	1.358284	0.0	0.0
H	-1.505324	-0.069369	-1.522
H	-0.392448	0.815009	0.624268
H	-0.080938	-0.906898	-1.963794
N	-0.526361	-1.401801	0.507176
O	-1.577677	-1.305881	1.380503
O	0.513004	-2.069562	1.121546
C	-0.054736	1.284379	-2.244682
H	1.030424	1.349476	-2.272325
H	-0.469181	2.14078	-1.693114
H	-0.488341	1.27124	-3.251016
H	-1.732083	0.0	0.0
