13

C	0.0	0.0	0.0
C	-0.499903	-0.198209	-1.414221
Br	1.948226	0.0	0.0
H	-0.166553	0.604055	-2.068282
H	-0.264788	-0.871255	0.602748
H	-1.597151	-0.251343	-1.365871
N	-0.500233	1.264099	0.469426
H	-1.521961	1.201183	0.394547
H	-0.282477	1.356514	1.455305
N	-0.027265	-1.472682	-2.007555
O	0.335982	-1.450719	-3.183756
O	-0.062505	-2.478984	-1.302373
Br	-3.711515	0.0	0.0
