13

C	0.0	0.0	0.0
C	-0.536217	0.263299	-1.384392
Br	2.011362	0.0	0.0
H	-1.633679	0.173146	-1.290995
H	-0.263166	-1.008455	0.307551
H	-0.247953	1.238006	-1.776899
N	-0.509237	0.945711	0.891596
H	-0.175789	1.88439	0.73505
H	-0.453821	0.676533	1.859578
N	-0.072618	-0.74279	-2.371514
O	0.161455	-0.34797	-3.513765
O	0.001609	-1.912283	-2.000149
Br	-3.861216	0.0	0.0
