13

C	0.0	0.0	0.0
C	-0.495542	0.45211	-1.362533
Br	1.980863	0.0	0.0
H	-0.135733	-0.218087	-2.139199
H	-0.24304	-1.065606	0.074498
H	-1.590511	0.476712	-1.315029
N	-0.487855	0.822894	1.054087
H	-1.49594	0.922976	0.907541
H	-0.355458	0.345485	1.937731
N	-0.020964	1.809265	-1.733347
O	0.859893	1.884274	-2.594691
O	-0.54236	2.769601	-1.170316
Br	-3.716109	0.0	0.0
