13

C	0.0	0.0	0.0
C	-0.5096	0.098734	-1.419425
Br	2.031245	0.0	0.0
H	-1.608803	0.16963	-1.338827
H	-0.226668	-1.002009	0.360283
H	-0.206927	-0.757432	-2.017009
N	-0.527222	0.950088	0.851776
H	-0.379927	0.796939	1.833489
H	-0.437161	1.904806	0.550065
N	-0.019978	1.296125	-2.148447
O	-0.021172	2.376226	-1.556306
O	0.325681	1.144882	-3.318775
Br	-3.861862	0.0	0.0
