13

C	0.0	0.0	0.0
C	-0.468308	-0.07778	-1.453742
Br	1.969202	0.0	0.0
H	-1.561989	0.024063	-1.431295
H	-0.290101	-0.946151	0.458402
H	-0.168569	-1.011055	-1.927181
N	-0.486405	1.066746	0.812246
H	-1.486171	0.889317	0.941532
H	-0.396595	1.935211	0.298999
N	0.076648	1.002589	-2.312056
O	-0.009137	2.160911	-1.903189
O	0.566927	0.68167	-3.394258
Br	-3.688353	0.0	0.0
