13

C	0.0	0.0	0.0
C	-0.479874	0.235488	-1.434253
Br	1.945433	0.0	0.0
H	-1.572451	0.3357	-1.383039
H	-0.297886	-1.020339	0.246107
H	-0.189816	-0.576809	-2.097945
N	-0.49014	0.869874	1.023077
H	-0.387527	1.828215	0.71102
H	-1.492456	0.678856	1.096521
N	0.066737	1.470946	-2.046117
O	0.557926	1.385425	-3.17165
O	-0.018226	2.517417	-1.402538
Br	-3.694872	0.0	0.0
