14

C	-0.346588	-0.226902	-1.479351
C	0.0	0.0	0.0
Br	-0.450233	1.551096	-2.327199
H	1.088642	0.0	0.0
H	-1.352139	-0.641277	-1.619839
H	-0.459824	0.889927	0.420754
C	0.732761	-1.047366	-2.170028
H	0.64453	-1.013774	-3.259877
H	1.704926	-0.688943	-1.815964
H	0.629673	-2.074635	-1.820603
N	-0.527585	-1.131974	0.779219
O	-1.340756	-0.89514	1.68121
O	-0.156792	-2.270208	0.482287
F	2.625254	0.0	0.0
