14

C	-0.560008	-0.054769	-1.399742
C	0.0	0.0	0.0
Br	0.305461	-1.405337	-2.540229
H	1.088092	0.0	0.0
H	-0.248201	0.883116	-1.864694
H	-0.313177	0.94173	0.461171
C	-2.06708	-0.217596	-1.509285
H	-2.400013	-0.114041	-2.544341
H	-2.556869	0.553605	-0.903885
H	-2.370721	-1.197454	-1.142835
N	-0.495295	-1.046664	0.898007
O	-0.740396	-2.166832	0.438981
O	-0.590706	-0.765288	2.096489
F	2.538067	0.0	0.0
