18

C	0.0	0.0	0.0
C	-0.642922	-0.031579	-1.393974
Cl	1.754918	0.0	0.0
H	-1.760689	0.016355	-1.075033
N	-0.51545	0.971473	0.886374
H	-0.304722	1.882691	0.496451
H	-1.548628	0.845502	0.813708
N	-0.359871	-1.382324	0.664689
O	-1.171824	-1.366613	1.57584
O	0.190077	-2.382991	0.210159
C	-0.343537	-1.203766	-2.297767
H	-0.813022	-2.099468	-1.895753
H	-0.762278	-1.004943	-3.285026
H	0.727391	-1.381814	-2.405979
N	-0.322019	1.239055	-2.078025
O	-0.718919	2.296774	-1.569615
O	0.299879	1.197642	-3.148551
H	-2.988436	0.0	0.0
