13

C	-0.566484	0.010772	-1.420861
C	0.0	0.0	0.0
Br	0.08608	-1.583362	-2.357389
H	1.092163	0.0	0.0
H	-0.344538	-0.920072	0.480298
N	-2.013787	-0.070115	-1.387065
H	-2.368292	0.726233	-0.863533
H	-2.38177	-0.019641	-2.331047
C	-0.088503	1.173655	-2.188598
N	0.154085	2.132776	-2.825278
C	-0.526271	1.147919	0.732458
N	-1.00636	2.069968	1.280099
Cl	3.293904	0.0	0.0
