13

C	-0.59649	-0.017825	-1.418917
C	0.0	0.0	0.0
Br	0.135974	-1.557478	-2.388248
H	1.102826	0.0	0.0
H	-0.317326	0.936216	0.477449
N	-2.044636	-0.114608	-1.499901
H	-2.337892	-0.953843	-1.009528
H	-2.445556	0.688616	-1.023981
C	-0.194334	1.200538	-2.128646
N	0.042808	2.218665	-2.664701
C	-0.537057	-1.112642	0.771364
N	-1.034609	-1.996285	1.363993
Cl	3.286793	0.0	0.0
