18

C	-0.279804	0.012403	-1.506941
C	0.0	0.0	0.0
Cl	-0.0886	-1.657289	-2.222672
H	1.09932	0.0	0.0
N	-1.734959	0.330114	-1.841205
O	-1.963719	0.846596	-2.929842
O	-2.58582	0.018311	-1.013153
N	0.524393	0.977378	-2.122622
H	0.458244	0.938643	-3.130048
H	1.486579	0.860905	-1.810284
N	-0.480344	-1.180726	0.682445
H	0.216063	-1.473968	1.353594
H	-1.350403	-0.987657	1.158005
C	-0.439479	1.319119	0.639525
H	-0.121509	2.177211	0.045766
H	0.032566	1.390741	1.622395
H	-1.52519	1.353224	0.768454
Cl	3.37741	0.0	0.0
