18

C	-0.597479	0.008831	-1.417216
C	0.0	0.0	0.0
Cl	0.049259	1.353501	-2.365903
H	1.090521	0.0	0.0
N	-0.145711	-1.300729	-2.091307
O	1.003635	-1.364487	-2.503885
O	-0.964582	-2.217258	-2.077866
N	-2.028453	0.02696	-1.488448
H	-2.340341	0.949679	-1.213506
H	-2.350072	-0.650725	-0.802097
N	-0.534189	-1.208382	0.657014
H	0.089236	-1.982521	0.446064
H	-0.457595	-1.066437	1.658839
C	-0.455511	1.220472	0.786599
H	-0.216163	2.146236	0.26324
H	-1.529714	1.181221	0.995682
H	0.084386	1.237846	1.737253
Cl	3.453646	0.0	0.0
