18

C	-0.246596	-0.067581	-1.529227
C	0.0	0.0	0.0
Cl	-1.946705	-0.510027	-1.956547
H	1.097805	0.0	0.0
N	-0.083052	1.350309	-2.179276
O	-0.936063	2.200027	-1.949775
O	0.920029	1.514965	-2.867658
N	0.641456	-0.999836	-2.079168
H	0.653558	-0.966333	-3.089618
H	1.581994	-0.831812	-1.712626
N	-0.413421	-1.227181	0.663619
H	-1.387334	-1.422095	0.453171
H	0.139713	-1.993709	0.296845
C	-0.573427	1.203822	0.715737
H	-1.655537	1.281119	0.573365
H	-0.363896	1.067955	1.777351
H	-0.114809	2.135587	0.387783
Cl	3.395411	0.0	0.0
