18

C	-0.518781	0.037724	-1.4388
C	0.0	0.0	0.0
Cl	0.334135	1.344769	-2.382078
H	1.095202	0.0	0.0
N	-0.155032	-1.23384	-2.212362
O	-0.844533	-1.479616	-3.202116
O	0.795448	-1.894074	-1.822896
N	-1.931563	0.133042	-1.499916
H	-2.224584	1.016073	-1.103213
H	-2.241257	0.068531	-2.46193
N	-0.463282	-1.190275	0.704198
H	0.164425	-1.955364	0.496657
H	-1.399251	-1.43302	0.400729
C	-0.466463	1.238515	0.760915
H	-1.541369	1.194916	0.970905
H	-0.226318	2.165317	0.23605
H	0.055838	1.241015	1.717645
Cl	3.491894	0.0	0.0
