12
Coordinates from ORCA-job run
  C   -0.62994291903171     -0.51721409180319     -0.17729560396749
  C   0.81738900192744     -0.00262098846941     -0.00984513508932
  H   -1.06713575842546     -0.03775259915748     -1.06309916952507
  H   1.25775571675369     -0.52685540914198      0.84498581892363
  H   -0.57309900590435     -1.59075371833053     -0.37097484741806
  N   -1.33991497145914     -0.28961713547993      1.06903741413188
  H   -2.13669851993199     -0.90797168424728      1.14053319869757
  H   -1.68156320858989      0.66237336875493      1.11661868131910
  C   0.79815234868171      1.43244913164832      0.29373780981418
  N   0.71205143729934      2.57585021002023      0.54455601470662
  C   1.61737181019891     -0.27039008459797     -1.20903132607618
  N   2.22463406848146     -0.52649699919571     -2.18022285551686
