12
Coordinates from ORCA-job run
  C   -0.79714077937651     -0.04957759882545     -0.18492342953369
  C   0.61290650604761      0.53063742799877      0.08785080597601
  H   -1.47905468096821      0.79690263288255     -0.27587284071330
  H   0.57745919386409      0.99003213695902      1.08165840583366
  H   -0.77349177852683     -0.56145795683368     -1.15590506342556
  N   -1.18301967081919     -0.87490563845947      0.93918458805678
  H   -0.88807058665797     -1.83464156885487      0.83200071413016
  H   -2.17626345219292     -0.84410806477477      1.10697265483317
  C   0.97600560391084      1.53913635329389     -0.91274354748206
  N   1.20337542434977      2.34334719931133     -1.73637657498720
  C   1.59263854947113     -0.56298258954859      0.11387066862067
  N   2.33365567089820     -1.47238233314876      0.10428361869137
