12
Coordinates from ORCA-job run
  C   -0.66462723951078     -0.35305133591155     -0.30221826896895
  C   0.81103784413013     -0.01155759253933      0.02759653765583
  H   -0.67467828425453     -1.32631419239346     -0.80446297642922
  H   1.16276501970554     -0.72686104078243      0.77928440812210
  H   -1.02878055738932      0.38853688160769     -1.01734630425079
  N   -1.43546823053016     -0.32708596864823      0.92645612230049
  H   -1.69788646395356     -1.25499036807255      1.22472974326196
  H   -2.27006508896492      0.23213728871003      0.83640178460798
  C   0.90068305376627      1.33458003410362      0.60081679455627
  N   0.94622243595050      2.42242686559581      1.03853717891836
  C   1.65815448088901     -0.12717318748104     -1.16433805632569
  N   2.29164303016182     -0.25264738418855     -2.14445696344834
