16

C	-0.515719	-0.145883	-1.43784
C	0.0	0.0	0.0
Cl	-0.274035	1.50803	-2.158269
H	1.087773	0.0	0.0
H	-0.363579	0.920974	0.453581
C	0.291663	-1.123613	-2.265499
H	0.106109	-2.134369	-1.901849
H	-0.007203	-1.045818	-3.312501
H	1.353066	-0.905677	-2.138481
N	-1.931578	-0.440602	-1.565269
H	-2.451135	0.138352	-0.914511
H	-2.057702	-1.408034	-1.287214
N	-0.472804	-1.074257	0.860316
O	-0.378177	-2.243315	0.454449
O	-0.900779	-0.778132	1.986382
H	2.690515	0.0	0.0
