16

C	-0.507563	-0.233891	-1.427887
C	0.0	0.0	0.0
Cl	-0.341512	1.399127	-2.217594
H	1.087771	0.0	0.0
H	-0.348922	0.939737	0.423733
C	0.37219	-1.199773	-2.1966
H	0.083162	-1.194015	-3.24956
H	1.416167	-0.908887	-2.068519
H	0.244348	-2.201064	-1.781987
N	-1.907579	-0.601031	-1.561975
H	-2.4652	0.048612	-1.016114
H	-2.000563	-1.518408	-1.134339
N	-0.403523	-1.038527	0.931675
O	-0.552002	-2.200733	0.512316
O	-0.480105	-0.733656	2.13082
H	2.64902	0.0	0.0
