15

C	0.0	0.0	0.0
C	-0.30863	0.150307	-1.510786
Cl	1.762662	0.0	0.0
H	0.292823	0.996534	-1.841264
N	-0.396936	1.294909	0.731738
O	-0.494458	1.218247	1.94335
O	-0.447502	2.301825	0.04159
C	-0.473081	-1.163891	0.727892
N	-0.568136	-2.126821	1.399064
C	-1.648091	0.343175	-2.081198
N	-2.247092	0.593308	-3.072655
N	0.283814	-1.039265	-2.240541
O	1.017493	-0.779079	-3.190301
O	-0.037359	-2.155898	-1.853211
Cl	-2.960694	0.0	0.0
