15

C	0.0	0.0	0.0
C	-0.300513	-0.092952	-1.52243
Cl	1.763153	0.0	0.0
H	0.261805	0.727474	-1.968081
N	-0.411352	1.383694	0.5219
O	-0.510849	1.489863	1.731437
O	-0.467838	2.275567	-0.311469
C	-0.478282	-1.044212	0.887197
N	-0.586012	-1.914558	1.672706
C	-1.638358	-0.072332	-2.12331
N	-2.26489	-0.064017	-3.128441
N	0.359998	-1.346661	-2.065201
O	1.099708	-1.195113	-3.032142
O	0.073956	-2.408302	-1.525633
Cl	-2.966344	0.0	0.0
