16

C	-0.130235	0.038124	-1.547546
C	0.0	0.0	0.0
Cl	0.097384	-1.687098	-2.192163
H	1.102669	0.0	0.0
C	-1.450068	0.431393	-2.05397
N	-2.515402	0.761637	-2.426406
N	0.89985	0.915997	-1.971498
H	1.766112	0.664862	-1.444067
H	1.04163	0.88584	-2.972035
N	-0.633496	-1.11536	0.640657
H	0.030214	-1.5849	1.237954
H	-1.41407	-0.773655	1.185804
N	-0.540284	1.271496	0.516695
H	-0.243865	2.004007	-0.123094
H	-0.024372	1.450662	1.375413
F	2.730419	0.0	0.0
