16

C	-0.531095	-0.020128	-1.436549
C	0.0	0.0	0.0
Cl	0.250404	1.400913	-2.350057
H	1.096556	0.0	0.0
C	-0.087573	-1.217618	-2.155981
N	0.259367	-2.139912	-2.794383
N	-1.949317	0.073913	-1.448682
H	-2.185926	0.861699	-0.852027
H	-2.304526	0.211442	-2.38635
N	-0.467962	-1.21026	0.626329
H	0.148048	-1.448484	1.391782
H	-1.430375	-1.135077	0.934345
N	-0.557073	1.224143	0.635635
H	-0.466677	1.069895	1.634611
H	0.099042	1.97135	0.420627
F	2.641293	0.0	0.0
