16

C	-0.127019	-0.06309	-1.530863
C	0.0	0.0	0.0
Cl	-1.781394	-0.592544	-2.074301
H	1.102983	0.0	0.0
C	0.077125	1.270574	-2.115896
N	0.2291	2.355423	-2.540361
N	0.871375	-0.970206	-2.06468
H	0.632195	-1.86831	-1.647963
H	1.739609	-0.683713	-1.566878
N	-0.424581	-1.264623	0.555547
H	-1.385724	-1.183045	0.869093
H	0.172621	-1.487038	1.341591
N	-0.698349	1.13299	0.608765
H	-0.426734	1.984613	0.123459
H	-0.31116	1.226145	1.544604
F	2.701879	0.0	0.0
