16

C	-0.632706	-0.027619	-1.390718
C	0.0	0.0	0.0
Cl	0.141697	1.341303	-2.395865
H	1.096575	0.0	0.0
C	-0.311799	-1.258367	-2.120186
N	-0.123222	-2.22398	-2.760032
N	-2.040446	0.130006	-1.292624
H	-2.466853	0.280636	-2.196552
H	-2.195735	0.921666	-0.6746
N	-0.43371	-1.196598	0.67987
H	0.270884	-1.453305	1.356947
H	-1.34378	-1.094102	1.1117
N	-0.50046	1.238804	0.660441
H	0.141976	1.975511	0.376174
H	-0.31528	1.097794	1.647682
F	2.641081	0.0	0.0
