16

C	-0.112703	-0.164414	-1.527631
C	0.0	0.0	0.0
Cl	-1.757044	-0.863672	-2.049477
H	1.104677	0.0	0.0
C	-0.070469	1.138939	-2.215542
N	0.037588	2.1217	-2.8525
N	0.934729	-1.052681	-1.922345
H	1.11199	-0.993453	-2.917097
H	1.781173	-0.776198	-1.374313
N	-0.391648	-1.194231	0.736992
H	-1.131357	-1.687312	0.247946
H	0.413742	-1.807759	0.766526
N	-0.624857	1.220386	0.452298
H	-0.049819	1.593487	1.197617
H	-1.521351	0.983774	0.863028
F	2.697248	0.0	0.0
