16

C	-0.541616	-0.023742	-1.400259
C	0.0	0.0	0.0
Cl	-2.559176	0.061958	-1.193024
H	1.095679	0.0	0.0
C	-0.313845	1.196439	-2.16637
N	-0.11484	2.141316	-2.83525
N	-0.194705	-1.164407	-2.085563
H	-0.23585	-1.955739	-1.452868
H	-0.66055	-1.295936	-2.969712
N	-0.334691	-1.286625	0.619595
H	0.42226	-1.506859	1.256214
H	-1.208456	-1.230134	1.131754
N	-0.400425	1.217023	0.665819
H	0.297527	1.436137	1.36461
H	-1.316429	1.141243	1.092701
F	2.586604	0.0	0.0
