16

C	-0.121415	-0.190406	-1.515621
C	0.0	0.0	0.0
Cl	-1.767102	-0.894957	-2.029336
H	1.104672	0.0	0.0
C	-0.087243	1.107111	-2.214031
N	-0.002603	2.081091	-2.864739
N	0.925998	-1.078402	-1.90605
H	1.773138	-0.802887	-1.362129
H	1.09038	-1.034537	-2.903505
N	-0.433133	-1.198096	0.734027
H	0.39293	-1.547146	1.20779
H	-0.708645	-1.920941	0.077621
N	-0.622975	1.218348	0.455539
H	-0.013473	1.645896	1.141919
H	-1.483168	0.959139	0.924935
F	2.697749	0.0	0.0
