12

C	-0.275241	-0.0124	-1.466297
C	0.0	0.0	0.0
Br	-2.217355	0.032635	-1.987463
H	1.097342	0.0	0.0
H	0.15496	0.85541	-1.962921
H	0.104169	-0.920444	-1.934437
H	-0.360725	0.931699	0.45005
C	-0.513374	-1.217758	0.747064
H	-0.096688	-2.12759	0.302145
H	-0.172445	-1.187633	1.785853
H	-1.606548	-1.302381	0.741883
F	2.68821	0.0	0.0
