17

C	-0.203375	0.09434	-1.518921
C	0.0	0.0	0.0
F	0.026047	-1.217866	-2.027252
H	1.098993	0.0	0.0
C	-1.593491	0.468225	-1.98277
H	-2.299299	-0.305518	-1.670784
H	-1.616966	0.544848	-3.075556
H	-1.892777	1.418987	-1.543088
N	0.806707	0.993043	-1.959279
H	1.694578	0.719892	-1.500913
H	0.887486	0.973314	-2.968466
C	-0.629052	-1.17181	0.578231
N	-1.1341	-2.104648	1.084855
N	-0.510402	1.238275	0.642909
H	-0.088818	1.258196	1.566824
H	-0.035264	1.977019	0.129505
F	2.661409	0.0	0.0
