17

C	-0.311488	0.120179	-1.49598
C	0.0	0.0	0.0
F	-1.632862	0.70481	-1.644654
H	1.094379	0.0	0.0
C	0.680015	1.07141	-2.132586
H	1.673714	0.777362	-1.773548
H	0.471084	2.092528	-1.807259
H	0.610534	1.03503	-3.224063
N	-0.282727	-1.143689	-2.134684
H	-0.938405	-1.783972	-1.702268
H	-0.506923	-1.041645	-3.116434
C	-0.602833	-1.19641	0.574627
N	-1.098963	-2.176292	0.995144
N	-0.380274	1.186474	0.769154
H	0.444346	1.769098	0.825918
H	-1.116607	1.688437	0.290914
F	2.622199	0.0	0.0
