17

C	-0.151675	0.015548	-1.538989
C	0.0	0.0	0.0
F	0.067782	-1.334821	-1.958197
H	1.098101	0.0	0.0
C	-1.516501	0.365609	-2.091612
H	-1.498845	0.291251	-3.183034
H	-2.26372	-0.336155	-1.709047
H	-1.795538	1.386817	-1.8236
N	0.877765	0.866904	-2.013571
H	1.745482	0.621634	-1.500425
H	1.000452	0.743608	-3.010929
C	-0.637299	-1.163451	0.591066
N	-1.186902	-2.088012	1.065262
N	-0.399485	1.223845	0.687606
H	0.333565	1.901345	0.517957
H	-1.268145	1.58957	0.322193
F	2.650244	0.0	0.0
