17

C	-0.360485	0.054866	-1.494974
C	0.0	0.0	0.0
F	0.003873	1.352832	-1.88901
H	1.096245	0.0	0.0
C	0.520303	-0.910305	-2.253703
H	1.539794	-0.751896	-1.888313
H	0.43755	-0.715129	-3.324688
H	0.228868	-1.94559	-2.05126
N	-1.763789	-0.062983	-1.812194
H	-2.266295	0.461737	-1.100077
H	-2.032408	-1.034845	-1.714708
C	-0.517937	-1.241758	0.552969
N	-0.951756	-2.248161	0.980643
N	-0.627903	1.152006	0.684138
H	-0.409873	1.064817	1.672568
H	-0.095134	1.95321	0.35774
F	2.644404	0.0	0.0
