14

C	-0.174868	0.16142	-1.516029
C	0.0	0.0	0.0
Br	-0.227	-1.704933	-2.428401
H	1.103095	0.0	0.0
H	-1.149803	0.54704	-1.813924
N	0.903419	0.950316	-1.926532
H	1.77213	0.641121	-1.443039
H	0.99731	1.050375	-2.925253
C	-0.631677	-1.151792	0.608102
N	-1.096269	-2.064417	1.184257
N	-0.531621	1.245818	0.618984
H	-0.211923	1.235708	1.584648
H	0.005895	1.985303	0.172351
F	2.667179	0.0	0.0
