14

C	-0.60183	-0.039847	-1.395125
C	0.0	0.0	0.0
Br	0.442564	1.253725	-2.569463
H	1.09771	0.0	0.0
H	-0.408652	-0.992769	-1.886288
N	-1.979827	0.275425	-1.367989
H	-2.356656	0.402089	-2.297898
H	-2.073561	1.134759	-0.837535
C	-0.480413	-1.163761	0.731289
N	-0.848845	-2.103855	1.335129
N	-0.403302	1.259667	0.668422
H	0.468892	1.741523	0.859284
H	-0.841259	1.066699	1.560971
F	2.555702	0.0	0.0
