14

C	-0.595537	-0.053592	-1.397396
C	0.0	0.0	0.0
Br	0.456643	1.222353	-2.585283
H	1.097707	0.0	0.0
H	-0.404053	-1.012995	-1.877628
N	-1.97334	0.266095	-1.380786
H	-2.34285	0.373006	-2.315776
H	-2.066835	1.141897	-0.873505
C	-0.47676	-1.161368	0.739387
N	-0.848095	-2.095904	1.351774
N	-0.403602	1.262989	0.659315
H	-0.90622	1.078596	1.518149
H	0.469029	1.719437	0.901749
F	2.555721	0.0	0.0
