14

C	-0.480214	0.047192	-1.441762
C	0.0	0.0	0.0
Br	0.042688	1.727864	-2.290242
H	1.094371	0.0	0.0
H	0.08461	-0.705789	-2.003699
N	-1.9279	-0.067578	-1.550843
H	-2.1916	-0.076213	-2.529183
H	-2.196171	-0.961167	-1.149028
C	-0.438815	-1.290625	0.541596
N	-0.82667	-2.31353	0.978807
N	-0.450237	1.12942	0.797236
H	-1.351439	0.968357	1.222261
H	0.244029	1.291861	1.51399
F	2.565825	0.0	0.0
