14

C	-0.172214	0.214459	-1.511173
C	0.0	0.0	0.0
Br	-0.271018	-1.636754	-2.484989
H	1.100598	0.0	0.0
H	-1.141048	0.623067	-1.801093
N	0.918519	0.984782	-1.901373
H	1.791081	0.662729	-1.431878
H	0.997448	1.148575	-2.893105
C	-0.64105	-1.165883	0.569893
N	-1.153718	-2.062497	1.130959
N	-0.522492	1.22758	0.660005
H	-0.302794	1.134347	1.648646
H	0.09237	1.963817	0.318707
F	2.672222	0.0	0.0
