14

C	-0.113966	-0.071077	-1.509731
C	0.0	0.0	0.0
Br	-1.970872	-0.535996	-2.154156
H	1.09844	0.0	0.0
H	-0.017623	0.953149	-1.880569
N	0.838724	-1.021325	-1.98343
H	1.013228	-0.88764	-2.971504
H	1.701527	-0.83723	-1.439645
C	-0.467802	-1.21177	0.667182
N	-0.857941	-2.132016	1.287282
N	-0.540556	1.233127	0.546993
H	-1.505414	1.105235	0.82838
H	0.000224	1.477897	1.366635
F	2.625817	0.0	0.0
