12

C	0.0	0.0	0.0
C	-0.543883	0.020484	-1.411333
Cl	1.784101	0.0	0.0
H	-0.060515	-0.712791	-2.055607
H	-0.348693	0.878461	0.541032
H	-1.630687	-0.141308	-1.345074
C	-0.419025	-1.221741	0.690053
N	-0.580538	-2.249054	1.235461
N	-0.366217	1.347187	-2.06157
O	0.01073	2.301239	-1.384925
O	-0.656241	1.396856	-3.25397
Cl	-3.391963	0.0	0.0
