12

C	0.0	0.0	0.0
C	-0.540918	0.367888	-1.363235
Cl	1.782365	0.0	0.0
H	-1.641379	0.352982	-1.274312
H	-0.345515	0.732714	0.730147
H	-0.179701	-0.289819	-2.150563
C	-0.428625	-1.342292	0.391102
N	-0.621997	-2.454354	0.713696
N	-0.134883	1.746224	-1.734603
O	-0.040066	2.5806	-0.837886
O	0.039148	1.971716	-2.931045
Cl	-3.406928	0.0	0.0
