12

C	0.0	0.0	0.0
C	-0.516857	-0.143647	-1.41836
Cl	1.782338	0.0	0.0
H	-1.612808	-0.234792	-1.351438
H	-0.351787	0.963449	0.370433
H	-0.23037	0.718231	-2.017767
C	-0.430246	-1.038505	0.939758
N	-0.617414	-1.842129	1.774765
N	0.023927	-1.332343	-2.122736
O	0.253327	-1.204733	-3.325707
O	0.166037	-2.369905	-1.482294
Cl	-3.371857	0.0	0.0
