12

C	0.0	0.0	0.0
C	-0.556336	0.152677	-1.397414
Cl	1.788308	0.0	0.0
H	-1.657194	0.142233	-1.291507
H	-0.341594	0.828116	0.618984
H	-0.202692	-0.616997	-2.080131
C	-0.420583	-1.276893	0.577765
N	-0.613976	-2.338878	1.039476
N	-0.175757	1.461149	-1.985014
O	-0.052093	1.504002	-3.208239
O	-0.060718	2.4226	-1.228474
Cl	-3.436077	0.0	0.0
