12

C	0.0	0.0	0.0
C	-0.540515	-0.051544	-1.411804
Cl	1.788207	0.0	0.0
H	-1.637923	-0.131112	-1.32453
H	-0.348086	0.937744	0.436278
H	-0.261172	0.842383	-1.965204
C	-0.418312	-1.094763	0.881057
N	-0.601567	-1.947481	1.666971
N	-0.039849	-1.201915	-2.20314
O	0.087074	-1.02011	-3.414281
O	0.168898	-2.262428	-1.620359
Cl	-3.395647	0.0	0.0
