12

C	0.0	0.0	0.0
C	-0.538661	-0.076203	-1.413316
Cl	1.783883	0.0	0.0
H	-1.634466	-0.170156	-1.330224
H	-0.345809	0.94601	0.418526
H	-0.266608	0.814098	-1.976931
C	-0.422147	-1.078302	0.898033
N	-0.624399	-1.920643	1.690305
N	-0.016898	-1.229477	-2.185585
O	0.148907	-1.054733	-3.393274
O	0.171179	-2.288259	-1.592422
Cl	-3.403125	0.0	0.0
