12

C	0.0	0.0	0.0
C	-0.531529	0.606724	-1.279469
Cl	1.78616	0.0	0.0
H	-1.633215	0.580032	-1.204094
H	-0.342928	0.586144	0.851155
H	-0.162724	0.097071	-2.167565
C	-0.43246	-1.390819	0.130601
N	-0.634494	-2.543137	0.23637
N	-0.12045	2.028405	-1.397715
O	-0.079955	2.701037	-0.369716
O	0.103713	2.452486	-2.531152
Cl	-3.404396	0.0	0.0
