12

C	0.0	0.0	0.0
C	-0.535875	-0.430902	-1.347141
Cl	1.787229	0.0	0.0
H	-0.159207	-1.405297	-1.652139
H	-0.346218	1.006131	0.231736
H	-1.637571	-0.413108	-1.264335
C	-0.419884	-0.942661	1.038127
N	-0.589757	-1.739535	1.883381
N	-0.147375	0.53191	-2.407668
O	0.035039	0.073722	-3.534586
O	-0.079268	1.721882	-2.108552
Cl	-3.398814	0.0	0.0
