14

C	-0.404124	-0.099323	-1.461437
C	0.0	0.0	0.0
Br	-0.13161	2.104426	-2.134644
H	1.09206	0.0	0.0
H	-0.358926	0.922238	0.454823
N	0.473851	-0.86694	-2.167968
H	0.334557	-0.891649	-3.167084
H	1.445811	-0.717971	-1.899526
N	-1.756121	-0.329422	-1.704364
H	-1.975884	-0.301938	-2.691721
H	-2.31668	0.364412	-1.228545
C	-0.494833	-1.158265	0.742715
N	-0.890104	-2.076223	1.358969
Br	3.462208	0.0	0.0
