14

C	-0.388286	0.087824	-1.49054
C	0.0	0.0	0.0
Br	-0.275317	-1.896908	-2.146893
H	1.093679	0.0	0.0
H	-0.375908	-0.906842	0.472156
N	-1.73159	0.45981	-1.84919
H	-1.903152	1.387397	-1.472554
H	-2.392879	-0.192339	-1.445998
N	0.507257	0.938072	-2.121093
H	1.477222	0.777381	-1.855363
H	0.369288	0.979829	-3.120382
C	-0.514477	1.173543	0.696619
N	-1.001742	2.097993	1.233396
Br	3.493394	0.0	0.0
