14

C	-0.231972	-0.007897	-1.506376
C	0.0	0.0	0.0
Br	-2.164942	0.053773	-1.96976
H	1.098172	0.0	0.0
H	-0.356592	0.937189	0.427622
N	0.341013	1.225486	-2.005005
H	1.320698	1.232499	-1.714849
H	0.309926	1.22644	-3.018364
N	0.270303	-1.26023	-2.019551
H	0.240942	-1.256513	-3.033069
H	1.243965	-1.338784	-1.721571
C	-0.545397	-1.145332	0.705846
N	-0.972823	-2.056837	1.309511
Br	3.468437	0.0	0.0
