14

C	-0.429651	0.064681	-1.457574
C	0.0	0.0	0.0
Br	-0.020608	-1.911022	-2.264354
H	1.091484	0.0	0.0
H	-0.312222	0.955086	0.438421
N	-1.815209	0.281403	-1.62136
H	-2.071498	0.278069	-2.601375
H	-2.324732	-0.464584	-1.164362
N	0.371572	0.990229	-2.119755
H	0.235708	0.982839	-3.121493
H	1.354929	0.842333	-1.894784
C	-0.603251	-1.080068	0.758985
N	-1.158805	-1.915706	1.367587
Br	3.476393	0.0	0.0
