13
Coordinates from ORCA-job run
  C   0.95371007688140      0.09246225849118      0.58046960483518
  C   -0.21293157778709      0.10140469174265     -0.40206100165209
  Br  2.27733811143136      1.41990433386814      0.06670042153231
  H   0.15343724785793      0.09748321128493     -1.43502040857170
  H   0.58451829306050      0.37022716459826      1.56841806401584
  C   1.56516824150435     -1.22712130344719      0.60865941915727
  N   2.00998602614427     -2.31468578093491      0.60844709066296
  N   -0.96416098001715      1.40740821989461     -0.27191043494216
  O   -1.59656795683621      1.73720050787537     -1.27216786029947
  O   -0.94677522174514      1.99043071657024      0.80462414693472
  N   -1.16645774253826     -0.92142827985885     -0.05374130328004
  H   -1.92588637910932     -0.91840196345452     -0.72584926028252
  H   -0.73037813884665     -1.83588377662993     -0.07756847811030
