13
Coordinates from ORCA-job run
  C   0.87699302725835      0.11703284906036      0.56885952610637
  C   -0.22457795586302      0.05447036418717     -0.50234584088833
  Br  2.20149058272645      1.47879167085043      0.14695770926509
  H   0.21016765717282     -0.07700942080488     -1.49308984149431
  H   0.42722263242264      0.40400497192910      1.52239161266694
  C   1.51139733111079     -1.18744878960756      0.67443343802655
  N   1.98292537046696     -2.26242108431763      0.72836648764509
  N   -0.90429428289465      1.39908886773576     -0.51701244886732
  O   -0.94095676081217      2.01296706066471     -1.57526689897823
  O   -1.39650103362578      1.74750615602593      0.55379271893527
  N   -1.24012889379160     -0.92078318542721     -0.26449835283340
  H   -0.94439285404225     -1.84731815395534     -0.53762954849865
  H   -1.55834482012854     -0.91688130634085      0.69604143891494
