13
Coordinates from ORCA-job run
  C   0.79836322862938     -0.61905738778080      0.41995571136210
  C   -0.37766030667814     -0.07935776994140     -0.41157549703441
  Br  0.47985118719690     -0.60701393722002      2.34303187351027
  H   -0.15056038957067     -0.27945512341791     -1.46214961126747
  H   0.88657359939616     -1.67875745929851      0.16661054981349
  C   2.05647790258714      0.03861133687572      0.09997929998937
  N   3.07400264306934      0.53177389909000     -0.21924256243083
  N   -0.42794900822914      1.44542387034122     -0.35392652359623
  O   0.08481788818674      2.00841669720890      0.60857124116943
  O   -1.02233244732787      1.97817582571210     -1.28194281922784
  N   -1.66282792953742     -0.58530220767828     -0.09230711112941
  H   -1.77100038324735     -0.82486806488133      0.88266298980739
  H   -1.96675598447507     -1.32758967900969     -0.70066754096585
