13
Coordinates from ORCA-job run
  C   0.80169977992987     -0.05513983097413      0.67858957284222
  C   -0.17472304486859      0.21764374985653     -0.47783251262693
  Br  2.05212100897911      1.41708138938456      0.91381310383505
  H   0.36931569936480      0.45675944636465     -1.39145873662050
  H   0.23448276506379     -0.13452125222079      1.60907963603417
  C   1.52139054813269     -1.29030983907281      0.41099279745710
  N   2.06663239135098     -2.29903120141746      0.15391187939818
  N   -0.95379854039957      1.45561290201693     -0.11660019189061
  O   -1.57967654002112      1.38974980535695      0.93898062435807
  O   -0.93001879997085      2.39777146027139     -0.89753322504187
  N   -1.12966993802055     -0.81725390959311     -0.71631038814559
  H   -1.54734930595223     -1.15728200113356      0.14048532172547
  H   -0.73240602358835     -1.58108071883914     -1.24511788132476
