13
Coordinates from ORCA-job run
  C   0.92577682720789     -0.02355121189262      0.59608681752091
  C   -0.17762831610462      0.02233454186425     -0.46151147878794
  Br  2.20804810296446      1.41559848392880      0.32608713664687
  H   0.23900169153279     -0.03854695612871     -1.46698473669280
  H   0.48333351660411      0.14309963253379      1.58119229000664
  C   1.60881416629713     -1.30673144485249      0.55347231997499
  N   2.17771491208422     -2.33380917321358      0.52256353034686
  N   -0.82360192979259      1.40101228237509     -0.37812395960935
  O   -1.31185380108443      1.69205724038665      0.71223875904703
  O   -0.85583588933399      2.08025026072965     -1.39859193300969
  N   -1.10535795504680     -1.02544191015224     -0.22295188977119
  H   -1.74407640658259     -1.15350447953608     -0.99654646299419
  H   -1.62433491874556     -0.87176726604253      0.63306960732188
