13
Coordinates from ORCA-job run
  C   1.04928570359267     -0.56065851636448      0.05943225628210
  C   -0.41534319094393     -0.38101948494623     -0.35560849871382
  Br  1.35944228976648     -2.37701461926462      0.67275163580963
  H   -0.66361542219231     -1.13113364853183     -1.10864411678966
  H   1.69151436900956     -0.41491381358287     -0.80928629562108
  C   1.39820201707752      0.39239142310863      1.10405527948172
  N   1.63066416202585      1.18478958468291      1.94036624856744
  N   -0.43455153491448      0.95436153153423     -1.14946055400316
  O   -1.09966431966153      1.87681402439009     -0.69283694953730
  O   0.23008710284336      0.97153147579332     -2.18129428189978
  N   -1.30525081357620     -0.42426505486482      0.72884386029040
  H   -1.17073192635358      0.35076966828241      1.36633806793808
  H   -2.26903843667340     -0.44265257023673      0.42734334819545
