13
Coordinates from ORCA-job run
  C   1.01496048807588     -0.57402066789253     -0.07015278147335
  C   -0.43586316098838     -0.20172352816416     -0.36780980691610
  Br  1.09349009875406     -2.46947445065883      0.39707277985375
  H   -0.78247757375887     -0.81526341935880     -1.21432393427035
  H   1.61850638600958     -0.46438723115639     -0.96931440614194
  C   1.57266893224474      0.23373929571871      1.00425496094495
  N   2.05227378229924      0.89587581785833      1.84740800068583
  N   -0.45935900137753      1.21421131959207     -0.92326836927480
  O   0.52667950305697      1.58292081189500     -1.55364209582214
  O   -1.49451700799107      1.84771861163092     -0.76283687196197
  N   -1.23812479913956     -0.22135589242659      0.81494548630864
  H   -2.16401588207712      0.13540129064810      0.61990723421732
  H   -1.30522176510795     -1.16364195768582      1.17675980385014
