13
Coordinates from ORCA-job run
  C   0.79508323281336     -0.51198165178554      0.48631450760185
  C   -0.39272408031847     -0.15193856434718     -0.44079493469324
  Br  0.48089872117835      0.04232676607174      2.32842316679844
  H   -0.11403510862618     -0.46775606143684     -1.44894661725021
  H   0.84705367610614     -1.60329130501943      0.51920222836255
  C   2.07478095531718      0.00576206346863      0.02464214973658
  N   3.12191288327188      0.38172317996372     -0.35393583804215
  N   -0.49196002372240      1.35362033706502     -0.51473632622794
  O   -1.30324270117223      1.89533562909938      0.22600988620309
  O   0.28319677856468      1.90729840922967     -1.29036270978336
  N   -1.66376267484999     -0.68292200274585     -0.09782300106639
  H   -1.91152299275079     -0.49595327454923      0.86443765830800
  H   -1.72467866581152     -1.67022352501410     -0.30243016994721
