13
Coordinates from ORCA-job run
  C   0.88885101140289     -0.53068776334434      0.45599915756787
  C   -0.34812486644478     -0.22916706453510     -0.39765685191643
  Br  0.64682623050645      0.09387539957367      2.28997571291803
  H   -0.10433989967942     -0.45982356428905     -1.43828372666352
  H   0.95554637672288     -1.61817677059291      0.52417695582666
  C   2.13354628040948     -0.00566170272667     -0.08408647950334
  N   3.16615799781516      0.34930192509766     -0.51751097547794
  N   -0.57648675238628      1.29289468720345     -0.40397736767819
  O   -1.58109933551480      1.71367337448163      0.15841026649984
  O   0.27791067737629      1.96008586419978     -0.97722938344644
  N   -1.45862203812895     -0.98446233793331      0.03805996359839
  H   -1.76433525275478     -0.68555480901347      0.95578599579396
  H   -2.23483042932412     -0.89529723812133     -0.60366326751890
