13
Coordinates from ORCA-job run
  C   0.91554153688986     -0.05215470373427      0.60957032225414
  C   -0.17255947434911      0.09694378979574     -0.45451592178597
  Br  2.05323119826847      1.52556836492139      0.66731931196834
  H   0.26173282894440      0.27680638859446     -1.43802842587368
  H   0.44512978914298     -0.12490395518130      1.59321813280239
  C   1.72099946612762     -1.23324801182220      0.34210149757860
  N   2.38476900797997     -2.17926298909237      0.13266173482316
  N   -0.95363075260895      1.36392157919417     -0.12327721473974
  O   -1.48150152996054      1.38580780875024      0.98710673956937
  O   -1.03876847121523      2.22698605249303     -0.99017605701333
  N   -0.99394408903671     -1.06066174334327     -0.45684716739899
  H   -1.53874204650549     -1.13047838284948      0.39395133758759
  H   -1.60325746367728     -1.09632419772614     -1.26308428977187
