13
Coordinates from ORCA-job run
  C   1.05066287281163      0.10341978510628      0.38043159268545
  C   -0.27993298815849      0.06893806120389     -0.36434422580201
  Br  2.29560024740491      1.29707389702711     -0.51667687173463
  H   -0.11626411645953     -0.06329002780000     -1.44004008320896
  H   0.88357538362281      0.50374174380263      1.38121524574479
  C   1.61313945193890     -1.23641655089495      0.44530771090902
  N   2.01345915882260     -2.34061852339972      0.48377730669732
  N   -0.95402065859790      1.41789994013166     -0.24676030543814
  O   -0.70875093177141      2.11457724088416      0.72968997803579
  O   -1.76042933580063      1.66710002272724     -1.13930501491750
  N   -1.18007528041933     -0.86120156451192      0.26993820254280
  H   -0.79427070545847     -1.79800124731239      0.24709975450904
  H   -2.06169309793509     -0.87322277696399     -0.23133329002296
