13
Coordinates from ORCA-job run
  C   0.89463207744506     -0.53055855094881      0.44527078259078
  C   -0.34138867158631     -0.22254744780842     -0.40714619482696
  Br  0.62981634678952      0.03005063420655      2.29685154152684
  H   -0.08730623200808     -0.41664095629737     -1.45276622109722
  H   0.97928895375430     -1.61845630839636      0.47898217289654
  C   2.13382648554497      0.03301514278598     -0.06812159399321
  N   3.16299062350071      0.42186635705825     -0.48025484831568
  N   -0.59547005631672      1.29484961659046     -0.36837642017631
  O   -1.60977126516484      1.68098246748844      0.20165116601319
  O   0.24890685638914      1.99385639124545     -0.91817130034322
  N   -1.44217449671882     -1.00929137007938     -0.00302006785695
  H   -1.75881631322817     -0.74398110497214      0.92140089773799
  H   -2.21553430840076     -0.91214487087265     -0.64729991415579
