13
Coordinates from ORCA-job run
  C   0.92767887931130     -0.09334503980830      0.62374778545095
  C   -0.19171210505145      0.21391034392706     -0.36550320397169
  Br  2.28574340567730      1.29600248817749      0.55805727777733
  H   0.22203783149348      0.49247780363069     -1.34147675796033
  H   0.51521573532582     -0.09396992538872      1.63340343182974
  C   1.52506206311265     -1.38107603731399      0.30694792460568
  N   1.95930345136664     -2.43413495306001      0.01811632911580
  N   -0.94058751410935      1.44559130352138      0.09348963016136
  O   -0.96056296050968      1.71019177243519      1.28865306990817
  O   -1.53259598679663      2.04709630407719     -0.79909811813862
  N   -1.16771523241571     -0.84669302103868     -0.35823299002991
  H   -0.73991984501110     -1.72329290877339     -0.63333773084080
  H   -1.90194772239327     -0.63375813038592     -1.02476664790769
