13
Coordinates from ORCA-job run
  C   0.99420503832131     -0.61454844531334      0.00147121850061
  C   -0.43226016002514     -0.21210954312486     -0.36622053350874
  Br  0.98649579761095     -2.47412559031332      0.60175411024783
  H   -0.77794825772193     -0.86902735801813     -1.17977618166142
  H   1.62721207438284     -0.59112167338907     -0.88374438883192
  C   1.55209987226664      0.24687762282457      1.03283521297224
  N   2.03182149558209      0.95226972078439      1.84007735155909
  N   -0.38466359192423      1.16312051756451     -1.01549467890257
  O   0.63284436919595      1.45155539413193     -1.63766078654426
  O   -1.39782950395960      1.84487871700348     -0.92910920683689
  N   -1.26890996079614     -0.12177077369817      0.78949037359324
  H   -1.39209032955198     -1.03659532757370      1.20369726592478
  H   -2.17097684338078      0.26259673912171      0.54168024348803
