13
Coordinates from ORCA-job run
  C   1.06565837605751     -0.52639457095129      0.07929888294677
  C   -0.37762615065499     -0.36442729208074     -0.41068014581317
  Br  1.41148510186041     -2.37572282744336      0.56081179206426
  H   -0.55115564204021     -1.05746896016706     -1.23584456118629
  H   1.75263953900970     -0.28550079962874     -0.73202743838883
  C   1.31234020313141      0.34698135687803      1.21841774524075
  N   1.46032410104809      1.07346315706220      2.13020183693507
  N   -0.40288496552457      1.03099930448972     -1.09475945028629
  O   -1.13165585868923      1.88821752331162     -0.60940367871147
  O   0.32254232367810      1.15706848953585     -2.07685921229702
  N   -1.32787416330679     -0.52781048504676      0.60899031754478
  H   -2.27052618167944     -0.55712513603484      0.24754529910423
  H   -1.26326668288998      0.19672024007538      1.31330861284719
