13
Coordinates from ORCA-job run
  C   0.90283248779630      0.01362933616585      0.53769301473476
  C   -0.23337950751997      0.06318953552351     -0.49704154822338
  Br  2.39320465658775      1.14924334575308      0.01152724720774
  H   0.14210302273714     -0.17746383790674     -1.49150568245710
  H   0.53258483100922      0.40452682857272      1.48847891175514
  C   1.34934266767728     -1.36244834569669      0.68785281844750
  N   1.66762439965948     -2.48984681228374      0.77952634138771
  N   -0.71061266496838      1.49079601877088     -0.56249805900463
  O   -1.10823458863345      1.95827599687028      0.50223727828727
  O   -0.69481990618060      2.05249603912690     -1.64992786409687
  N   -1.37021177324912     -0.74056465650204     -0.17958729935090
  H   -1.64591280839921     -0.64959157411945      0.78986568572979
  H   -1.22352081651644     -1.71124187427455     -0.41762084441705
