13
Coordinates from ORCA-job run
  C   0.99488742892122     -0.52135127203317      0.02645391124050
  C   -0.43424467554331     -0.23473964030162     -0.49750816816629
  Br  1.13862293368815     -2.41349024458172      0.46511878571421
  H   -0.60298366099303     -0.86715643590887     -1.36994992806230
  H   1.72615826946317     -0.33057671217784     -0.76120945395413
  C   1.28278975794670      0.28285056553217      1.20332707191325
  N   1.46210100260214      0.94812789631771      2.15550195517519
  N   -0.35210344315615      1.18246511914916     -1.03767469859165
  O   -0.84790248911530      2.07753958976019     -0.36532042559054
  O   0.26552069382676      1.31009680587803     -2.09200671816608
  N   -1.51917737090900     -0.33261603123817      0.40529621531053
  H   -1.37188550978075      0.19523307332970      1.25575407679288
  H   -1.74178293695060     -1.29538271372558      0.61221737638443
