18

C	0.0	0.0	0.0
C	-0.455694	-0.19018	-1.474849
Cl	1.781344	0.0	0.0
H	0.361657	0.143664	-2.115605
N	-0.283368	1.454442	0.475582
O	-1.041634	1.593107	1.422263
O	0.317224	2.344334	-0.107747
C	-0.597922	-0.967796	0.975126
H	-1.686066	-0.839676	0.94383
H	-0.232023	-0.761261	1.981217
H	-0.321419	-1.979894	0.685092
N	-1.612911	0.713677	-2.021302
O	-1.812996	1.818389	-1.555887
O	-2.132313	0.25072	-3.032152
N	-0.736328	-1.565837	-1.706258
H	-0.844923	-1.704806	-2.702806
H	-1.639841	-1.772113	-1.279315
Cl	-3.905876	0.0	0.0
