18

C	0.0	0.0	0.0
C	-0.4477	0.074847	-1.507138
Cl	1.796695	0.0	0.0
H	0.248691	-0.602758	-2.005883
N	-0.395425	1.20455	0.849977
O	-0.356145	2.303546	0.310329
O	-0.651986	0.988543	2.02835
C	-0.548489	-1.256011	0.624741
H	-0.283077	-2.111014	-0.001172
H	-1.637093	-1.167306	0.68982
H	-0.131831	-1.396561	1.620262
N	-0.12479	1.428024	-2.145842
O	1.052721	1.625578	-2.446571
O	-1.052599	2.19499	-2.348477
N	-1.76818	-0.2711	-1.846537
H	-1.891912	-1.272615	-1.858078
H	-2.51605	0.125143	-1.265674
Cl	-4.255181	0.0	0.0
