18

C	0.0	0.0	0.0
C	-0.617967	0.578397	-1.345358
Cl	1.775839	0.0	0.0
H	-0.959585	-0.297451	-1.897922
N	-0.340054	0.947227	1.153474
O	-0.794305	0.459247	2.181149
O	-0.083299	2.134057	0.973208
C	-0.563449	-1.367664	0.271823
H	-0.204476	-1.753246	1.224277
H	-1.656139	-1.291186	0.293471
H	-0.254689	-2.034762	-0.535643
N	0.491385	1.146997	-2.209167
O	0.77702	2.33018	-2.064028
O	1.021851	0.375482	-3.005901
N	-1.665469	1.520932	-1.297403
H	-2.53348	1.083303	-0.957129
H	-1.423371	2.316202	-0.723233
Cl	-4.077711	0.0	0.0
