17

C	0.0	0.0	0.0
C	-0.250825	-0.26553	-1.534275
Cl	1.787634	0.0	0.0
H	0.337949	0.49906	-2.044807
C	-0.417043	1.380772	0.488051
H	-1.509751	1.365567	0.466973
H	-0.023788	1.537766	1.49654
H	0.007262	2.135143	-0.179119
C	-0.479541	-1.10971	0.815391
N	-0.623559	-2.080083	1.464409
N	-1.641365	-0.029493	-2.089803
O	-1.890115	1.13396	-2.391494
O	-2.314885	-1.004039	-2.384345
N	0.149519	-1.5665	-2.00714
H	1.07413	-1.775336	-1.655574
H	-0.506242	-2.253336	-1.653136
F	-2.515766	0.0	0.0
