17

C	0.0	0.0	0.0
C	-0.612838	-0.112428	-1.391349
Cl	1.798226	0.0	0.0
H	-1.720633	-0.163006	-1.09811
C	-0.466731	1.309063	0.638996
H	-0.100478	2.144801	0.045021
H	-0.080364	1.369669	1.658816
H	-1.561037	1.242614	0.62114
C	-0.395784	-1.100865	0.890088
N	-0.560096	-1.911344	1.724268
N	-0.198622	-1.422594	-2.036432
O	0.373329	-1.376133	-3.130202
O	-0.481104	-2.462759	-1.448348
N	-0.293415	1.009915	-2.20254
H	-0.971358	1.087052	-2.947977
H	0.622947	0.89776	-2.619791
F	-2.834339	0.0	0.0
