16

C	-0.554418	-0.013712	-1.422171
C	0.0	0.0	0.0
Cl	0.132224	-1.353525	-2.356722
H	1.091049	0.0	0.0
N	-1.974358	-0.104568	-1.46897
H	-2.351517	0.73587	-1.03202
H	-2.264666	-0.094267	-2.44038
N	-0.08038	1.267649	-2.175782
O	0.999361	1.749725	-1.855049
O	-0.83144	1.676233	-3.073811
N	-0.407322	-1.21564	0.679677
H	0.215654	-1.352127	1.467609
H	-1.366861	-1.164465	0.993007
C	-0.49278	1.227968	0.634021
N	-0.916737	2.197727	1.153073
H	2.653004	0.0	0.0
