16

C	-0.589589	0.003344	-1.4003
C	0.0	0.0	0.0
Cl	0.333588	-1.22087	-2.397642
H	1.094429	0.0	0.0
N	-1.978074	-0.218191	-1.392655
H	-2.33104	-0.413313	-2.320932
H	-2.145982	-0.998379	-0.763332
N	-0.35036	1.320952	-2.128827
O	0.401995	2.139845	-1.615147
O	-0.945459	1.451387	-3.195249
N	-0.390283	-1.294052	0.616579
H	0.467876	-1.850637	0.593563
H	-0.59524	-1.129988	1.596059
C	-0.521224	1.104418	0.786755
N	-0.905734	1.954548	1.502953
H	2.619965	0.0	0.0
