16

C	-0.405334	-0.008627	-1.46739
C	0.0	0.0	0.0
Cl	-2.185383	0.008456	-1.665963
H	1.09461	0.0	0.0
N	0.156079	1.041194	-2.26126
H	1.153209	1.089206	-2.013598
H	-0.285052	1.91712	-2.008697
N	0.138084	-1.322942	-2.072769
O	1.361748	-1.294141	-2.253439
O	-0.633144	-2.232709	-2.379553
N	-0.448915	-1.203955	0.657994
H	-1.427158	-1.145858	0.935005
H	0.137706	-1.366904	1.476555
C	-0.453304	1.25147	0.596751
N	-0.830747	2.248617	1.099512
H	2.640763	0.0	0.0
