16

C	-0.581693	-0.010365	-1.406792
C	0.0	0.0	0.0
Cl	0.360768	-1.231412	-2.38861
H	1.094215	0.0	0.0
N	-1.965746	-0.251621	-1.403733
H	-2.113351	-1.056203	-0.80369
H	-2.308562	-0.420258	-2.341226
N	-0.350098	1.300805	-2.137855
O	0.416339	2.112064	-1.635904
O	-0.960788	1.436566	-3.196491
N	-0.385095	-1.289154	0.624105
H	0.488929	-1.814602	0.685595
H	-0.685373	-1.117052	1.576836
C	-0.521946	1.112064	0.772413
N	-0.915517	1.970787	1.474375
H	2.627746	0.0	0.0
