16

C	-0.278615	0.109654	-1.501597
C	0.0	0.0	0.0
Cl	-1.932811	0.73076	-1.928099
H	1.09501	0.0	0.0
N	0.710619	0.922589	-2.042859
H	0.749407	0.891292	-3.051696
H	1.62189	0.698904	-1.607021
N	-0.266756	-1.359095	-2.065729
O	-1.287228	-2.029319	-2.020949
O	0.823303	-1.733746	-2.486898
N	-0.423752	-1.233756	0.616857
H	-1.348326	-1.163606	1.021102
H	0.250714	-1.465879	1.337144
C	-0.439159	1.213197	0.681913
N	-0.792528	2.139019	1.316001
H	2.657474	0.0	0.0
