16

C	-0.601593	0.00023	-1.395734
C	0.0	0.0	0.0
Cl	0.379421	-1.148923	-2.428262
H	1.094257	0.0	0.0
N	-1.970527	-0.309258	-1.379648
H	-2.067797	-1.140585	-0.80792
H	-2.321844	-0.461632	-2.316989
N	-0.439909	1.337422	-2.099848
O	-1.113919	1.490796	-3.115385
O	0.345588	2.146133	-1.624687
N	-0.347045	-1.304391	0.60926
H	0.546418	-1.77805	0.728393
H	-0.731562	-1.157646	1.533728
C	-0.518162	1.097535	0.796033
N	-0.892721	1.964319	1.496786
H	2.611992	0.0	0.0
