12

C	0.0	0.0	0.0
C	-0.529092	-0.027525	-1.430688
F	1.382872	0.0	0.0
H	0.294872	-0.392773	-2.052894
H	-0.35974	0.887247	0.521573
H	-1.368122	-0.725203	-1.48595
C	-0.373122	-1.20973	0.76371
N	-0.531101	-2.174671	1.411969
N	-0.897959	1.331679	-1.830164
H	-1.068737	1.331323	-2.830351
H	-1.809177	1.481264	-1.395237
Br	-3.578787	0.0	0.0
