12

C	0.0	0.0	0.0
C	-0.53288	0.045983	-1.42196
F	1.378929	0.0	0.0
H	0.152033	0.698239	-1.97452
H	-0.340822	0.879595	0.552624
H	-1.526461	0.497861	-1.379204
C	-0.409201	-1.207987	0.740151
N	-0.592038	-2.176075	1.377048
N	-0.528736	-1.290488	-2.021403
H	-0.637156	-1.188748	-3.023813
H	-1.374562	-1.750885	-1.693487
Br	-3.684566	0.0	0.0
