12

C	0.0	0.0	0.0
C	-0.453174	-0.163569	-1.434263
F	1.39036	0.0	0.0
H	-0.170163	0.758336	-1.966165
H	-0.365824	0.931508	0.434519
H	-1.542809	-0.236805	-1.419876
C	-0.391398	-1.146725	0.839863
N	-0.556085	-2.089542	1.518184
N	0.14537	-1.374693	-1.98387
H	-0.359476	-1.66695	-2.807731
H	1.109892	-1.205289	-2.237701
Br	-3.698695	0.0	0.0
