12

C	0.0	0.0	0.0
C	-0.439682	0.60366	-1.352836
F	1.383797	0.0	0.0
H	-0.248736	1.680808	-1.293878
H	-0.356467	0.571108	0.859827
H	0.278048	0.193932	-2.072449
C	-0.419853	-1.406952	0.110517
N	-0.606331	-2.565996	0.128745
N	-1.774515	0.368862	-1.829363
H	-1.947074	-0.621596	-1.949946
H	-2.507699	0.67948	-1.193725
Br	-4.576972	0.0	0.0
