19

C	-0.467939	-0.062658	-1.481122
C	0.0	0.0	0.0
Cl	-0.11115	1.571934	-2.175139
H	1.090271	0.0	0.0
C	0.366859	-1.065466	-2.26343
H	1.429382	-0.87383	-2.096084
H	0.14522	-2.079824	-1.925108
H	0.135837	-0.988062	-3.329026
C	-1.960914	-0.29812	-1.64822
H	-2.227291	-1.301049	-1.307932
H	-2.227761	-0.205401	-2.703299
H	-2.554521	0.422818	-1.081428
N	-0.481433	-1.289473	0.629958
O	-1.577066	-1.265304	1.192754
O	0.215663	-2.294072	0.498887
N	-0.456971	1.082275	0.8091
H	-1.359449	1.43608	0.526152
H	0.231714	1.819437	0.765832
Cl	3.383292	0.0	0.0
