19

C	-0.341615	0.08649	-1.49953
C	0.0	0.0	0.0
Cl	-2.141763	0.254513	-1.724643
H	1.094657	0.0	0.0
C	0.316616	1.343708	-2.047286
H	-0.070539	2.237782	-1.556587
H	0.12616	1.427421	-3.119423
H	1.393979	1.273382	-1.866447
C	0.127239	-1.134004	-2.271541
H	-0.017292	-0.967251	-3.341904
H	1.190168	-1.284227	-2.061388
H	-0.415056	-2.033305	-1.981664
N	-0.502457	-1.308881	0.549907
O	-1.602891	-1.306814	1.099913
O	0.197764	-2.305771	0.379057
N	-0.459425	1.05625	0.838542
H	-1.351686	1.430705	0.548381
H	0.245723	1.774977	0.901749
Cl	3.347391	0.0	0.0
