19

C	-0.418286	-0.076686	-1.471381
C	0.0	0.0	0.0
Cl	-2.240956	-0.115019	-1.567662
H	1.101485	0.0	0.0
C	0.063958	1.19548	-2.150154
H	-0.377175	2.071895	-1.681125
H	-0.194901	1.16926	-3.211506
H	1.151237	1.246574	-2.037398
C	0.124584	-1.296833	-2.19435
H	-0.311717	-2.223504	-1.828279
H	-0.089508	-1.203409	-3.261992
H	1.206077	-1.334741	-2.035922
N	-0.428276	-1.266276	0.739575
O	-1.330814	-1.165682	1.573829
O	0.152816	-2.31332	0.467852
N	-0.475003	1.174379	0.647271
H	0.103218	1.360886	1.456095
H	-1.433406	1.046765	0.946956
Cl	3.3237	0.0	0.0
