19

C	-0.522035	-0.168814	-1.448607
C	0.0	0.0	0.0
Cl	-0.272919	1.44992	-2.230206
H	1.104812	0.0	0.0
C	0.298748	-1.154466	-2.266463
H	1.361652	-0.933478	-2.14969
H	0.019168	-1.070793	-3.319796
H	0.11821	-2.173262	-1.927789
C	-2.012919	-0.451647	-1.468835
H	-2.3911	-0.416208	-2.49261
H	-2.536638	0.290176	-0.863354
H	-2.205899	-1.450938	-1.06644
N	-0.402324	-1.221313	0.789315
O	-0.024121	-2.311973	0.371604
O	-1.085356	-1.07501	1.805376
N	-0.573897	1.167429	0.641595
H	0.111495	1.908169	0.557329
H	-0.686115	0.960223	1.62535
Cl	3.345238	0.0	0.0
