19

C	-0.537641	0.040079	-1.444638
C	0.0	0.0	0.0
Cl	-0.251832	-1.549865	-2.247093
H	1.090877	0.0	0.0
C	-2.029754	0.322599	-1.52109
H	-2.236617	1.297161	-1.074054
H	-2.606884	-0.442608	-1.000041
H	-2.341777	0.34492	-2.56754
C	0.280631	1.08322	-2.191755
H	0.115026	2.057873	-1.729728
H	1.343042	0.841338	-2.122588
H	-0.025167	1.117858	-3.240516
N	-0.480401	-1.25616	0.705796
O	-1.615085	-1.212301	1.201357
O	0.256957	-2.231971	0.7403
N	-0.429602	1.177583	0.704243
H	0.251489	1.386993	1.423924
H	-1.333537	1.016419	1.130533
Cl	3.377469	0.0	0.0
