19

C	-0.338336	-0.066935	-1.500684
C	0.0	0.0	0.0
Cl	-2.134638	0.095611	-1.751026
H	1.102009	0.0	0.0
C	0.334885	1.11771	-2.176649
H	1.411373	1.054307	-1.989087
H	0.143237	1.092158	-3.251758
H	-0.040525	2.062263	-1.780889
C	0.119726	-1.368605	-2.134149
H	1.179991	-1.50646	-1.904924
H	-0.020697	-1.317925	-3.216623
H	-0.434033	-2.224884	-1.750618
N	-0.503689	-1.247589	0.677898
O	0.212304	-2.247159	0.640325
O	-1.621843	-1.199924	1.189484
N	-0.461633	1.13634	0.724386
H	-1.336111	1.500806	0.37634
H	0.257452	1.842893	0.749535
Cl	3.346358	0.0	0.0
