18

C	-0.421888	-0.014895	-1.485916
C	0.0	0.0	0.0
Cl	0.245093	1.457191	-2.309495
H	1.095656	0.0	0.0
C	0.164351	-1.172011	-2.16827
N	0.539397	-2.129186	-2.73793
C	-1.927793	-0.01972	-1.735994
H	-2.370332	-0.929401	-1.322276
H	-2.386865	0.849114	-1.258438
H	-2.144307	0.025325	-2.805139
C	-0.522754	-1.2345	0.719847
H	-0.280782	-2.157818	0.184617
H	-1.605602	-1.196618	0.899036
H	-0.021739	-1.269463	1.6887
N	-0.397045	1.204891	0.716478
H	0.332763	1.890925	0.572034
H	-1.27703	1.592404	0.395241
F	2.633304	0.0	0.0
