18

C	-0.550758	-0.010923	-1.435384
C	0.0	0.0	0.0
Cl	0.255733	1.302884	-2.378069
H	1.096793	0.0	0.0
C	-0.231099	-1.269346	-2.113235
N	-0.01882	-2.301531	-2.633463
C	-2.05321	0.237586	-1.510226
H	-2.590834	-0.579231	-1.020039
H	-2.387829	0.30797	-2.547135
H	-2.253545	1.173467	-0.989214
C	-0.467453	-1.21039	0.795472
H	-0.25947	-2.149016	0.275404
H	0.103325	-1.225193	1.72832
H	-1.539404	-1.176659	1.042497
N	-0.408655	1.261355	0.636035
H	0.451587	1.723614	0.907683
H	-0.938509	1.078732	1.480204
F	2.641881	0.0	0.0
