18

C	-0.234975	-0.060325	-1.51561
C	0.0	0.0	0.0
Cl	-1.927721	-0.581306	-1.979688
H	1.104256	0.0	0.0
C	-0.075768	1.282538	-2.082125
N	0.065724	2.362667	-2.523038
C	0.79497	-0.995551	-2.146463
H	1.761731	-0.718981	-1.695859
H	0.560955	-2.028176	-1.877955
H	0.79573	-0.908037	-3.234675
C	-0.516539	-1.225907	0.724247
H	-0.2257	-2.148274	0.219334
H	-1.607729	-1.201847	0.813475
H	-0.074461	-1.251278	1.725104
N	-0.601164	1.212837	0.571336
H	-0.691002	1.068614	1.572092
H	0.080489	1.959017	0.4632
F	2.721465	0.0	0.0
