18

C	-0.534851	-0.072414	-1.436987
C	0.0	0.0	0.0
Cl	0.210491	1.267851	-2.402618
H	1.1008	0.0	0.0
C	-0.130502	-1.323661	-2.082599
N	0.115425	-2.350257	-2.599788
C	-2.047369	0.084798	-1.537361
H	-2.311849	1.007318	-1.020449
H	-2.368938	0.129791	-2.581088
H	-2.542377	-0.762177	-1.052721
C	-0.470987	-1.184126	0.82898
H	-1.546766	-1.153034	1.05903
H	-0.242899	-2.135258	0.340605
H	0.08684	-1.166294	1.769556
N	-0.452968	1.276522	0.590511
H	-0.802045	1.099849	1.525149
H	0.388025	1.834445	0.693846
F	2.639816	0.0	0.0
