15
Coordinates from ORCA-job run
  C   1.03850421440376     -0.20533014789790      0.32271917449704
  C   -0.47897255261350     -0.20983037501452      0.26150654965968
  Br  1.70801628566348     -1.23173776789661      1.80427268061030
  H   -0.89100191905401      0.06703898008311      1.23150444157610
  H   1.48568047198475     -0.58864656025898     -0.59107865299835
  N   1.47794904235552      1.22582967509342      0.45524935450451
  O   2.17721336897542      1.66139044383890     -0.45556802871362
  O   1.06252129051402      1.85021534996602      1.42439308140861
  N   -0.91836854817221     -1.62061946818081      0.00799065169680
  O   -0.39432663249033     -2.19650756819222     -0.94273731402141
  O   -1.79080173876965     -2.07493545864563      0.74118042050325
  C   -1.01335154928148      0.66694049305140     -0.86058933627339
  H   -0.55586272943277      0.39777173337983     -1.81392759028248
  H   -2.09484616942751      0.53974670744771     -0.93807330424664
  H   -0.81335283465550      1.71767396322630     -0.64684212792041
