15
Coordinates from ORCA-job run
  C   0.82004920426639     -0.15170964780959      0.87561377711863
  C   -0.59158741481192     -0.28517247733281      0.30760815341914
  Br  0.82384045557237      0.84201087821097      2.51521725441028
  H   -1.23784320326323     -0.60128877214257      1.12985311661369
  H   1.25228467692776     -1.13130201577938      1.06903990009043
  N   1.68931823387742      0.49204990828405     -0.18303824584983
  O   2.07067966394049      1.64473728269294     -0.05762799824643
  O   1.87817085209745     -0.24794274399368     -1.14615239245291
  N   -0.60453602138093     -1.48162811750981     -0.62883320536267
  O   -1.02308708197638     -1.32200464687921     -1.76864337946807
  O   -0.21877593906225     -2.53911656640043     -0.14073611216634
  C   -1.11295562014612      0.96200281130541     -0.36857477239530
  H   -2.15240968697000      0.82342145052334     -0.66293204669520
  H   -1.05204670064713      1.80378316915938      0.32313113235963
  H   -0.53910141842393      1.19215948767139     -1.26592518137505
