15
Coordinates from ORCA-job run
  C   1.07263834038740     -0.21708960782014      0.17017804337941
  C   -0.44044689781380     -0.24329917293364      0.29685936581801
  Br  1.92709544016993     -1.37198107189082      1.44820572006343
  H   -0.73018418133262     -0.07337779210252      1.33344776593826
  H   1.40377218496937     -0.50238107174117     -0.82524691377022
  N   1.51709665680876      1.20162798300845      0.38854967570893
  O   1.22404445142159      1.71975845555253      1.45963062584347
  O   2.09263987350455      1.73710642422583     -0.55492342150832
  N   -0.90099340920626     -1.62975386515151     -0.04253028167642
  O   -1.68179682104641     -2.16509136331652      0.73763427662119
  O   -0.48962531848505     -2.10209600110783     -1.09965227867092
  C   -1.11664421480181      0.73064397590624     -0.65577521429080
  H   -0.78280099637398      0.56374892978445     -1.68115453639978
  H   -0.89514419588002      1.75855184669104     -0.36586772069688
  H   -2.19865091232167      0.59363233089562     -0.60835510635935
