15
Coordinates from ORCA-job run
  C   1.06364716819152     -0.20904498236235      0.22495345715930
  C   -0.45370926021976     -0.23442728530625      0.28373471964296
  Br  1.86037790298950     -1.32186928811645      1.57538132673392
  H   -0.79010863942366     -0.03102126760955      1.30001193936136
  H   1.44022037964816     -0.52351824800105     -0.74520213595410
  N   1.49649175101648      1.21684383562252      0.41933639628485
  O   2.11378777508397      1.72434103124623     -0.51321916802318
  O   1.15485934941935      1.76725203646492      1.45952557042682
  N   -0.89678947556957     -1.63228277845101     -0.03019579926866
  O   -1.70690291197940     -2.14656900299751      0.73413785791607
  O   -0.44136882065675     -2.13561229072207     -1.05455034353018
  C   -1.08653276960159      0.70640433212322     -0.72990852276717
  H   -0.70767245252356      0.50572188201569     -1.73330218699138
  H   -0.87762886983631      1.74364662603007     -0.46491519245751
  H   -2.16967112653838      0.57013540006358     -0.72578791853310
