15
Coordinates from ORCA-job run
  C   0.95999388117408     -0.21118550813058      0.51143386493904
  C   -0.52636588161710     -0.15107220329073      0.20410749904620
  Br  1.31837242275190     -1.06438462852618      2.19644209984136
  H   -1.06506359523383      0.26647051459045      1.05435873837272
  H   1.51601538340723     -0.73346110362006     -0.26314780806140
  N   1.46882227765452      1.20273479398557      0.53562029866904
  O   2.31254056681830      1.48541973553523     -0.31092041488825
  O   0.96384780914666      1.96451480216435      1.35178349007265
  N   -1.01512098182629     -1.56098734640700      0.05294971144288
  O   -0.38804059513793     -2.27949240447765     -0.72188918873033
  O   -2.02072511613489     -1.87359942123527      0.68225438879116
  C   -0.81971670849691      0.59844477226059     -1.08616768472683
  H   -0.58266935199868      1.65682755010162     -0.97079924420391
  H   -0.24033090869635      0.18614348374648     -1.91376427201510
  H   -1.88255920181072      0.51562696330318     -1.32126147854922
