17

C	0.0	0.0	0.0
C	-0.441953	0.040097	-1.465469
F	1.417614	0.0	0.0
H	-1.540855	0.062144	-1.369174
C	-0.349403	1.265851	0.6913
N	-0.480731	2.280132	1.267153
N	-0.516568	-1.101952	0.728752
H	-1.53723	-0.882847	0.763972
H	-0.435565	-1.890308	0.08972
N	-0.048654	-1.236383	-2.07017
H	0.886543	-1.158825	-2.454231
H	-0.684414	-1.454919	-2.826392
C	0.068414	1.260841	-2.220312
H	1.16377	1.274953	-2.239719
H	-0.2973	1.238771	-3.251826
H	-0.27951	2.188965	-1.75848
H	-3.04453	0.0	0.0
