17

C	0.0	0.0	0.0
C	-0.443546	0.005821	-1.465443
F	1.415911	0.0	0.0
H	-1.542013	0.031449	-1.367168
C	-0.351018	1.281675	0.663377
N	-0.474061	2.308881	1.218397
N	-0.513688	-1.086016	0.755687
H	-1.534469	-0.870848	0.78938
H	-0.431581	-1.88914	0.134542
N	-0.053262	-1.284385	-2.040801
H	0.878403	-1.216429	-2.434317
H	-0.69599	-1.523595	-2.784612
C	0.066827	1.208261	-2.248734
H	1.161618	1.223185	-2.268013
H	-0.282294	2.145916	-1.808842
H	-0.29835	1.162222	-3.279649
H	-3.047152	0.0	0.0
