17

C	0.0	0.0	0.0
C	-0.383596	-0.154359	-1.512165
F	1.387022	0.0	0.0
H	0.484047	0.292715	-2.013343
C	-0.308829	1.402015	0.430997
N	-0.446588	2.512026	0.79153
N	-0.564078	-0.993629	0.840183
H	-0.404656	-0.739974	1.811753
H	-1.587933	-0.907616	0.675136
N	-1.571641	0.529268	-1.981863
H	-2.349813	0.30066	-1.327344
H	-1.429119	1.531553	-1.893105
C	-0.45338	-1.62995	-1.883642
H	-0.509382	-1.704591	-2.972117
H	0.418504	-2.178603	-1.517523
H	-1.352691	-2.079213	-1.459793
H	-3.225428	0.0	0.0
