17

C	0.0	0.0	0.0
C	-0.447262	0.040356	-1.47345
F	1.386194	0.0	0.0
H	-1.543242	0.02342	-1.421889
C	-0.329376	1.275695	0.706607
N	-0.469286	2.286424	1.290309
N	-0.55409	-1.152082	0.621941
H	-1.591358	-0.974553	0.510167
H	-0.357833	-1.118869	1.619279
N	0.023143	-1.146539	-2.188639
H	-0.373743	-1.949682	-1.71213
H	1.027228	-1.211737	-2.043625
C	0.0291	1.295915	-2.182352
H	-0.424335	2.189721	-1.74831
H	-0.257702	1.230544	-3.233725
H	1.117864	1.39694	-2.126717
H	-2.995473	0.0	0.0
