17

C	0.0	0.0	0.0
C	-0.486181	-0.195758	-1.456227
F	1.41799	0.0	0.0
H	0.249277	0.369826	-2.043954
C	-0.325542	1.372821	0.456098
N	-0.445803	2.487378	0.804708
N	-0.521366	-0.933016	0.902129
H	-0.226501	-0.78461	1.854682
H	-0.4025	-1.887995	0.60911
N	-1.805976	0.301023	-1.750215
H	-2.550239	0.021594	-1.058036
H	-1.811473	1.31539	-1.738289
C	-0.392585	-1.666395	-1.850835
H	0.56749	-2.112429	-1.570016
H	-0.516094	-1.740093	-2.931903
H	-1.215349	-2.221024	-1.39388
H	-3.92081	0.0	0.0
