17

C	0.0	0.0	0.0
C	-0.325336	-0.154206	-1.533506
F	1.382523	0.0	0.0
H	0.470987	0.425245	-2.019082
C	-0.363603	1.384209	0.406261
N	-0.493705	2.519535	0.671238
N	-0.565378	-0.920703	0.924053
H	-0.424478	-1.859479	0.563115
H	-1.58719	-0.730611	0.885885
N	-1.600001	0.345092	-2.004306
H	-1.584794	1.357516	-1.950407
H	-2.343422	0.075861	-1.318636
C	-0.168044	-1.615712	-1.935199
H	-0.17535	-1.678003	-3.024372
H	0.76836	-2.046548	-1.561411
H	-1.015576	-2.205116	-1.568264
H	-3.256951	0.0	0.0
