18

C	-0.494733	-0.001784	-1.440695
C	0.0	0.0	0.0
F	-1.934905	0.047163	-1.401228
H	1.095775	0.0	0.0
C	-0.13574	1.234822	-2.171371
N	0.087395	2.214366	-2.778286
N	-0.05257	-1.110139	-2.187424
H	-0.496584	-1.151247	-3.094702
H	-0.171547	-1.976419	-1.683854
C	-0.455223	-1.266764	0.727026
H	-0.202336	-1.173604	1.785495
H	0.072002	-2.154901	0.368712
H	-1.534823	-1.419934	0.639574
C	-0.481287	1.248041	0.734237
H	-1.571358	1.270887	0.820045
H	-0.149126	2.158504	0.230057
H	-0.04666	1.258592	1.736237
Br	3.626117	0.0	0.0
