18

C	-0.310611	-0.098006	-1.492866
C	0.0	0.0	0.0
F	-1.641146	-0.508802	-1.698344
H	1.098783	0.0	0.0
C	-0.253997	1.231362	-2.16502
N	-0.207878	2.261521	-2.728591
N	0.554157	-1.060723	-2.09399
H	0.578591	-0.960503	-3.099841
H	1.496993	-0.958728	-1.720018
C	-0.480216	-1.264398	0.706353
H	-0.056294	-1.290603	1.713304
H	-0.151222	-2.157457	0.174499
H	-1.571329	-1.284743	0.78262
C	-0.547896	1.25808	0.653371
H	-0.334422	1.233096	1.725099
H	-1.633523	1.329688	0.522463
H	-0.08562	2.15953	0.246533
Br	3.57346	0.0	0.0
