18

C	-0.292711	0.031149	-1.500711
C	0.0	0.0	0.0
F	-0.108932	-1.275346	-2.025773
H	1.099297	0.0	0.0
C	-1.714972	0.336514	-1.799127
N	-2.84895	0.568638	-1.996916
N	0.554803	0.969942	-2.129559
H	0.509236	0.887057	-3.137318
H	1.512507	0.828672	-1.805393
C	-0.553175	-1.241524	0.677413
H	-0.275474	-1.22799	1.73442
H	-0.14525	-2.148107	0.232091
H	-1.647245	-1.276926	0.612679
C	-0.475854	1.282796	0.673168
H	-0.09477	2.161771	0.15171
H	-0.100322	1.309904	1.699204
H	-1.569849	1.338228	0.704687
Br	3.603104	0.0	0.0
