18

C	-0.463577	-0.031403	-1.448592
C	0.0	0.0	0.0
F	0.02476	1.071791	-2.129898
H	1.096623	0.0	0.0
C	0.068071	-1.222982	-2.168692
N	0.346779	-2.199787	-2.758953
N	-1.902737	0.036	-1.556506
H	-2.322191	-0.662986	-0.957021
H	-2.185422	-0.151263	-2.511738
C	-0.443359	-1.245494	0.764928
H	0.053946	-1.251964	1.73729
H	-1.525214	-1.267324	0.948132
H	-0.150853	-2.164626	0.250312
C	-0.464855	1.281442	0.684601
H	-0.155951	2.154504	0.108958
H	0.009371	1.345257	1.667074
H	-1.550955	1.312087	0.809646
Br	3.610758	0.0	0.0
