13

C	-0.442288	0.033741	-1.440766
C	0.0	0.0	0.0
F	-1.813898	0.196751	-1.536078
H	1.093597	0.0	0.0
H	0.040329	0.817868	-2.022379
H	-0.382947	-0.910442	0.464403
N	-0.146659	-1.256746	-2.152344
O	0.525567	-1.193685	-3.180381
O	-0.629592	-2.276682	-1.6657
N	-0.445521	1.179774	0.733266
H	-1.370245	1.463282	0.438767
H	0.204083	1.93862	0.575795
Br	3.583827	0.0	0.0
