13

C	-0.538648	0.102158	-1.405316
C	0.0	0.0	0.0
F	-1.844395	0.52764	-1.406557
H	1.094599	0.0	0.0
H	0.049924	0.7657	-2.040032
H	-0.306654	0.930524	0.497207
N	-0.5064	-1.24853	-2.071418
O	-1.564399	-1.835652	-2.25501
O	0.612854	-1.649192	-2.363932
N	-0.495183	-1.203826	0.659088
H	-1.253391	-0.997866	1.292002
H	0.262196	-1.620248	1.18144
Br	3.615003	0.0	0.0
