13

C	-0.405123	-0.017806	-1.462579
C	0.0	0.0	0.0
F	-0.08101	1.147256	-2.081659
H	1.093868	0.0	0.0
H	0.024132	-0.855512	-2.010702
H	-0.341818	-0.930495	0.461113
N	-1.903286	-0.18427	-1.566502
O	-2.594805	0.809932	-1.769939
O	-2.321297	-1.323904	-1.370503
N	-0.4865	1.147315	0.74248
H	-1.479812	1.291631	0.614407
H	-0.004748	1.975259	0.42117
Br	3.648381	0.0	0.0
