13

C	-0.503232	0.085321	-1.412472
C	0.0	0.0	0.0
F	-1.879795	0.133463	-1.43764
H	1.091404	0.0	0.0
H	-0.106376	0.942793	-1.950353
H	-0.359261	-0.939291	0.436516
N	-0.122846	-1.139989	-2.196789
O	-0.641828	-2.198224	-1.84672
O	0.674073	-0.992418	-3.120462
N	-0.450766	1.203838	0.697044
H	-1.328989	1.038347	1.165898
H	0.244153	1.453995	1.386427
Br	3.586868	0.0	0.0
