10
Coordinates from ORCA-job run
  C   -0.54544664563189      0.18575002785742      0.34586313811543
  C   0.46187007063368     -0.30179876191133     -0.40356408341695
  H   -0.29367754861995      0.80796923429765      1.19852283780658
  H   0.37125882134888     -0.93811576432236     -1.27284688000206
  N   -1.87196862806201     -0.08943833451825      0.17867509509616
  H   -2.52668088209868      0.55391686155435      0.58700993448683
  H   -2.16538043061071     -0.48903432317643     -0.69746191282103
  N   1.82616048921306      0.01253526520575     -0.05879574991737
  O   2.69098842904513     -0.46532961407256     -0.79648073791819
  O   2.05487632478248      0.72354540908575      0.92007835857059
