10
Coordinates from ORCA-job run
  C   -0.57317592607245      0.03810189455457      0.34932312602966
  C   0.49289173596942     -0.10608172937892     -0.46109478756398
  H   -0.39399278044126      0.16844892511913      1.41161152071969
  H   0.47464319134291     -0.25263593698050     -1.53206066017858
  N   -1.88204398191050     -0.03806168542525     -0.03088009025792
  H   -2.09423339068897      0.04124084321523     -1.01177821868653
  H   -2.56035564698771      0.38090699894682      0.58043468155513
  N   1.82245896601592     -0.08360260505067      0.09585470776512
  O   1.96808562253060      0.06767533132943      1.30911335765871
  O   2.74572221024203     -0.21699203632983     -0.71052363704129
