10
Coordinates from ORCA-job run
  C   -0.57409814966052     -0.03242572194497      0.34800949135169
  C   0.49752219654759     -0.02920887857096     -0.46786611031543
  H   -0.40051385234738     -0.00064999714444      1.41872639499374
  H   0.48806117340391     -0.06608315862190     -1.54826394355517
  N   -1.87703094479751     -0.14500320441912     -0.04310069815307
  H   -2.57664720344325      0.16784496427091      0.60648515314522
  H   -2.09596276112656      0.02342068422847     -1.01113118616457
  N   1.82411304836303      0.01497220310350      0.09573355693275
  O   1.96161921435548      0.05276764322351      1.31866524105175
  O   2.75293727870521      0.01636546587499     -0.71525789928692
