10
Coordinates from ORCA-job run
  C   -0.75653358885889     -0.49790171888374      0.27584708081667
  C   0.59032449905721     -0.63925579636251      0.37618970657001
  H   -1.35391069320816     -1.30593536328853      0.68912162657335
  H   1.05687094760595     -1.50142005972439      0.82589305255559
  N   -1.46066956491754      0.54508749103978     -0.21452717647732
  H   -0.95014701093503      1.25059334993314     -0.72159519725266
  H   -2.43538153517225      0.41464379153117     -0.41435414218593
  N   1.51657713795701      0.31874390309192     -0.13368758534469
  O   2.71617973357064      0.06911172396559     -0.00858352675188
  O   1.07569007490106      1.34633267869758     -0.67530383850313
