10
Coordinates from ORCA-job run
  C   -0.72810734933993     -0.40319515108906      0.45076987100418
  C   0.53041993384123     -0.77873293624925      0.10533152244440
  H   -1.32974678390069     -1.15561272051276      0.95319268052984
  H   0.92429042761578     -1.76216471839296      0.30751361450539
  N   -1.31770455930762      0.80304384809305      0.30601829425590
  H   -2.31250602566559      0.86931352258826      0.41897017665223
  H   -0.84574819520059      1.48452265788702     -0.26675822651689
  N   1.44432696011755      0.08230429687483     -0.57294550648752
  O   1.07949551191079      1.23530491345439     -0.85706376780082
  O   2.55528007992906     -0.37378371265352     -0.84602865858672
