10
Coordinates from ORCA-job run
  C   -0.54547622846499      0.26843074359105      0.28823872736735
  C   0.46362301963573     -0.27383952052060     -0.41994192249423
  H   -0.29911648166454      0.81497084180333      1.19273891122365
  H   0.37941864975549     -0.83688292914071     -1.33900900860113
  N   -1.86431473380235      0.25966361656574     -0.06485231437547
  H   -2.15823696109797     -0.39410273263636     -0.77180197404354
  H   -2.53329512507398      0.41148956928084      0.66926157836423
  N   1.82247854904236     -0.11673257376874      0.03643774418632
  O   2.04481543193128      0.51391529930928      1.07030000496030
  O   2.68910387973897     -0.64691231448383     -0.66237174658750
