10
Coordinates from ORCA-job run
  C   -0.75263977322807     -0.53148798111727      0.21676076031147
  C   0.58029795983779     -0.58418538551700      0.47173456227960
  H   -1.35618979997318     -1.31732592660093      0.66256119014319
  H   1.02882103100583     -1.34908939448852      1.08559434936458
  N   -1.42721802281038      0.33651761574400     -0.56666688607877
  H   -2.42791764028386      0.36919740091657     -0.50338398412458
  H   -0.93118914257366      1.14809625250774     -0.89879667187626
  N   1.50855099549984      0.38013415367961     -0.02292489656816
  O   1.08504143000701      1.30664117428598     -0.73389832425889
  O   2.69144296251869      0.23950209058981      0.29001990080782
