10
Coordinates from ORCA-job run
  C   -0.56016146445179      0.16118732693014      0.33582748968509
  C   0.47411816423066     -0.26272935994074     -0.41551474984867
  H   -0.34082992320814      0.62445123477574      1.29230365841434
  H   0.41665060546990     -0.74444697477710     -1.38166345452974
  N   -1.88298352441441     -0.00330481442463      0.04062058167440
  H   -2.12788889023081     -0.23903717918151     -0.90704221377435
  H   -2.53203067141611      0.61050345016395      0.50049305980879
  N   1.82339715156889     -0.09070538417365      0.06284576306036
  O   2.71513732561351     -0.49561818678451     -0.68626872500103
  O   2.01459122683830      0.43969988741231      1.15739859051083
