10
Coordinates from ORCA-job run
  C   -0.56677106471222      0.04950452241111      0.35836061682803
  C   0.48214905382667     -0.10813467012524     -0.47177187777324
  H   -0.36938811575726      0.12664864580481      1.42261405205498
  H   0.44575132841128     -0.20685589270639     -1.54773915583669
  N   -1.88171647495455      0.05197035852837     -0.00705716155005
  H   -2.10200124615118      0.17998820760353     -0.98093421355515
  H   -2.53322271046272      0.47409872184848      0.63057307839574
  N   1.81764000187952     -0.17224155683330      0.06773383576330
  O   1.98465885168941     -0.07577579899162      1.28386088256851
  O   2.72390037623105     -0.31820253753975     -0.75564005689544
