10
Coordinates from ORCA-job run
  C   -0.73058815749625     -0.35177575817811      0.48841807035247
  C   0.61158610691431     -0.55669444045000      0.46447539787450
  H   -1.28893093503878     -0.92645459319333      1.22225337159734
  H   1.11199604128799     -1.24050581819413      1.13161087880500
  N   -1.47866722834369      0.42894668317014     -0.32037085557741
  H   -0.99273366009635      1.07147031498318     -0.92550577553751
  H   -2.42373920096599      0.63413106780479     -0.05306014181858
  N   1.49026154364333      0.12798576803052     -0.42763672886015
  O   1.00912796446238      0.94505745171056     -1.23009097378933
  O   2.69168752563306     -0.13116067568361     -0.34809324304633
