10
Coordinates from ORCA-job run
  C   -0.56914812500785     -0.16077398885441      0.32001398139182
  C   0.49098238453929      0.27560296455180     -0.38688030735633
  H   -0.38124703726077     -0.75974176785212      1.20515854675992
  H   0.46658430889438      0.88452959012008     -1.27984965128674
  N   -1.87647234602106      0.13979689165254      0.06771277437476
  H   -2.10873863343489      0.51597060046191     -0.83668840781803
  H   -2.56991535666384     -0.47326427180882      0.45831684467634
  N   1.82534901465660     -0.05702310167274      0.04675297685395
  O   1.98013885706485     -0.74107650177137      1.05879077706189
  O   2.74246693323327      0.37797958517315     -0.65332753465758
