10
Coordinates from ORCA-job run
  C   -0.56033822563714      0.16417740362063      0.33266893155639
  C   0.47801742441033     -0.27399500389384     -0.40478324452243
  H   -0.34439019483882      0.70300955158389      1.24948720014739
  H   0.42488374539396     -0.82679962730978     -1.33232091151302
  N   -1.87983297390062     -0.06810324704008      0.07247840313748
  H   -2.13191892196476     -0.38245343334577     -0.85001747960043
  H   -2.54624158220985      0.54772433167424      0.50364562931426
  N   1.82643174894290     -0.01800923866412      0.03706054904584
  O   2.72236583250557     -0.44533608502764     -0.69452590718187
  O   2.01302314729843      0.59878534840247      1.08630682961640
