10
Coordinates from ORCA-job run
  C   -0.56437933650427      0.16053066692395      0.32871266997617
  C   0.48072020374667     -0.16298026522382     -0.45689029148131
  H   -0.35784507438643      0.61046811319146      1.29431691153285
  H   0.43648912393326     -0.60216889528205     -1.44376017815478
  N   -1.88257053175813      0.04105269338349     -0.00541107581319
  H   -2.11818391210344     -0.54268345865782     -0.79109821313763
  H   -2.54421487578245      0.01399260044827      0.75019525939752
  N   1.82409935822146      0.09834163514328     -0.00224750647749
  O   2.72649317401243     -0.22313291584479     -0.77859997698661
  O   2.00039187062089      0.60757982591804      1.10478240114448
