10
Coordinates from ORCA-job run
  C   -0.56183097996382      0.36223562297726      0.07283173387234
  C   0.47436827316592     -0.48732848139390     -0.06357754731409
  H   -0.35173826299881      1.37694057297262      0.39489674012686
  H   0.42471183126895     -1.52557835911400     -0.36077500236241
  N   -1.88024179718201      0.04725791943984     -0.08878188045149
  H   -2.51238006205692      0.80736746400649     -0.26788998325017
  H   -2.10449613179851     -0.80790054642357     -0.57042301812644
  N   1.81286533078379     -0.03342602400661      0.22287777540821
  O   2.70691583011406     -0.87002984314540      0.07744377082834
  O   1.99382596866736      1.13046167468725      0.58139741126886
