10
Coordinates from ORCA-job run
  C   -0.75110682668621     -0.30177330301996      0.49156970535198
  C   0.57411572048842     -0.59622460862271      0.46179201124888
  H   -1.35571403939800     -0.88591345617989      1.17977439894103
  H   1.01510372549306     -1.37192222494774      1.06755100794067
  N   -1.41365415499667      0.66722089084615     -0.17612512237443
  H   -0.91928763474014      1.14359108247192     -0.91363247831205
  H   -2.41583066853085      0.63067852490462     -0.20878704315054
  N   1.50205906410019      0.06131976245424     -0.40006482906534
  O   2.67548917687834     -0.31031258991646     -0.35715913192485
  O   1.08782563739186      0.96433592200983     -1.14591851865535
