10
Coordinates from ORCA-job run
  C   -0.55800104473618      0.24218487765643      0.28584824489690
  C   0.47914934101491     -0.24986231047442     -0.41871128630519
  H   -0.34394442990032      0.76969187494280      1.20962533617192
  H   0.42828442353367     -0.78441359127419     -1.35699647860566
  N   -1.86984256280502      0.20321258351051     -0.08968096825130
  H   -2.55604964791282      0.31659696633649      0.63531369672752
  H   -2.13274477593147     -0.43621164852626     -0.82145615724104
  N   1.82454700529451     -0.06241311184359      0.06605344950348
  O   2.71994883917824     -0.53992747494694     -0.63436531429558
  O   2.00865285226449      0.54114183461917      1.12336947739894
