15
Coordinates from ORCA-job run
  C   -0.30193804716266     -0.21857933024556      0.05590121117584
  C   0.90099971088710      0.34368064247944     -0.22061121713268
  C   -0.65075390339477     -1.62656832366353     -0.32222435310019
  H   -0.83476541782692     -2.23060343849131      0.57267724452563
  H   -1.57559145629434     -1.65074653279278     -0.91104312408341
  H   0.13456729308670     -2.11562218319673     -0.90065441283993
  C   -1.32723514267879      0.57914375169810      0.81578781268194
  H   -2.22471534266676     -0.01352771661200      0.99999943489272
  H   -1.63763180573843      1.47670486959815      0.26599136785272
  H   -0.94277165786943      0.90754026753696      1.78849102078253
  C   1.91870144040161     -0.39146432840010     -0.91418118818169
  N   2.76218854440299     -0.96770493442352     -1.49813905829852
  N   1.30660931454950      1.61565409597671      0.22013482898045
  H   0.53681696272035      2.21875955756405      0.46967572203428
  H   1.93551950758385      2.07433360297212     -0.42280528928970
