15
Coordinates from ORCA-job run
  C   -0.36226532562612     -0.14154905721143      0.02186652137956
  C   0.84588353665872      0.36917932383356     -0.32250157910231
  C   -0.43111317205036     -1.21529164015878      1.07049673686406
  H   0.42692408565693     -1.88982188315230      1.00347807778718
  H   -1.33987715848837     -1.80944505209076      0.95487379933006
  H   -0.45040197260823     -0.79349256577878      2.08354077959385
  C   -1.65220731561096      0.34623852515056     -0.56517432050107
  H   -1.50239535177511      1.11625425171866     -1.32336766358673
  H   -2.29892133526124      0.75999356810618      0.21629038064121
  H   -2.19993948395232     -0.48353559012077     -1.02475402876142
  C   0.95690354510877      1.35988828486038     -1.35404380956993
  N   1.07827978494660      2.17327147279493     -2.19601275364277
  N   2.06860522061510     -0.07790072811218      0.21799983813350
  H   2.01938442825616     -0.24996903423058      1.21174752234596
  H   2.84114051413045      0.53518012439132      0.00456049908885
