15
Coordinates from ORCA-job run
  C   -0.32179221835620     -0.21664180940924      0.03180322696044
  C   0.82191520583778      0.42052237967289     -0.32131482075752
  C   -0.58844823690331     -1.65579347091928     -0.29132325285590
  H   -0.73900869378398     -2.23451861520888      0.62673058912653
  H   0.22583234219090     -2.11682850797621     -0.85227228144714
  H   -1.50635714426910     -1.75049537425621     -0.88144421389022
  C   -1.36306931134752      0.53221383813459      0.81443566741457
  H   -1.13790478271121      0.54029882293900      1.88873959204009
  H   -2.34359019906948      0.06656483069146      0.69614784655978
  H   -1.43753765396039      1.57115456062992      0.48019617452550
  C   1.81826753721993     -0.24194078315494     -1.11255418479734
  N   2.65376127014085     -0.75949758488813     -1.75996667951302
  N   1.08443689437077      1.77491818738228     -0.03255227525754
  H   2.04969150735479      2.02891249446544     -0.18006804109526
  H   0.78480348328618      2.04413103189732      0.89344265298703
