15
Coordinates from ORCA-job run
  C   -0.37311645587390     -0.10812727679758      0.02704820728205
  C   0.86357497686007      0.32256009509286     -0.32508213063567
  C   -0.50031540968761     -1.25720187063193      0.98672234479791
  H   -0.41205018508181     -0.92807191396323      2.03021966787044
  H   0.27261349756352     -2.01027372194437      0.80676104615708
  H   -1.47456878615927     -1.73945837887454      0.88428636342953
  C   -1.63344221383344      0.53309619318539     -0.46987845836719
  H   -2.25552490262218     -0.20239871905784     -0.99115858750671
  H   -2.22665222756072      0.91496392104750      0.36832649452614
  H   -1.44077784158487      1.36170021322085     -1.15331735538924
  C   1.02934682449382      1.38251664589679     -1.27741505271829
  N   1.19649056993629      2.25007136507281     -2.05515540597154
  N   2.05783606485526     -0.27465039372328      0.12666288651572
  H   2.87446659957155      0.28707819354666     -0.06131804200084
  H   2.02311948912330     -0.53280435207011      1.10229802201062
