15
Coordinates from ORCA-job run
  C   -0.37250854601412     -0.11775559340088      0.02227799939990
  C   0.81167205556508      0.53819198416071     -0.05353813110128
  C   -1.62628116363492      0.37811779722857     -0.63136402158601
  H   -2.41447070311414      0.52070153289479      0.11569662294053
  H   -2.00084065978178     -0.35375559783802     -1.35525909233840
  H   -1.47952003174497      1.32575755621927     -1.15254995709388
  C   -0.43213228488167     -1.41628611210440      0.77684997642563
  H   -1.46073288508306     -1.66050430621720      1.04997029811973
  H   0.16041777337418     -1.36387403236396      1.69543626824829
  H   -0.04934684324463     -2.25386800324020      0.17941317914253
  C   0.91227357722940      1.80487879789197     -0.71874967272375
  N   1.02781228788274      2.84319564343036     -1.26103176198377
  N   1.99198683853710      0.09270453891290      0.57443305063727
  H   2.81839619109541      0.57031741626128      0.24608501900543
  H   2.11327439381537     -0.90782162183520      0.51333022290778
