15
Coordinates from ORCA-job run
  C   -0.36123361734252     -0.17874802789606      0.05177713473586
  C   0.86695418744828      0.35855145950394     -0.13070785503859
  C   -1.48411762489470      0.62253225706793      0.63552105804468
  H   -2.31746818100707      0.66883226412059     -0.07374168232809
  H   -1.86564064877616      0.13334074496056      1.53796662226181
  H   -1.16111526168847      1.63184937230569      0.88012218467785
  C   -0.67786860502674     -1.59719554222129     -0.31814739583409
  H   -1.03455517653926     -2.14255441686133      0.56159310207732
  H   0.17973791825827     -2.12984463100325     -0.73075448458107
  H   -1.48763687055656     -1.62046906507451     -1.05464967239459
  C   1.93264102592550     -0.42465745051429     -0.70208756713433
  N   2.84492177606293     -1.00820915677043     -1.16484721239333
  N   1.16568003470262      1.71662929876931      0.22293725334094
  H   1.46753281262873      2.22922321071585     -0.59837774911418
  H   1.93216823080516      1.73971968289728      0.88639626367981
