15
Coordinates from ORCA-job run
  C   -0.36331900547523     -0.13085993164112      0.03130199862937
  C   0.79224041762545      0.55057527294220     -0.16734040157053
  C   -1.56194576300736      0.01707437439540     -0.85659950367752
  H   -2.42677878936676      0.35762998029051     -0.27711305524998
  H   -1.83437672983949     -0.94849420833228     -1.29638094694624
  H   -1.39585031307470      0.72582069200983     -1.66924456495982
  C   -0.45128165250465     -1.10161124471074      1.17546106337060
  H   0.00632044930940     -2.06808124635279      0.92699921963296
  H   0.05353012140684     -0.71168542905425      2.06467490856929
  H   -1.49339798895323     -1.29649908704572      1.43696766117365
  C   0.89975908181901      1.52636152885723     -1.21276689482308
  N   1.01674337493873      2.33015271523192     -2.06447911826213
  N   1.92126276335277      0.44096686447022      0.66922896713300
  H   2.07901616733743     -0.50350810205215      0.99038609610337
  H   2.75907786643179      0.81515782099174      0.24890457087706
