15
Coordinates from ORCA-job run
  C   -0.32553401744224     -0.21629303621532      0.02335193538843
  C   0.83156879783889      0.41411330413610     -0.29707224589903
  C   -0.58940558044093     -1.65462901989572     -0.30259745202610
  H   0.22911810825857     -2.11485628128598     -0.85758128757741
  H   -1.50495825998857     -1.75045657464525     -0.89627303663262
  H   -0.74624624660810     -2.23297786362346      0.61520678901847
  C   -1.38765938180230      0.54461001499619      0.76545324670185
  H   -1.43026861827946      1.58566897574976      0.43263155165736
  H   -2.36894349099981      0.09451992231937      0.60323648218749
  H   -1.20909361106548      0.54482881096464      1.84832162647899
  C   1.85200694722765     -0.25753280176829     -1.04876651468391
  N   2.70860902857170     -0.77920844908093     -1.66479123333854
  N   1.09046985805433      1.76887941688615     -0.00189557658278
  H   0.79095840952190      2.03096326169326      0.92647508986386
  H   2.05737805715383      2.02037031976948     -0.14469937455605
