15
Coordinates from ORCA-job run
  C   -0.32522920677759     -0.21322937851909      0.02594496767702
  C   0.84204484356386      0.39569160537578     -0.29875679433090
  C   -1.39045948556262      0.58192789019680      0.72664179404540
  H   -1.20158521959275      0.65406048422700      1.80567372915699
  H   -1.44784668232452      1.59984977005661      0.32959676421365
  H   -2.36831446599800      0.11224383233671      0.60325283956787
  C   -0.59731984512795     -1.66057793767401     -0.25211041217408
  H   -0.79943420871462     -2.19964905184266      0.67998005934177
  H   -1.48764204828621     -1.76684735452716     -0.88112765007274
  H   0.23581612399047     -2.15424846645271     -0.75501058818088
  C   1.86618904397902     -0.30968940328086     -1.01346824655939
  N   2.72436407391412     -0.86347102162007     -1.59839435185006
  N   1.10605753691565      1.75867372038220     -0.05407770570515
  H   0.76363915578996      2.06851752190167      0.84402436682322
  H   2.08072038423119      1.99674778943976     -0.16216877195271
