15
Coordinates from ORCA-job run
  C   -0.30785989987339     -0.22114809876572      0.08464877299219
  C   0.90525114824016      0.32865568642181     -0.16889160744509
  C   -1.35098078383902      0.60081118738947      0.78715927690074
  H   -0.90167088618056      1.23864008211243      1.55401548725114
  H   -1.89695784111388      1.24771325918007      0.08814530529243
  H   -2.08856550342206     -0.04347242584975      1.27013369397962
  C   -0.67810027618637     -1.61230697837280     -0.33289141975316
  H   -0.95644908366517     -2.21103309177334      0.54115362923540
  H   0.13355239920201     -2.12462092817664     -0.85231706676583
  H   -1.54900550478142     -1.59432737318430     -0.99756729466581
  C   1.94582903073216     -0.44254435358527     -0.78586708215152
  N   2.81630406162291     -1.05300208322808     -1.29067576488230
  N   1.27096729803003      1.63152342949755      0.22629247239787
  H   0.53112937223298      2.30442678166947      0.08524775693845
  H   2.12455646900163      1.94968490666510     -0.20758615932414
