15
Coordinates from ORCA-job run
  C   -0.36624774738081     -0.14606707665874     -0.01442926490790
  C   0.83687002331559      0.43983243987665     -0.23222756766087
  C   -1.65134340899580      0.39367318005882     -0.56327462556667
  H   -2.17040366500031     -0.37657519351499     -1.14403381677912
  H   -1.49975201725292      1.26068996605683     -1.20816173835420
  H   -2.32457061770384      0.68878581251153      0.24856328583120
  C   -0.41681220209590     -1.38003773840612      0.84102684234797
  H   -0.31323045248412     -1.14399565770415      1.90977875218769
  H   0.39889981503826     -2.06261799094297      0.58306431343535
  H   -1.36446958174963     -1.91045727791055      0.71859751856904
  C   0.95644188510332      1.59588186002556     -1.07217233388743
  N   1.08510611987421      2.55014363546003     -1.74889830070103
  N   2.05216709307431     -0.07599602200781      0.26557365227938
  H   1.96738490737077     -0.41823939529334      1.21321875101939
  H   2.81095984888688      0.58697945844923      0.20437453218720
