15
Coordinates from ORCA-job run
  C   -0.32026713805779     -0.17757147461040      0.01710127712471
  C   0.93842290518673      0.29675675945113     -0.15806838350081
  C   -1.41869582236950      0.72464192174474      0.50724368087330
  H   -1.07279553265191      1.43765134879471      1.26284507061074
  H   -2.21790201475957      0.13515088281172      0.96140353720026
  H   -1.86414839211878      1.30281218623006     -0.31128993686537
  C   -0.70753752667218     -1.59023323595711     -0.30891072076972
  H   -1.53694458064999     -1.60062444002866     -1.02405955613006
  H   0.11504103275640     -2.16558820725145     -0.73532577247348
  H   -1.05455869705371     -2.10986287899822      0.59097731896854
  C   1.98327648082858     -0.57100634894073     -0.62536711573712
  N   2.86430798181481     -1.26084535657793     -0.98896629140030
  N   1.34049897216438      1.63625069059553     -0.02238369993914
  H   2.27245906604301      1.73679684819706      0.35348655329213
  H   0.67784326553951      2.20667130453955      0.48131403874633
