15
Coordinates from ORCA-job run
  C   -0.31466685060405     -0.21962182440154      0.07038250028967
  C   0.91323544163666      0.31583766846909     -0.14034632533299
  C   -1.35133372660128      0.59375558771887      0.79171082779110
  H   -0.90012111275985      1.18742237885504      1.59217632498058
  H   -2.11089505863947     -0.05387291262074      1.23444269326263
  H   -1.87098917400972      1.28299879283050      0.11337677332423
  C   -0.70565336717464     -1.58287440940436     -0.41457811537452
  H   -1.56342756450750     -1.51704630428153     -1.09278817915267
  H   -1.01208233521476     -2.21315184692346      0.42713270186092
  H   0.10476994213238     -2.08922506370076     -0.94130475625870
  C   1.95095329137409     -0.44849716154180     -0.77068384105491
  N   2.82373207017318     -1.04992225990876     -1.28211604359063
  N   1.29546021360803      1.59462109478410      0.31528551359448
  H   2.16720777880046      1.91001588223993     -0.08341561803643
  H   0.57381045178647      2.28856037788542      0.17972554369724
