15
Coordinates from ORCA-job run
  C   -0.32851168801187     -0.20815289718801      0.01517335169272
  C   0.85189713206683      0.39291926681772     -0.27501976546518
  C   -1.39280398297839      0.57935779962826      0.72565510056126
  H   -1.42414129963992      1.61291008082217      0.36834333223611
  H   -1.22543806861472      0.60425717451855      1.81024489716303
  H   -2.37610834359715      0.13352521091776      0.56312820561165
  C   -0.61786441216841     -1.64200390305888     -0.31173426644924
  H   0.21634943502223     -2.13389251692485     -0.81459796911978
  H   -0.84624313037527     -2.20570494166680      0.59946884094689
  H   -1.49789280441157     -1.71408976939601     -0.95994326295062
  C   1.87605590537237     -0.30722789828611     -0.99519265233454
  N   2.73478604766678     -0.85699772842781     -1.58296321763701
  N   1.13291705734186      1.74357795926935      0.01476376953465
  H   0.78713445954565      2.02996106949551      0.91939402364369
  H   2.11186369278158      1.97056109347915     -0.07672038743362
