15
Coordinates from ORCA-job run
  C   -0.37977401073364     -0.04535340713737      0.08416305704869
  C   0.85144909223890      0.36215506623831     -0.31496704906967
  C   -0.47375860719230     -0.99069210775626      1.25072968216543
  H   -1.50408784032123     -1.10364287488290      1.59288547912759
  H   0.12335169085717     -0.64263100400684      2.10037726517349
  H   -0.10947427706890     -1.99070236964616      0.98129364824285
  C   -1.64408027668749      0.37699557990526     -0.60373620086271
  H   -2.20576763462702     -0.49584427429925     -0.95159027110914
  H   -2.29549311243326      0.92049970312261      0.08887155591397
  H   -1.45002288699029      1.02147005198011     -1.46201072960495
  C   1.00639166683257      1.29687989953086     -1.39057850305466
  N   1.16136259477101      2.05836999519244     -2.27424329484163
  N   2.04539745024661      0.01945325688965      0.34918446380058
  H   2.86546409931339      0.10314567547955     -0.23434803826004
  H   2.00904205179447     -0.89110319061002      0.78296893533019
