16
Coordinates from ORCA-job run
  C   -0.80670277313049      0.00315708260760     -0.41781687252381
  C   0.59403793811328      0.59368078737048     -0.35039466166090
  F   -1.62846939185990      0.79595261542852     -1.11255359711011
  H   0.93322057789640      0.62653131320570     -1.39173313425248
  N   -0.85655003219087     -1.35402553287786     -1.10647064033064
  O   -1.92891133083056     -1.93536882549470     -1.01548003251560
  O   0.13161826558232     -1.69733069945580     -1.74429630284506
  N   -1.39274977041777     -0.21459851255406      0.96437792414976
  O   -2.22468341565079      0.59339195690726      1.34477066688036
  O   -0.92872715945489     -1.17421953903680      1.56805522724667
  C   1.61116494019257     -0.18336775562592      0.49327922089596
  H   1.67568780783492     -1.21823653853094      0.16335980346786
  H   2.58787057319679      0.28539023685204      0.36551369412770
  H   1.35276988891826     -0.15792480470092      1.55048992421287
  C   0.46972831785933      1.97121724357531      0.13502931748134
  N   0.40969556394142      3.06675097233010      0.55286946277609
