16
Coordinates from ORCA-job run
  C   -0.80672509947328     -0.00043964949590     -0.41784949652228
  C   0.59400921604812      0.59060100859435     -0.35553796499887
  F   -1.62849174192006      0.78608290986566     -1.11958328036414
  H   0.93320362226130      0.61475932343159     -1.39712878584666
  N   -0.85645864127130     -1.36372925154354     -1.09415573904932
  O   0.13176591328134     -1.71223198459740     -1.72925991868267
  O   -1.92847237530614     -1.94475171229460     -0.99711121264082
  N   -1.39276343264494     -0.20576807095898      0.96636761595455
  O   -0.92820517990557     -1.15952433230696      1.57892683574184
  O   -2.22499095531909      0.60544498588712      1.33919730174379
  C   1.61111164043476     -0.17921836810678      0.49480482954822
  H   1.67382029722925     -1.21769703166783      0.17604070608979
  H   2.58836013297211      0.28662949461747      0.36067296486017
  H   1.35415855358190     -0.14204556902185      1.55203593783239
  C   0.46976581166052      1.97221644101593      0.11813565506341
  N   0.40891223837109      3.07167180658172      0.52544455127060
