16
Coordinates from ORCA-job run
  C   -0.66853257483335     -0.28741520537509      0.21028577486899
  C   0.51469933005762      0.60452867997096     -0.10866835625691
  F   -0.71670761209029     -0.64062650812403      1.48882366323499
  H   0.42943508197883      0.89023965119066     -1.15942052760838
  N   -2.00878544330577      0.34359385976980     -0.15875953510861
  O   -1.98254865066247      1.26497140355742     -0.96382399163598
  O   -2.98324958004829     -0.16872040594437      0.37426996955106
  N   -0.58996414194368     -1.54785427148979     -0.64431027470956
  O   -0.48410735654016     -2.61289897762321     -0.05872152549157
  O   -0.61429688121765     -1.34041855754477     -1.85155282482635
  C   1.83258225960578     -0.13739661787010      0.14629686053404
  H   1.94188943669326     -0.97310290779072     -0.54706864229645
  H   2.66723864370539      0.54567582297499     -0.01234383443170
  H   1.87800093217916     -0.51041167735244      1.16987782755166
  C   0.41520768880042      1.80870213047420      0.71713767753798
  N   0.36913886762119      2.76313358117650      1.39897773908681
