16
Coordinates from ORCA-job run
  C   -0.80731664394034      0.01127418297390     -0.41553535911158
  C   0.59538033389246      0.59634877253447     -0.34117517960147
  F   -1.62776116813223      0.81739190792949     -1.09638144278358
  H   0.93379528125544      0.64118893492181     -1.38235530219438
  N   -0.86217835863269     -1.33443664393808     -1.12543423335810
  O   0.12351509081522     -1.67005502815213     -1.77134910530883
  O   -1.93581425825970     -1.91446947479383     -1.04145391598559
  N   -1.39190104398737     -0.22670178547527      0.96393895094213
  O   -2.22130554556618      0.57731302257709      1.35816536069318
  O   -0.92919587358672     -1.19680360591536      1.55166529104348
  C   1.61055016157519     -0.19536653099939      0.49092402407830
  H   1.35314991356824     -0.18372042893429      1.54862843125416
  H   1.67166258397233     -1.22565473060222      0.14636997957291
  H   2.58865931258315      0.27203335442272      0.36891229550697
  C   0.47650836638854      1.96855935334665      0.16050239970808
  N   0.42125184805465      3.06109870010443      0.58657780554433
