16
Coordinates from ORCA-job run
  C   -0.71413165113154     -0.05339334357215     -0.24408198548604
  C   0.77693961078763      0.17266797751678     -0.09287703204456
  F   -1.42347811494615      1.05172041430062     -0.05378955896736
  H   1.27204724628495     -0.77284274972499     -0.32482999879776
  N   -1.09361023762852     -0.63434600975359     -1.60385470499682
  O   -0.21091665445728     -1.22014537588186     -2.21686253419565
  O   -2.26365337210945     -0.47975673207295     -1.92480605124551
  N   -1.16741469133682     -1.10600877774294      0.76353910652888
  O   -2.00804977432132     -0.76811384079326      1.58044061407048
  O   -0.60647010789109     -2.18897466236461      0.64928761948651
  C   1.11136299949031      0.62465495066568      1.33380286736480
  H   0.54630092279772      1.51776380237705      1.60234295092164
  H   2.17531017622567      0.85290131503986      1.39968074332213
  H   0.89049018049544     -0.17012548971800      2.04851906123032
  C   1.18843123723301      1.17365750289113     -1.07820094397860
  N   1.52584223050741      2.00234101883325     -1.83831015321246
