16
Coordinates from ORCA-job run
  C   -0.82201502216388     -0.02124644462141     -0.41662735155827
  C   0.54987895241742      0.63432393520707     -0.34648728240811
  F   -1.59637550827605      0.59660244329699     -1.31094890871157
  H   0.82360245361079      0.75055074061589     -1.40303580292101
  N   -0.64401246455326     -1.46668689984514     -0.86288995050282
  O   -0.39601330626377     -1.60088554145592     -2.05258904034678
  O   -0.69620874655833     -2.32927340938968      0.00327459615166
  N   -1.58666340076478     -0.07520198654707      0.89471263982529
  O   -2.78650817526902     -0.27844494247807      0.78279014272090
  O   -0.93757259513929      0.06630123730349      1.92269271669061
  C   1.63625587888839     -0.18411982699924      0.35810648399401
  H   2.57236391867406      0.37436976452948      0.32072995438850
  H   1.37781798907164     -0.37294568709737      1.39683327441869
  H   1.79247888855591     -1.13271822054676     -0.15797758931513
  C   0.40309614055580      1.97683846933384      0.21746887077233
  N   0.30887499721437      3.06253636869391      0.65394724680170
