16
Coordinates from ORCA-job run
  C   -0.74272248166295      0.06335222957834     -0.51547574121132
  C   0.68879030696939      0.52298712856593     -0.28093683832732
  F   -1.39036528832751      0.90462962238149     -1.32718061597158
  H   1.15897926490334      0.48901385799304     -1.27000379770978
  N   -0.83580533866806     -1.30595099399031     -1.17462084137016
  O   -1.96209919367174     -1.78195104471305     -1.20910775882780
  O   0.18702452047734     -1.76133793680170     -1.67224194543661
  N   -1.51686328149866     -0.05205947859979      0.78418965415523
  O   -2.30806734598723      0.84237685144827      1.03672995297700
  O   -1.22812342008774     -1.02976164193295      1.46342515533313
  C   1.51069250245332     -0.31691837320999      0.70368726428865
  H   1.51453009199092     -1.36426631002923      0.40883780334658
  H   2.53700516564896      0.05267052553775      0.69177999311925
  H   1.12541664407512     -0.23025717771026      1.71818035063685
  C   0.63796089594116      1.92277996133777      0.15118430233916
  N   0.62564695744433      3.04569278014470      0.49355306265872
