15

C	0.0	0.0	0.0
C	-0.66235	0.063739	-1.356799
Cl	1.764026	0.0	0.0
H	-1.767543	0.197747	-1.067961
H	-0.588478	-0.926379	-1.815383
N	-0.362104	1.273974	0.784896
O	-0.396328	1.188498	2.005993
O	-0.518382	2.300351	0.136259
C	-0.520008	-1.199366	0.753977
H	-0.224766	-2.105212	0.218509
H	-1.617958	-1.093847	0.76042
H	-0.117396	-1.223466	1.76508
C	-0.164727	1.04866	-2.296857
N	0.205331	1.792701	-3.128432
H	-3.098195	0.0	0.0
