15

C	0.0	0.0	0.0
C	-0.641797	-0.048176	-1.366451
Cl	1.776989	0.0	0.0
H	-0.3768	0.825524	-1.961818
H	-1.760978	-0.012413	-1.08651
N	-0.365036	1.359447	0.621596
O	-0.442732	2.318446	-0.138272
O	-0.467983	1.409507	1.840286
C	-0.507215	-1.108281	0.884516
H	-1.60422	-1.00003	0.893843
H	-0.225014	-2.065812	0.442207
H	-0.091025	-1.028243	1.886956
C	-0.307961	-1.267035	-2.073975
N	-0.051399	-2.253412	-2.660769
H	-3.078245	0.0	0.0
