15

C	0.0	0.0	0.0
C	-0.671405	-0.073181	-1.350365
Cl	1.765137	0.0	0.0
H	-0.416947	0.783592	-1.974103
H	-1.789404	-0.020543	-1.036634
N	-0.35228	1.381035	0.589623
O	-0.435115	2.317412	-0.196666
O	-0.428876	1.470238	1.808129
C	-0.509983	-1.077826	0.918683
H	-0.252283	-2.04921	0.495587
H	-0.075497	-0.982667	1.911953
H	-1.60398	-0.95632	0.941106
C	-0.379439	-1.314186	-2.034833
N	-0.167051	-2.324768	-2.599917
H	-3.07499	0.0	0.0
