15

C	0.0	0.0	0.0
C	-0.662923	0.11774	-1.350738
Cl	1.764174	0.0	0.0
H	-1.769122	0.234973	-1.060112
H	-0.581246	-0.849907	-1.853356
N	-0.36427	1.238078	0.840342
O	-0.303762	1.118658	2.058443
O	-0.626121	2.269909	0.236334
C	-0.522062	-1.225456	0.711117
H	-0.231299	-2.112198	0.143998
H	-1.619682	-1.118537	0.722813
H	-0.117265	-1.286185	1.719333
C	-0.16693	1.14805	-2.243377
N	0.204497	1.928717	-3.039615
H	-3.115129	0.0	0.0
