15

C	0.0	0.0	0.0
C	-0.651376	-0.040106	-1.363814
Cl	1.7771	0.0	0.0
H	-0.372377	0.819882	-1.973755
H	-1.766757	0.015225	-1.07784
N	-0.36438	1.353302	0.636398
O	-0.445953	1.392631	1.85693
O	-0.465098	2.316401	-0.114806
C	-0.508342	-1.11001	0.88265
H	-0.091891	-1.030444	1.885414
H	-0.225697	-2.068619	0.442583
H	-1.606189	-0.999813	0.893661
C	-0.351143	-1.274383	-2.058693
N	-0.112861	-2.273989	-2.62814
H	-3.102256	0.0	0.0
