20

C	0.0	0.0	0.0
C	-0.393243	0.043335	-1.519803
Br	1.982983	0.0	0.0
H	0.343014	-0.593046	-2.02759
C	-0.529261	1.167898	0.804232
H	-1.626071	1.133479	0.721397
H	-0.252581	1.062925	1.857483
H	-0.155979	2.126156	0.441315
C	-0.448822	-1.305545	0.633704
H	-0.042392	-1.40179	1.644072
H	-1.543383	-1.28483	0.683719
H	-0.120287	-2.167426	0.045224
C	-0.288597	1.45133	-2.09595
H	0.660439	1.936286	-1.851471
H	-1.114062	2.061449	-1.723063
H	-0.392221	1.387929	-3.181307
N	-1.706689	-0.483335	-1.839765
H	-2.452123	-0.139587	-1.192824
H	-1.704578	-1.488774	-1.702821
H	-3.635824	0.0	0.0
