12

C	-0.237734	0.035658	-1.471898
C	0.0	0.0	0.0
Br	-2.122531	0.019361	-2.065477
H	1.095267	0.0	0.0
H	0.219716	0.900084	-1.945995
H	-0.373404	-0.925832	0.437892
N	0.403414	-1.163828	-2.119059
O	1.012778	-0.9584	-3.163758
O	0.242524	-2.252167	-1.580675
C	-0.542386	1.162978	0.659142
N	-0.964884	2.11564	1.204019
F	2.498113	0.0	0.0
