12

C	-0.517575	-0.02842	-1.424437
C	0.0	0.0	0.0
Br	0.207905	-1.494466	-2.450887
H	1.09325	0.0	0.0
H	-1.600379	-0.08642	-1.520473
H	-0.330952	0.94323	0.451679
N	-0.158833	1.293754	-2.064011
O	0.929947	1.444344	-2.591012
O	-1.028507	2.159541	-1.934236
C	-0.560225	-1.098315	0.757671
N	-1.012933	-1.99043	1.376155
F	2.512436	0.0	0.0
