12

C	-0.383612	0.027706	-1.450286
C	0.0	0.0	0.0
Br	0.234135	1.648602	-2.310488
H	1.092534	0.0	0.0
H	0.038188	-0.808238	-2.00337
H	-0.372282	0.888587	0.513147
N	-1.876724	-0.043751	-1.679941
O	-2.590321	0.718959	-1.038018
O	-2.271257	-0.883592	-2.488857
C	-0.524198	-1.199129	0.625136
N	-0.948455	-2.17738	1.121688
F	2.521519	0.0	0.0
