12

C	-0.571403	-0.040779	-1.393462
C	0.0	0.0	0.0
Br	0.298981	-1.412184	-2.461709
H	1.09112	0.0	0.0
H	-1.639393	-0.243618	-1.462706
H	-0.285249	-0.939112	0.488887
N	-0.404827	1.273017	-2.120993
O	-1.311109	1.56574	-2.90344
O	0.596802	1.936968	-1.895875
C	-0.583295	1.101514	0.742178
N	-1.059539	1.995371	1.340384
F	2.518017	0.0	0.0
