12

C	-0.435688	0.280492	-1.430496
C	0.0	0.0	0.0
Br	-0.754429	-1.338574	-2.442676
H	1.096199	0.0	0.0
H	-1.338166	0.88414	-1.525525
H	-0.322961	-0.996435	0.305299
N	0.639747	1.127819	-2.103822
O	1.370056	0.661817	-2.958168
O	0.650605	2.277578	-1.676171
C	-0.550437	0.979044	0.913693
N	-1.004783	1.762141	1.665022
F	2.507016	0.0	0.0
