12

C	-0.341766	-0.070918	-1.465914
C	0.0	0.0	0.0
Br	0.105439	1.538531	-2.424689
H	1.092654	0.0	0.0
H	0.214859	-0.88565	-1.920837
H	-0.300749	-0.950311	0.456904
N	-1.800059	-0.408415	-1.685055
O	-2.041871	-1.616268	-1.731322
O	-2.637041	0.484702	-1.709142
C	-0.612657	1.104161	0.704001
N	-1.083901	1.993027	1.31283
F	2.514968	0.0	0.0
