12

C	-0.233978	0.035867	-1.472991
C	0.0	0.0	0.0
Br	-2.116819	0.011074	-2.069556
H	1.095728	0.0	0.0
H	0.221624	0.901107	-1.945078
H	-0.374046	-0.926053	0.437102
N	0.410388	-1.16049	-2.121723
O	0.257396	-2.248331	-1.581748
O	1.014499	-0.953575	-3.169208
C	-0.542646	1.163149	0.658927
N	-0.964252	2.115384	1.20537
F	2.497662	0.0	0.0
