12

C	-0.355398	-0.167557	-1.448586
C	0.0	0.0	0.0
Br	0.226871	1.354772	-2.494071
H	1.092522	0.0	0.0
H	0.11089	-1.048969	-1.882562
H	-0.383149	0.944865	0.38849
N	-1.838205	-0.322592	-1.699237
O	-2.595482	0.474934	-1.157235
O	-2.180517	-1.256783	-2.423494
C	-0.520038	-1.114588	0.768132
N	-0.928656	-2.030275	1.382949
F	2.521514	0.0	0.0
