12

C	-0.352503	0.142511	-1.458405
C	0.0	0.0	0.0
Br	0.119178	1.863431	-2.182426
H	1.093086	0.0	0.0
H	0.18587	-0.611112	-2.030388
H	-0.301963	-1.004356	0.315976
N	-1.823481	-0.133912	-1.706648
O	-2.640694	0.773631	-1.604213
O	-2.094519	-1.32074	-1.909825
C	-0.610305	0.993206	0.854372
N	-1.083262	1.788639	1.580134
F	2.516083	0.0	0.0
