12

C	-0.571442	-0.043156	-1.399232
C	0.0	0.0	0.0
Br	0.150576	-1.536669	-2.395009
H	1.093499	0.0	0.0
H	-1.653724	-0.129359	-1.452557
H	-0.299044	-0.924236	0.505768
N	-0.271113	1.239137	-2.1389
O	-1.247951	1.96466	-2.33403
O	0.882775	1.482226	-2.450874
C	-0.555454	1.125773	0.727067
N	-0.991983	2.040501	1.323993
F	2.51463	0.0	0.0
