12

C	-0.38665	-0.034071	-1.454399
C	0.0	0.0	0.0
Br	0.102079	1.569221	-2.403158
H	1.09345	0.0	0.0
H	0.114881	-0.867967	-1.940229
H	-0.305306	-0.953188	0.44723
N	-1.868364	-0.30287	-1.623541
O	-2.662864	0.627392	-1.664513
O	-2.168007	-1.49861	-1.615269
C	-0.58639	1.097393	0.73934
N	-1.029742	1.977391	1.38123
F	2.516372	0.0	0.0
