12

C	-0.323898	0.170379	-1.461926
C	0.0	0.0	0.0
Br	0.115608	1.920233	-2.132677
H	1.102092	0.0	0.0
H	0.258407	-0.549765	-2.032822
H	-0.299842	-1.012113	0.292399
N	-1.774512	-0.163012	-1.762139
O	-2.004055	-1.373288	-1.792706
O	-2.613706	0.718856	-1.880844
C	-0.621681	0.975737	0.865432
N	-1.106505	1.751118	1.604528
F	2.51538	0.0	0.0
