14
Coordinates from ORCA-job run
  C   -0.74445355470406      0.02812852568924     -0.05655452853903
  C   0.39686417573598      0.01106902651070     -1.04671831179606
  Br  -2.38924164870039      0.21199316581981     -1.02518846082893
  H   0.38105773000179      0.94153107892919     -1.61504011945199
  H   0.31074160321146     -0.84251990655484     -1.71569511674156
  N   -0.61949711934897      1.22704076755519      0.90344824268275
  O   -0.69945568386353      1.00806312107981      2.09782720409113
  O   -0.45776713477601      2.29497755869338      0.33721212484274
  N   -0.80465378211165     -1.24852954205400      0.77467906855678
  O   0.17881882666111     -1.97755943312689      0.69011585233381
  O   -1.80650378110050     -1.42604158551847      1.44677533412865
  N   1.74999034553621     -0.07030913682243     -0.40753028552842
  O   2.63209309362211     -0.55828929820438     -1.09935158671797
  O   1.87100692983645      0.39944565800368      0.71802058296810
