14
Coordinates from ORCA-job run
  C   -0.57396199354409      0.09347110478251      0.04137884213550
  C   0.81991701925910      0.49458390047764     -0.38797434682278
  Br  -1.79771714554972      0.03496310009687     -1.41187159180764
  H   1.49132093386428      0.46425258176972      0.47125071582019
  H   0.81465196702970      1.48301121827190     -0.83742305594502
  N   -1.09779986903582      1.10822427986252      1.06744193331667
  O   -0.51692198600324      2.18363226207111      1.12168131422295
  O   -2.06224234623529      0.74534410756016      1.72120241474487
  N   -0.54304292866661     -1.22053967149332      0.84301601730542
  O   0.25510339009610     -1.17404393966388      1.77045780605062
  O   -1.29001776714818     -2.12651873058638      0.53645426511619
  N   1.35711626293073     -0.46045281336669     -1.40289779618739
  O   1.97964237169149      0.02776909004943     -2.33856004561584
  O   1.16495209131154     -1.65469648983159     -1.19315647233374
