14
Coordinates from ORCA-job run
  C   -0.58150307501034      0.03203025083372      0.02875695974827
  C   0.70133711271161     -0.52824003925016     -0.54443235095843
  Br  -1.70067490228087      0.80228761819857     -1.30056005229375
  H   0.49031073160808     -1.30718721198868     -1.27088469776733
  H   1.32699353529338     -0.91170003933579      0.26271079151097
  N   -0.28590707835747      1.00077845480696      1.18821302528951
  O   0.44303021710798      0.49685683901770      2.03323871800272
  O   -0.79527757074453      2.10226574484027      1.19263182125320
  N   -1.36251533902538     -1.09674219596503      0.71638891842334
  O   -2.24499636306154     -0.73732537817576      1.47880689004543
  O   -1.04322867549728     -2.24141072003622      0.42543665833082
  N   1.48145210630907      0.53882131960439     -1.23981463567373
  O   1.55630651641101      1.62562734164109     -0.67378346116482
  O   2.01467278453629      0.22593801580894     -2.29770858474619
