15

C	-0.477511	0.003737	-1.432025
C	0.0	0.0	0.0
Br	0.195061	-1.561628	-2.362255
H	1.093019	0.0	0.0
H	-0.338463	0.917368	0.485637
N	-2.014288	-0.01342	-1.484762
O	-2.559655	0.601285	-0.572171
O	-2.582867	-0.563157	-2.418603
C	-0.062154	1.257569	-2.187023
H	1.025786	1.336087	-2.192699
H	-0.424819	1.226886	-3.217013
H	-0.483772	2.130229	-1.680228
C	-0.490445	-1.141038	0.746726
N	-0.868322	-2.069448	1.367303
Br	2.755083	0.0	0.0
