14
Coordinates from ORCA-job run
  C   0.48182689524173     -0.27235566225268     -0.63866672933285
  C   -0.58336944618812     -0.30556582760479      0.46620988822348
  Br  1.04707804028953     -2.09981298139189     -1.01505059638529
  H   -0.14826784365968     -0.81178557386136      1.33449614137131
  H   0.02032616379697      0.08388209856721     -1.56419548872366
  C   1.69240930510506      0.57070198156330     -0.27853623818450
  H   2.15519559470190      0.20537507723522      0.64121688256475
  H   2.43627894427447      0.52389304271632     -1.07413924253113
  H   1.40254587648470      1.61469110114280     -0.13660546725873
  N   -1.76008092818827     -1.05065934355621      0.05324523429813
  H   -2.37673117565258     -1.19682239369572      0.84308462711012
  H   -2.27468061261624     -0.52982172320900     -0.64767119684961
  C   -0.89451487478210      1.08568161006228      0.86414906921350
  N   -1.19801593880737      2.18359859428451      1.15346311648448
