14
Coordinates from ORCA-job run
  C   0.61021388021393     -0.60275193949781     -0.41701092000521
  C   -0.71213123077803     -0.46859374522243      0.35435663681705
  Br  1.72350466082871     -1.93269714704793      0.48100647761594
  H   -1.09168829980656     -1.47814413779686      0.56511078977420
  H   0.37743943380444     -1.04120091365894     -1.39117148632300
  C   1.35724861436589      0.70509616513751     -0.57395140743797
  H   2.23434104451822      0.57059939710133     -1.20834096370985
  H   0.68992277158872      1.43799558768656     -1.03095542775610
  H   1.68802998370876      1.08083269905355      0.39595222018235
  N   -1.62727977341294      0.34751698560560     -0.44770015824804
  H   -2.02982631436988     -0.22781796250276     -1.17851575004326
  H   -2.38705139338702      0.69475278848520      0.12514474468118
  C   -0.49138787937649      0.18744259620301      1.64801945289045
  N   -0.34233549789775      0.72996962645395      2.67805579156225
