14
Coordinates from ORCA-job run
  C   0.50138826714876     -0.18585256890496     -0.65117839689618
  C   -0.63373026160242     -0.34198411135313      0.37071213037925
  Br  0.97212082861493     -1.95123997000103     -1.33158637909612
  H   -0.28939034022734     -1.03087536628622      1.14936494197960
  H   0.12370256982316      0.36602836866313     -1.51672071261550
  C   1.73774345413037      0.48453630556488     -0.07863605776258
  H   2.52753573316780      0.52519583590243     -0.82900158356623
  H   1.50730305453282      1.50480679991367      0.23730861616229
  H   2.11455032233056     -0.07413381895812      0.78127567734198
  N   -1.82600633855123     -0.90813917217226     -0.23714150983399
  H   -2.49608583743275     -1.16542638249219      0.47698323483068
  H   -2.26678715025191     -0.22629221513369     -0.84378136611953
  C   -0.87938569370801      0.97264232391721      1.00499208442561
  N   -1.09095860797474      2.03273397134028      1.46640932077074
