14
Coordinates from ORCA-job run
  C   0.43236149568817     -0.14869586458848     -0.67019558885781
  C   -0.64827027875806     -0.21269493603520      0.41592345813711
  Br  0.79053995130182     -1.98042173494235     -1.27247816270942
  H   -0.25480594644523     -0.82751605343022      1.24163028129205
  H   0.00845973514643      0.35935671425623     -1.53840205860568
  C   1.72767615944667      0.48832894189233     -0.20619714953175
  H   2.47274255123762      0.45990254452606     -1.00165941170015
  H   1.55265017068571      1.53240020601313      0.06501126057234
  H   2.13245284135193     -0.03822154657957      0.66093078176721
  N   -1.91046934753188     -0.68727362490243     -0.14018748763772
  H   -1.79460282677005     -1.64795589050362     -0.44107960997481
  H   -2.63021215267790     -0.66721801187699      0.57275402326055
  C   -0.85757025824178      1.14404615814614      0.94335825418104
  N   -1.01995209443348      2.22496309802498      1.37159140980705
