13
Coordinates from ORCA-job run
  C   -0.33682706790351     -0.08313615814009      0.52964780564492
  C   0.65977485675094     -1.04446663732780     -0.14577875221540
  Br  -1.51385085581092     -1.18721152198804      1.65098000665164
  H   1.22677882684099     -1.58872121680550      0.61347469877592
  H   0.09734362994481     -1.77543477979482     -0.73359037282440
  C   -1.18280864926179      0.67987451278678     -0.48297849342441
  H   -0.53595453129201      1.30844301607530     -1.10029894693687
  H   -1.71716225788147     -0.02570265697747     -1.12227717751784
  H   -1.90835554873809      1.31327383047955      0.02757720016794
  C   0.37456026683787      0.83714693059453      1.41318158665960
  N   0.95905306506787      1.59590665761801      2.09475414780048
  C   1.57821448426772     -0.31572069213178     -1.01964970990907
  N   2.29923378117760      0.28474871561133     -1.72504199287250
