13
Coordinates from ORCA-job run
  C   -0.25986482800880      0.01969001036845      0.36647266218111
  C   0.66775079875903     -0.57516277994566     -0.70629757254484
  Br  -0.81988908743762     -1.41747175749576      1.57838957346467
  H   0.11541067312295     -1.34006589034894     -1.25969303930187
  H   0.93623924353451      0.22282464695232     -1.40790379636064
  C   -1.49824058033187      0.63587930179145     -0.27777819419230
  H   -1.19643836077284      1.44585758119846     -0.94782444322217
  H   -2.03525748393282     -0.12442662964422     -0.84787170313767
  H   -2.16475199769521      1.04022659346547      0.48397492302901
  C   0.45789104544416      1.01604110415416      1.15706827881534
  N   1.02657605076408      1.85402280355198      1.75403858717600
  C   1.89000841076045     -1.15722534211547     -0.15985423345959
  N   2.88056611579400     -1.62018964193226      0.26627895755295
