13
Coordinates from ORCA-job run
  C   -0.24000700008922      0.03079046824422      0.52126239965153
  C   1.13155169829002     -0.40653736156679     -0.02825373080172
  Br  -1.12066472858217     -1.52837624491765      1.32488983362338
  H   1.72694036786776     -0.85560703108523      0.77048046285192
  H   1.66202107716577      0.48526502996262     -0.38107640066727
  C   -1.14215720055565      0.61452477468725     -0.56034775967386
  H   -0.65174484767349      1.48133473680533     -1.01262058393355
  H   -2.09271090564919      0.93168675172033     -0.13193294931080
  H   -1.33163495870402     -0.13384176613186     -1.33074377427211
  C   -0.01427482286281      1.00409362528294      1.58712102626761
  N   0.18908949206335      1.81655001452035      2.41208621747162
  C   0.99933440483601     -1.35060746056808     -1.13447679390341
  N   0.88425742389365     -2.09127553695341     -2.03738794730335
