13
Coordinates from ORCA-job run
  C   -0.42545528174311     -0.46754703601237      0.13215368490911
  C   0.68473954863072      0.54244023081852     -0.05597652976722
  Cl  0.15531360517871     -2.06914370798401     -0.41804318171953
  H   1.05092617663232      0.56406439667182     -1.08084807927107
  H   -0.63250742223789     -0.57108945511192      1.19725822830294
  H   0.34621219387670      1.53432038690189      0.25461630603627
  C   -1.67037467295174     -0.07106054668789     -0.63785437983388
  H   -2.04914329580743      0.88660802278781     -0.27024058788026
  H   -2.45079518057058     -0.82153584389312     -0.50991101767519
  H   -1.45537925422100      0.01924152485798     -1.70442858131425
  N   1.85911643360744      0.22306815378659      0.81154148627690
  O   1.62296984572734      0.01666824135781      1.99873861957621
  O   2.96637730387853      0.21396563250691      0.28299403235998
