13
Coordinates from ORCA-job run
  C   -0.56610011029161     -0.53931851828129      0.38301003783690
  C   0.93852710873385     -0.33265227271024      0.46276047615986
  Cl  -0.85477520481982     -2.29682666857176      0.56504744175969
  H   1.45882906415212     -0.83751994788407     -0.34924917775345
  H   -1.03651123457837     -0.06090090423240      1.24223632409689
  H   1.32723241611933     -0.64812207942423      1.43104068106897
  C   -1.16427162355179     -0.03691667782813     -0.91487051122448
  H   -1.04000625020351      1.04597696003918     -0.99339502710632
  H   -2.23123124902611     -0.25898142273885     -0.95096459037985
  H   -0.68179114874705     -0.50975945735560     -1.77264929179073
  N   1.22468464551429      1.12512899184424      0.33255525729608
  O   0.77162417834940      1.84845953360142      1.21783868784969
  O   1.85378940834928      1.50143246354173     -0.65336030781325
