13
Coordinates from ORCA-job run
  C   -0.31605484613562     -0.55690095780954     -0.08454015071479
  C   0.56648254940091      0.64369066463015      0.17522130306869
  Cl  0.44439190869843     -1.56527916439597     -1.35368549618761
  H   0.77205742229818      1.20680327175031     -0.73339670785613
  H   -0.34672161060637     -1.17443758354208      0.81308088742652
  H   0.11232038631708      1.28648684230624      0.93380642397144
  C   -1.70805834649643     -0.13740163281838     -0.51605973158675
  H   -1.66736907555260      0.46975695173395     -1.42250753529951
  H   -2.32252556782151     -1.01447558749762     -0.72051241762170
  H   -2.18763700994919      0.44222788582568      0.27754559700429
  N   1.89092736747577      0.23128165955151      0.73135444176465
  O   1.86791061296329     -0.53793324956416      1.68830618325184
  O   2.89527620940807      0.70618089982990      0.21038720277906
