13
Coordinates from ORCA-job run
  C   -0.40249718672741     -0.73234404961640      0.24411453969460
  C   1.04766436751537     -0.32872953592919      0.02668610740492
  Cl  -0.54532510866048     -2.43974581939363     -0.27523085847390
  H   1.71886300054258     -0.93264794345753      0.63734446662239
  H   -0.61889304450473     -0.71787952583949      1.31247880077133
  H   1.32691769337325     -0.37750827539541     -1.02431336565054
  C   -1.37946030283193      0.13662889924740     -0.52087991317580
  H   -2.39815968929254     -0.22668315713018     -0.38200490543827
  H   -1.33362782514118      1.16612649963089     -0.15718773410098
  H   -1.15064010714557      0.12983804287777     -1.58846205537740
  N   1.21602118708982      1.08718875319252      0.46338935149466
  O   1.50629785092757      1.92133591028252     -0.39061880359141
  O   1.01383916485525      1.31542020153071      1.65468436982041
