15

C	0.0	0.0	0.0
C	-0.632332	0.064163	-1.399815
Br	1.951587	0.0	0.0
H	-1.731784	0.095294	-1.215378
N	-0.465173	1.146756	0.726164
H	-1.48904	1.076872	0.79809
H	-0.058502	1.126485	1.656132
C	-0.360605	-1.298225	0.618256
N	-0.654246	-2.285281	1.187256
N	-0.398187	-1.185506	-2.222608
O	-1.369117	-1.610329	-2.837724
O	0.734851	-1.655351	-2.245275
C	-0.206281	1.211092	-2.179354
N	0.078866	2.118943	-2.867963
Br	-3.703198	0.0	0.0
