15

C	0.0	0.0	0.0
C	-0.287333	0.022102	-1.543701
Br	1.954896	0.0	0.0
H	0.218245	-0.856401	-1.949976
N	-0.495201	1.126846	0.704735
H	-1.517923	1.111601	0.583711
H	-0.293392	1.019808	1.692771
C	-0.381192	-1.328971	0.515305
N	-0.563439	-2.385028	1.001572
N	0.426079	1.194871	-2.200416
O	0.044637	2.319068	-1.907931
O	1.29792	0.909233	-3.017693
C	-1.623209	0.048929	-2.164609
N	-2.257792	0.061947	-3.162507
Br	-3.464058	0.0	0.0
