15

C	0.0	0.0	0.0
C	-0.293049	0.142158	-1.523757
Br	2.006876	0.0	0.0
H	0.156122	-0.724088	-2.014736
N	-0.531543	0.998315	0.782456
H	-0.314155	1.937153	0.491781
H	-0.546874	0.837443	1.774637
C	-0.396134	-1.333679	0.450112
N	-0.589315	-2.429498	0.828064
N	0.466888	1.326745	-2.100697
O	0.351214	2.405314	-1.525887
O	1.096571	1.125655	-3.130288
C	-1.656269	0.320079	-2.068277
N	-2.25326	0.53731	-3.070901
Br	-3.515721	0.0	0.0
