15

C	0.0	0.0	0.0
C	-0.528057	0.222209	-1.431343
Br	1.947429	0.0	0.0
H	-1.630997	0.113597	-1.339484
N	-0.495871	1.088066	0.788499
H	-1.52498	1.022577	0.749856
H	-0.206101	0.959679	1.752646
C	-0.348363	-1.338555	0.520464
N	-0.562351	-2.36187	1.060195
N	-0.042183	-0.842654	-2.373362
O	0.76653	-0.528332	-3.243545
O	-0.50511	-1.964746	-2.182627
C	-0.167229	1.540108	-1.929704
N	0.082214	2.59877	-2.374044
Br	-3.584552	0.0	0.0
