15

C	-0.349877	0.003313	-1.471438
C	0.0	0.0	0.0
Br	-2.316628	-0.148871	-1.758076
H	1.097826	0.0	0.0
H	-0.109968	0.97571	-1.90836
H	-0.330298	-0.944802	0.446067
C	0.34982	-1.10578	-2.230497
H	1.426485	-0.992636	-2.064211
H	0.132608	-1.062934	-3.3003
H	0.041951	-2.082581	-1.84912
C	-0.524857	1.188943	0.789017
H	-0.140822	1.158501	1.811518
H	-1.617653	1.204727	0.827309
H	-0.181557	2.125855	0.340703
Cl	3.560905	0.0	0.0
