16

C	0.0	0.0	0.0
C	-0.391054	-0.225311	-1.464616
Br	2.043621	0.0	0.0
H	-0.255396	-1.304981	-1.667931
H	0.318578	0.307326	-2.102993
C	-0.412815	1.359137	0.529363
H	-0.045238	2.150133	-0.123395
H	-1.503366	1.398165	0.55424
H	-0.009243	1.511138	1.53455
N	-0.517546	-1.021278	0.804338
H	-0.235352	-1.949438	0.52502
H	-0.39357	-0.874123	1.7954
N	-1.716929	0.309122	-1.70515
H	-2.020756	0.072259	-2.640757
H	-2.43168	-0.037333	-1.061479
Cl	-4.568854	0.0	0.0
