16

C	0.0	0.0	0.0
C	-0.215756	-0.311768	-1.60181
Br	2.043616	0.0	0.0
H	0.052434	-1.38287	-1.691536
H	0.60219	0.257888	-2.053406
C	-0.369938	1.418155	0.419086
H	-0.064191	1.56738	1.461231
H	0.158119	2.144476	-0.198032
H	-1.447105	1.593141	0.35389
N	-0.497265	-0.939979	0.859315
H	-0.667058	-0.658002	1.808085
H	-0.265945	-1.916286	0.747559
N	-1.384159	0.071599	-2.408114
H	-2.281659	-0.315894	-2.127383
H	-1.166728	-0.161183	-3.366299
Cl	-3.628702	0.0	0.0
