16

C	0.0	0.0	0.0
C	-0.422287	-0.14815	-1.451871
Br	2.093295	0.0	0.0
H	0.006563	0.67561	-2.036277
H	-1.51486	-0.047159	-1.420063
C	-0.40619	1.328011	0.595108
H	-0.056342	1.413804	1.627032
H	-1.501834	1.352609	0.575892
H	0.009738	2.156995	0.019807
N	-0.461419	-1.072986	0.72243
H	-0.362617	-1.957817	0.248872
H	-0.295802	-1.071002	1.713359
N	-0.084776	-1.479451	-1.951982
H	-0.739109	-1.742176	-2.677276
H	0.850584	-1.476631	-2.337587
Cl	-3.979033	0.0	0.0
