16

C	0.0	0.0	0.0
C	-0.428314	-0.361751	-1.420845
Br	1.997043	0.0	0.0
H	-0.036585	0.38215	-2.128818
H	-1.52064	-0.287012	-1.394024
C	-0.439907	1.402899	0.365065
H	-0.034391	2.136768	-0.33445
H	-0.101143	1.642874	1.374326
H	-1.533453	1.425403	0.331781
N	-0.458755	-0.937104	0.980342
H	-0.378271	-1.859169	0.558926
H	-1.458912	-0.750803	1.088763
N	-0.059331	-1.738189	-1.746446
H	-0.716368	-2.113379	-2.416921
H	0.86767	-1.764586	-2.151411
Cl	-3.764794	0.0	0.0
