16

C	0.0	0.0	0.0
C	-0.300821	0.060428	-1.525797
Br	1.984175	0.0	0.0
H	0.113757	-0.856017	-1.956273
H	0.280363	0.89778	-1.925519
C	-0.475376	1.247828	0.72507
H	-0.141331	1.239039	1.766866
H	-0.102291	2.159341	0.249634
H	-1.5714	1.238117	0.711167
N	-0.495562	-1.230549	0.556633
H	-1.496773	-1.252519	0.357981
H	-0.407774	-1.204381	1.567932
N	-1.666894	0.206429	-1.959439
H	-2.247299	-0.580942	-1.699663
H	-2.128476	0.997366	-1.528377
Cl	-4.163762	0.0	0.0
