16

C	0.0	0.0	0.0
C	-0.282623	-0.058324	-1.532158
Br	1.968034	0.0	0.0
H	0.224749	0.794216	-1.99767
H	0.216333	-0.960118	-1.908536
C	-0.504353	1.281285	0.632548
H	-0.115187	2.15344	0.103743
H	-1.598169	1.279545	0.582282
H	-0.19931	1.329145	1.679372
N	-0.497187	-1.120476	0.747858
H	-1.498283	-0.979787	0.884745
H	-0.36767	-1.976624	0.218538
N	-1.655323	-0.077826	-1.972805
H	-2.162353	0.74075	-1.659706
H	-2.172521	-0.840402	-1.553355
Cl	-4.152758	0.0	0.0
