16

C	0.0	0.0	0.0
C	-0.281998	0.009162	-1.533928
Br	1.969133	0.0	0.0
H	0.224751	-0.87067	-1.949327
H	0.218519	0.885626	-1.960852
C	-0.50082	1.249411	0.694067
H	-1.596088	1.246735	0.653711
H	-0.189124	1.247533	1.740269
H	-0.117893	2.147719	0.205728
N	-0.499438	-1.152089	0.694703
H	-1.49611	-1.007137	0.855354
H	-0.392549	-1.981874	0.121581
N	-1.654195	-0.00204	-1.975262
H	-2.16735	0.798272	-1.627424
H	-2.164185	-0.786138	-1.588159
Cl	-4.142246	0.0	0.0
