16

C	0.0	0.0	0.0
C	-0.430008	0.160195	-1.457221
Br	1.991473	0.0	0.0
H	-0.125844	-0.751459	-1.998116
H	-1.524212	0.176675	-1.409869
C	-0.441564	1.173882	0.849449
H	-0.099666	1.03265	1.876176
H	-0.048904	2.103861	0.443
H	-1.534953	1.200066	0.827549
N	-0.468666	-1.224248	0.586725
H	-0.354954	-1.980829	-0.081132
H	-1.475017	-1.097087	0.724827
N	0.043541	1.396344	-2.070687
H	0.99255	1.272387	-2.400161
H	-0.543071	1.614417	-2.866495
Cl	-3.766035	0.0	0.0
