16

C	0.0	0.0	0.0
C	-0.455455	-0.079038	-1.45243
Br	1.982384	0.0	0.0
H	-1.549541	-0.054407	-1.404123
H	-0.148135	-1.061823	-1.836042
C	-0.43061	1.300146	0.65689
H	-0.066249	2.160937	0.096606
H	-1.524749	1.298417	0.664501
H	-0.059288	1.346073	1.685358
N	-0.463124	-1.192883	0.664841
H	-1.481568	-1.189092	0.548712
H	-0.284923	-1.102483	1.660788
N	0.006498	1.054118	-2.249374
H	-0.602723	1.158886	-3.050591
H	0.943753	0.873154	-2.587014
Cl	-3.769088	0.0	0.0
