17

C	0.0	0.0	0.0
C	-0.571431	-0.056273	-1.404046
Cl	1.800942	0.0	0.0
H	-0.290098	0.825776	-1.97746
H	-1.676852	-0.121672	-1.245003
C	-0.48807	1.311798	0.594027
H	-0.133528	2.166578	0.010878
H	-1.588373	1.264722	0.581569
H	-0.12983	1.412913	1.621486
C	-0.473118	-1.155357	0.864706
H	-0.130046	-1.002677	1.891485
H	-1.571734	-1.138305	0.828257
H	-0.100253	-2.111965	0.501345
N	-0.119834	-1.211192	-2.20993
O	-0.463696	-2.340744	-1.857218
O	0.560614	-0.976481	-3.214429
H	-3.240456	0.0	0.0
