14

C	-0.008656	0.001092	-0.005128
C	-0.456492	0.124789	-1.470271
F	1.391768	-0.003376	0.016295
H	-0.114267	1.080566	-1.87338
H	-1.555396	0.104679	-1.393389
N	-0.494933	1.166478	0.670268
H	-0.280621	1.015688	1.652584
H	-1.521016	1.041855	0.574587
N	-0.459465	-1.202382	0.638751
H	-1.485606	-1.090407	0.593432
H	-0.189149	-2.009777	0.085023
C	0.041449	-0.966063	-2.295442
N	0.440238	-1.853993	-2.952934
F	-2.837928	-0.005181	0.055105
