16

C	-0.387537	-0.090686	-1.48633
C	0.0	0.0	0.0
F	-0.608042	-1.444418	-1.776768
H	1.090782	0.0	0.0
H	-1.333856	0.42245	-1.684018
N	0.61602	0.405057	-2.375973
H	0.497141	1.40813	-2.433445
H	1.526655	0.247232	-1.938901
C	-0.494553	-1.102063	0.905431
H	-1.587122	-1.132963	0.966989
H	-0.085683	-0.961545	1.905269
H	-0.13543	-2.052057	0.511983
N	-0.379273	1.320501	0.504645
O	-0.44597	2.260304	-0.305889
O	-0.532171	1.472332	1.72337
H	2.680432	0.0	0.0
