16

C	-0.447327	-0.066561	-1.444708
C	0.0	0.0	0.0
F	-0.161144	1.1744	-2.050856
H	1.09007	0.0	0.0
H	0.210724	-0.78739	-1.940162
N	-1.806977	-0.441375	-1.650802
H	-1.996758	-0.467639	-2.645029
H	-2.39256	0.26313	-1.220489
C	-0.421956	-1.216408	0.804987
H	-1.50662	-1.323385	0.862161
H	-0.003768	-2.103831	0.324452
H	0.012615	-1.147026	1.804595
N	-0.530244	1.204826	0.678615
O	0.135309	1.688772	1.59101
O	-1.644628	1.634903	0.33691
H	2.819549	0.0	0.0
