16

C	-0.466181	0.006882	-1.435975
C	0.0	0.0	0.0
F	-1.855791	0.357113	-1.469437
H	1.092018	0.0	0.0
H	0.043365	0.793254	-1.989372
N	-0.260607	-1.244556	-2.068375
H	-0.517816	-1.180284	-3.04439
H	-0.8299	-1.95494	-1.627655
C	-0.483601	-1.171185	0.821465
H	-0.138149	-1.058641	1.847664
H	-1.574162	-1.260852	0.826004
H	-0.028506	-2.08086	0.422235
N	-0.372605	1.287395	0.606737
O	-0.188322	2.304441	-0.07065
O	-0.75356	1.312041	1.784663
H	2.677954	0.0	0.0
