18

C	-0.650478	0.015326	-1.381974
C	0.0	0.0	0.0
Br	0.035623	-1.44419	-2.487303
H	1.094467	0.0	0.0
N	-2.085858	-0.02889	-1.438929
H	-2.407256	0.724804	-0.836621
H	-2.376429	-0.91355	-1.039446
N	-0.225355	1.323016	-2.065125
O	-1.098717	2.172488	-2.227406
O	0.95804	1.453756	-2.341103
C	-0.442755	-1.204233	0.813265
H	-0.268549	-2.14037	0.279951
H	0.17109	-1.227976	1.717012
H	-1.500965	-1.15509	1.109028
N	-0.450984	1.254482	0.646703
H	0.388766	1.81027	0.777329
H	-0.815257	1.053981	1.570437
F	2.627248	0.0	0.0
