18

C	-0.030169	-0.067116	-1.542072
C	0.0	0.0	0.0
Br	0.143486	1.873663	-2.245338
H	1.102151	0.0	0.0
N	1.042497	-0.850893	-1.936114
H	1.881866	-0.611173	-1.333646
H	1.235099	-0.801744	-2.927152
N	-1.324167	-0.597861	-2.214032
O	-1.73583	-1.655072	-1.739356
O	-1.837308	-0.021093	-3.165887
C	-0.445524	-1.277793	0.6922
H	-0.049082	-1.249247	1.713965
H	-1.534549	-1.364653	0.732409
H	-0.033975	-2.152895	0.194021
N	-0.711586	1.138618	0.568459
H	-0.756823	0.981906	1.570512
H	-0.143467	1.967797	0.433302
F	2.752619	0.0	0.0
