13

C	0.0	0.0	0.0
C	-0.436628	-0.783583	-1.27275
Cl	1.776591	0.0	0.0
H	0.483824	-1.05052	-1.812816
H	-0.358411	-0.524676	0.882108
C	-0.406012	1.403821	0.101074
N	-0.511408	2.55099	0.333287
N	-1.15708	0.005201	-2.342719
O	-1.926687	-0.605403	-3.064384
O	-0.752618	1.14799	-2.50538
C	-1.099265	-2.045733	-0.965534
N	-1.403198	-3.161911	-0.76098
Cl	-2.918674	0.0	0.0
