16
Coordinates from ORCA-job run
  C   0.90764603874469      0.31180899885335      0.19445217730394
  C   -0.52222580838399     -0.22427203008493      0.17558335291603
  H   0.91870582227224      1.27966556288754     -0.32592097925054
  H   -0.51651682888572     -1.21570448676607      0.64731485581363
  H   1.19102849133167      0.51995588303664      1.23242648700164
  C   1.91387634032029     -0.63699163818870     -0.44576204344356
  H   2.92158603207463     -0.21381794295639     -0.43406724248674
  H   1.63304145615798     -0.85121389737443     -1.47652358900202
  H   1.94424722846315     -1.58696667699658      0.09563216022220
  N   -0.93459460447179     -0.43101018456693     -1.21581797519113
  H   -1.03154353182346      0.47377827206388     -1.66695569471290
  H   -1.84803391084275     -0.87049273934171     -1.24047438805534
  C   -1.46317908556538      0.68416165445118      0.96724449294709
  H   -2.48651933357628      0.29779654156858      0.94949124540222
  H   -1.15365354063999      0.77393050200456      2.01303380258291
  H   -1.47486476517530      1.68837218141000      0.53034333795259
