16
Coordinates from ORCA-job run
  C   0.80458298916048     -0.73959747955027      0.40058782030384
  C   -0.68797840017414     -0.44092990629743      0.23953165774293
  H   1.07150692820785     -0.63679548923763      1.45893420459148
  H   -1.22692467026067     -1.19396445632989      0.82741977773148
  H   0.95906096167533     -1.78806777044653      0.12865332501256
  C   1.72235704005558      0.13526884869103     -0.44931728028564
  H   1.62291696412306      1.19651886359482     -0.20914431043504
  H   1.51862429608289     -0.00045860299052     -1.51389996612739
  H   2.76800046255346     -0.13654443518127     -0.28625609815185
  N   -1.07988901348477     -0.66020312224836     -1.15764088670637
  H   -2.09137608192176     -0.68171529108044     -1.22329724322869
  H   -0.77316486546439      0.12621992041411     -1.72015357705627
  C   -1.07412960670804      0.93889947247961      0.77629731799579
  H   -0.77055572319367      1.06677220582397      1.82007879467938
  H   -2.15718983155792      1.08091966349284      0.72022906375035
  H   -0.60684144909328      1.73367757886595      0.18797740018346
