16
Coordinates from ORCA-job run
  C   0.71490904006922     -0.75750589546668      0.35912313345977
  C   -0.77133832684876     -0.37185873042984      0.27207569109685
  H   1.01381264394287     -0.76533053562473      1.41466975427723
  H   -1.32119256231163     -1.07851553291777      0.90639209162455
  H   0.81787352672809     -1.79107675849284      0.00502694167038
  C   1.65981732514351      0.14349699667662     -0.43098094573155
  H   2.68273961120364     -0.23775017082801     -0.38917646358892
  H   1.37727675524310      0.19291174434968     -1.48563273185483
  H   1.67461518359880      1.16149096066188     -0.03638083150356
  N   -1.36050406763063     -0.48353496809301     -1.06441003541850
  H   -0.93299783080542      0.19276327290358     -1.68680805483911
  H   -1.17795820071779     -1.40413018869604     -1.44868541778614
  C   -1.04017465491292      1.03129638032141      0.79939015104257
  H   -0.59288219530511      1.78930415953689      0.14974319718795
  H   -0.62861403540568      1.16310127745036      1.80340972677655
  H   -2.11538221199127      1.21433798864851      0.83124379358673
