18

C	-0.307613	-0.030893	-1.50167
C	0.0	0.0	0.0
F	-0.148349	1.26974	-1.993684
H	1.098997	0.0	0.0
C	0.747276	-0.869747	-2.212145
H	0.703499	-0.666568	-3.287371
H	0.560695	-1.93539	-2.051024
H	1.724225	-0.611208	-1.784164
N	-1.691541	-0.369937	-1.786041
H	-1.895162	-1.27366	-1.375026
H	-1.792045	-0.46741	-2.791581
C	-0.410652	-1.280126	0.73143
H	0.055505	-2.142879	0.249415
H	-0.025669	-1.24228	1.752911
H	-1.495871	-1.425136	0.781548
C	-0.58263	1.163955	0.639156
N	-1.073636	2.081861	1.185566
F	2.648187	0.0	0.0
