18

C	-0.311134	-0.011901	-1.501391
C	0.0	0.0	0.0
F	-0.156366	1.296074	-1.97452
H	1.095403	0.0	0.0
C	0.746969	-0.835206	-2.225888
H	0.700608	-0.614397	-3.297763
H	1.722132	-0.576899	-1.794076
H	0.567686	-1.90453	-2.082437
N	-1.693571	-0.352277	-1.787524
H	-1.790298	-0.466953	-2.791954
H	-1.903914	-1.247054	-1.362063
C	-0.406098	-1.288388	0.719232
H	-0.005612	-1.265125	1.73486
H	-1.490419	-1.431519	0.783205
H	0.049728	-2.146113	0.218785
C	-0.576997	1.157065	0.657254
N	-1.046209	2.066806	1.235544
F	2.646308	0.0	0.0
