17

C	-0.532143	-0.059989	-1.426808
C	0.0	0.0	0.0
F	0.145046	0.823988	-2.25319
H	1.09432	0.0	0.0
H	-0.309484	-1.067075	-1.796681
C	-2.011512	0.248747	-1.55799
H	-2.318438	0.120194	-2.598325
H	-2.619227	-0.402585	-0.927582
H	-2.197564	1.286745	-1.274769
C	-0.44853	-1.195407	0.821319
H	-0.074219	-1.099222	1.84029
H	0.003129	-2.090798	0.387681
H	-1.532417	-1.311692	0.863685
N	-0.469728	1.276192	0.619895
O	-1.330613	1.218202	1.505317
O	-0.013472	2.322205	0.165846
Cl	3.379185	0.0	0.0
