17

C	-0.413776	-0.02485	-1.456024
C	0.0	0.0	0.0
F	-1.818168	-0.108009	-1.54924
H	1.093719	0.0	0.0
H	-0.13241	0.925071	-1.910835
C	0.205268	-1.179133	-2.208674
H	1.288339	-1.162365	-2.063822
H	-0.022053	-1.09262	-3.273757
H	-0.190255	-2.131547	-1.851509
C	-0.517676	-1.159512	0.823406
H	-0.173304	-1.06955	1.851904
H	-1.607756	-1.202818	0.814994
H	-0.113264	-2.087575	0.416412
N	-0.431	1.3104	0.598203
O	-0.948455	1.305226	1.715658
O	-0.222041	2.328922	-0.057718
Cl	3.344008	0.0	0.0
