17

C	-0.48554	0.056118	-1.450129
C	0.0	0.0	0.0
F	-0.305944	-1.215775	-2.001978
H	1.091324	0.0	0.0
H	-1.565322	0.247274	-1.470813
C	0.293861	1.053343	-2.274078
H	0.11677	2.070057	-1.917621
H	-0.009405	0.990143	-3.321763
H	1.360214	0.840319	-2.177398
C	-0.54804	-1.186864	0.764245
H	-0.255046	-1.120935	1.813953
H	-1.636112	-1.242026	0.698605
H	-0.109372	-2.092195	0.345628
N	-0.476672	1.270973	0.62948
O	0.323993	2.18865	0.79123
O	-1.678915	1.334972	0.914981
Cl	3.445054	0.0	0.0
