17

C	0.0	0.0	0.0
C	-0.552586	0.147806	-1.399344
F	1.427696	0.0	0.0
H	-0.164894	1.086195	-1.821184
H	-1.641461	0.231633	-1.200477
N	-0.360507	1.174828	0.755647
H	0.098918	1.115107	1.658305
H	0.015439	1.983876	0.272984
C	-0.548582	-1.212774	0.704556
H	-0.225795	-1.22038	1.75198
H	-1.645264	-1.066688	0.621554
H	-0.209399	-2.13774	0.231481
C	-0.215161	-1.016459	-2.322576
H	-0.765495	-1.912962	-2.027625
H	-0.5018	-0.7866	-3.353753
H	0.856092	-1.245596	-2.311204
F	-3.076949	0.0	0.0
