15

C	-0.542016	-0.018083	-1.420437
C	0.0	0.0	0.0
F	-0.108832	1.078021	-2.149595
H	1.100779	0.0	0.0
H	-1.636335	0.023733	-1.374153
C	-0.171058	-1.246328	-2.144853
N	0.112449	-2.213937	-2.743835
N	-0.543669	-1.211119	0.640099
H	0.111714	-1.96726	0.464897
H	-0.52897	-1.065858	1.643238
C	-0.491255	1.24298	0.718393
H	-0.201979	2.139459	0.169337
H	-0.031158	1.299218	1.708508
H	-1.581613	1.2213	0.833425
Br	3.61758	0.0	0.0
