15

C	-0.490987	-0.019486	-1.445873
C	0.0	0.0	0.0
F	-0.080093	1.099203	-2.152767
H	1.095511	0.0	0.0
H	-1.591159	-0.00795	-1.45195
C	-0.063242	-1.22883	-2.171755
N	0.220251	-2.188378	-2.783894
N	-0.430514	-1.203092	0.706
H	-1.372663	-1.479599	0.44964
H	0.201774	-1.965655	0.496082
C	-0.510459	1.246355	0.701277
H	-1.60601	1.239987	0.770195
H	-0.192523	2.147823	0.174748
H	-0.100945	1.266018	1.711355
Br	3.586893	0.0	0.0
