15

C	-0.459864	-0.017728	-1.444786
C	0.0	0.0	0.0
F	-1.854493	-0.157416	-1.499443
H	1.09646	0.0	0.0
H	-0.026366	-0.887071	-1.942273
C	-0.126364	1.207153	-2.190712
N	0.093183	2.180841	-2.808256
N	-0.413953	-1.280596	0.578814
H	0.267532	-1.544543	1.279579
H	-1.317543	-1.187178	1.027171
C	-0.507036	1.223869	0.753766
H	-0.153789	1.177811	1.786389
H	-0.128897	2.150141	0.314026
H	-1.602117	1.257065	0.755988
Br	3.565532	0.0	0.0
