15
Coordinates from ORCA-job run
  C   -0.21929227194921      0.10628841712781      0.49509135706799
  C   1.30009499598716     -0.05383687487574      0.35298409610919
  F   -0.41884563802862      0.36385165116401      1.86036086968409
  H   1.78778074181830      0.86237561828412      0.69797484971966
  H   1.63354100906260     -0.86894153031107      1.00162698743357
  C   -0.95763040885625     -1.17289128245831      0.16132321021932
  H   -2.02307782025405     -1.04319907396530      0.36080162837320
  H   -0.58925456942726     -1.99378350282820      0.78063276026051
  H   -0.82732432471845     -1.43777151846321     -0.88987710421431
  C   -0.73734509744414      1.30357388691534     -0.27366350384197
  H   -1.80265871394575      1.43376021409559     -0.07375269373478
  H   -0.59580008514730      1.17064722745657     -1.34812976916519
  H   -0.21501114956681      2.20949426269036      0.04191498817448
  C   1.69255359520248     -0.33054488223797     -1.02469390314422
  N   1.97326973726731     -0.55102261259397     -2.14259377294155
