15
Coordinates from ORCA-job run
  C   -0.19512764786296      0.00037597907291      0.33987272689307
  C   1.17135129220381     -0.48649272006178     -0.15539560889163
  F   -0.00674589027222      0.41404800321346      1.66528143553810
  H   1.51766743670300     -1.28846285486833      0.50276603796487
  H   1.07644550237052     -0.89992133422452     -1.16388834404824
  C   -1.18513171788992     -1.14761817170028      0.36408267367576
  H   -2.12771743345746     -0.80825028911904      0.79724631288520
  H   -1.37957946166499     -1.51994265037481     -0.64424744843636
  H   -0.80233588149792     -1.96687585496899      0.97642446349838
  C   -0.70313691323955      1.19525439879201     -0.43960394622179
  H   -0.84153065537640      0.94281968509444     -1.49377033863324
  H   0.00052786981049      2.02592182588212     -0.36549923677410
  H   -1.66194883330506      1.51737743515050     -0.02908575331546
  C   2.17256706921727      0.57786305755160     -0.16779004570913
  N   2.96469526426139      1.44290349056072     -0.18739292842542
