15
Coordinates from ORCA-job run
  C   -0.17458377958205      0.14375559454122      0.31791622611684
  C   1.23983511283024      0.13912445396333     -0.27282800209852
  F   -0.01833345561190      0.11110958012057      1.70981694761236
  H   1.18935792476228      0.23010903265513     -1.36191763818317
  H   1.78373100563912      1.00750394047210      0.10985544748478
  C   -0.97126759548150     -1.08190158155649     -0.07780754871758
  H   -0.46633900936142     -1.98902943144612      0.25754363036086
  H   -1.09985850221013     -1.12949820575743     -1.16169207679760
  H   -1.95704382969677     -1.04325464792269      0.38904435409933
  C   -0.88329540707145      1.43972553702973     -0.02361382096191
  H   -1.85684071010600      1.46485913699536      0.46928778074017
  H   -1.03619578543363      1.53221468483976     -1.10123971453015
  H   -0.30045284395688      2.29449316113731      0.32618584915007
  C   1.98348665058166     -1.07058587923828      0.07227444988496
  N   2.56880022469843     -2.04962537583351      0.34517411583955
