15
Coordinates from ORCA-job run
  C   -0.19211832630063      0.02475126076922      0.33887290610658
  C   1.18182715183390     -0.46569478483564     -0.13155893876500
  F   -0.00079166613702      0.55683196947446      1.62072901804216
  H   1.55325464341695     -1.20792139364187      0.58083327544919
  H   1.08962643379131     -0.95486323519936     -1.10580761386799
  C   -1.14907219847549     -1.14307988182030      0.47621581529174
  H   -0.73755299650081     -1.89299269428167      1.15516712424229
  H   -2.09709402456260     -0.79235246861184      0.88805852904359
  H   -1.34170824716609     -1.60972818846299     -0.49246192550712
  C   -0.74148932673050      1.13310655058976     -0.53478561995156
  H   -0.06076795017900      1.98567521109962     -0.54151238797365
  H   -0.88294789727455      0.78610274946707     -1.56103591913717
  H   -1.70474885308271      1.46398911648916     -0.14254848616062
  C   2.15618226426928      0.61885395050834     -0.23101703044723
  N   2.92840099309795      1.49732183845604     -0.31814874636520
