14

C	-0.599141	-0.004857	-1.378186
C	0.0	0.0	0.0
Cl	-0.017963	1.454772	-2.233675
H	1.089318	0.0	0.0
H	-0.263004	0.9214	0.519153
N	-0.129204	-1.20005	-2.231438
O	0.943448	-1.696659	-1.941676
O	-0.855369	-1.489434	-3.176534
C	-2.060157	0.004663	-1.396027
N	-3.232267	0.09301	-1.357286
N	-0.485575	-1.111615	0.773719
O	-0.281811	-1.073786	1.994716
O	-0.973515	-2.086869	0.166289
H	2.465642	0.0	0.0
