14

C	-0.608974	-0.004175	-1.373678
C	0.0	0.0	0.0
Cl	-0.022735	1.447711	-2.238948
H	1.089332	0.0	0.0
H	-0.258433	0.92318	0.518799
N	-0.154829	-1.204183	-2.22583
O	0.917532	-1.70465	-1.944883
O	-0.891113	-1.493755	-3.162425
C	-2.069855	0.017301	-1.37949
N	-3.240781	0.113624	-1.330604
N	-0.486482	-1.107875	0.778635
O	-0.27432	-1.069018	1.998105
O	-0.984833	-2.081048	0.176176
H	2.465188	0.0	0.0
