14

C	-0.4335	-0.020745	-1.432473
C	0.0	0.0	0.0
Cl	-2.227759	0.046525	-1.642942
H	1.09255	0.0	0.0
H	-0.339073	0.904725	0.495574
N	0.089558	1.295984	-2.06382
O	0.622176	1.222667	-3.161113
O	-0.108771	2.311893	-1.416699
C	0.076551	-1.126041	-2.235365
N	0.474665	-1.99723	-2.916224
N	-0.457185	-1.138537	0.750188
O	-0.612357	-2.219749	0.159376
O	-0.547916	-0.990033	1.977845
H	2.483697	0.0	0.0
