14

C	-0.485246	0.015292	-1.422886
C	0.0	0.0	0.0
Cl	0.32159	-1.150587	-2.471524
H	1.088467	0.0	0.0
H	-0.30278	0.899248	0.530345
N	-2.034876	-0.202505	-1.483704
O	-2.50388	-0.988817	-2.285293
O	-2.654454	0.509444	-0.702283
C	-0.289217	1.355126	-1.980655
N	-0.154008	2.431593	-2.433171
N	-0.489111	-1.13593	0.746392
O	-0.357431	-1.070912	1.972724
O	-0.920759	-2.127698	0.132956
H	2.500577	0.0	0.0
