14

C	-0.498839	0.037667	-1.416577
C	0.0	0.0	0.0
Cl	0.143276	-1.25547	-2.423749
H	1.088455	0.0	0.0
H	-0.278438	0.909905	0.528767
N	-2.064638	0.026648	-1.464998
O	-2.579172	0.833529	-0.699494
O	-2.637753	-0.712364	-2.243319
C	-0.127911	1.321698	-2.014494
N	0.154762	2.351058	-2.504121
N	-0.525468	-1.118175	0.757796
O	-0.205487	-1.153414	1.950853
O	-1.211119	-1.978296	0.182186
H	2.525823	0.0	0.0
