14

C	-0.598892	-0.06943	-1.374179
C	0.0	0.0	0.0
Cl	-2.390685	-0.178783	-1.345054
H	1.090795	0.0	0.0
H	-0.288339	-0.885871	0.564527
N	-0.183609	1.134389	-2.273136
O	1.018844	1.179853	-2.477048
O	-1.044291	1.876217	-2.707063
C	-0.097063	-1.257825	-2.060958
N	0.308778	-2.216912	-2.605751
N	-0.425955	1.155554	0.737314
O	-0.523252	1.038776	1.968625
O	-0.52038	2.231043	0.121155
H	2.455995	0.0	0.0
