17

C	0.0	0.0	0.0
C	-0.61392	-0.008435	-1.387199
Cl	1.797523	0.0	0.0
H	-1.733751	-0.087877	-1.110632
C	-0.476661	1.249119	0.732052
H	-0.118857	2.131874	0.205662
H	-0.109036	1.235719	1.759896
H	-1.57503	1.199503	0.713403
C	-0.375165	-1.173864	0.805314
N	-0.531027	-2.05089	1.572006
N	-0.216438	-1.253738	-2.135092
O	-0.50584	-2.337449	-1.628447
O	0.340198	-1.121636	-3.233208
N	-0.316462	1.1797	-2.108173
H	0.60091	1.106644	-2.532535
H	-0.995418	1.298291	-2.8486
H	-3.020594	0.0	0.0
