12
Coordinates from ORCA-job run
  C   -0.45617915281958      0.06808142291384     -0.22595198661230
  C   0.95306445844912     -0.43922348282237      0.07875092205893
  Cl  -0.81847622605239     -0.08084876019682     -1.94992516922710
  H   1.03641752355046     -1.46779960653836     -0.27560828696957
  H   1.10189797651673     -0.43801402649314      1.16322174332162
  N   -1.47141929770741     -0.82837922149540      0.51843106132681
  O   -1.13561750521965     -1.99261116843680      0.68215693149252
  O   -2.52855795118950     -0.30448620152988      0.83257069466128
  C   -0.65149130760429      1.44055755825500      0.21891195543022
  N   -0.75122727653296      2.55251683175175      0.58709983638957
  C   1.95543675862214      0.40655950019270     -0.55950202747996
  N   2.76715199998735      1.08264715439947     -1.07015567439202
