12
Coordinates from ORCA-job run
  C   -0.54981031699388      0.08035833121714     -0.38686246323633
  C   0.91663306619199     -0.25257782790108     -0.64696308072662
  Cl  -1.51436861891375     -0.35364246676460     -1.80651201445044
  H   1.25336085022704      0.33222967484222     -1.50700421899485
  H   0.99574362530500     -1.31351686788868     -0.89013858359027
  N   -1.07517783874275     -0.78361346708345      0.78166423842286
  O   -0.56862456070593     -1.89000462117531      0.89136017826144
  O   -1.97862246913397     -0.30174836655486      1.44726406904484
  C   -0.74810461732816      1.48234165270597     -0.05017924881946
  N   -0.85346676796932      2.62994935756453      0.18185133796167
  C   1.73565991768160      0.05664560044322      0.52168446563026
  N   2.38477773038213      0.31457900059491      1.46483532049690
