12
Coordinates from ORCA-job run
  C   -0.50215478008467      0.11991520857759     -0.37673418120504
  C   0.97346417914236      0.44631307029195     -0.11266136826857
  Cl  -0.72583485404851     -0.62844753047202     -1.94371839182439
  H   1.32304925591149      1.12909260715953     -0.89099364474700
  H   1.04889780268512      0.94852288655552      0.85517845209810
  N   -0.94686074030187     -0.84459705995498      0.76322238052541
  O   -1.23674091960024     -1.99054900980259      0.48016965794820
  O   -0.91381404523336     -0.31943630229538      1.86769082904346
  C   -1.31617058276716      1.32319095224446     -0.25922030453232
  N   -1.93995918485631      2.31655667341733     -0.18294936993843
  C   1.78869609662646     -0.76439084781586     -0.10698074594031
  N   2.44642777252670     -1.73617064790556     -0.09200331315912
