12
Coordinates from ORCA-job run
  C   -0.46896380776795      0.10109872584903     -0.18382280881709
  C   0.94754805489773     -0.45357760378717     -0.03680845526502
  Cl  -0.94522752997954      0.16545350672359     -1.88514307430000
  H   0.98742458820277     -1.43432038260132     -0.51355796250572
  H   1.16794787783869     -0.58172268283335      1.02773533514942
  N   -1.44957194429156     -0.86877631817259      0.51311080681986
  O   -2.47451217432357     -0.37628519513606      0.95782702013435
  O   -1.12557110100807     -2.04776545307130      0.51166543768924
  C   -0.61032073927412      1.41166161020887      0.43440120032874
  N   -0.66511690759478      2.47152134149791      0.94000897343556
  C   1.92215439148443      0.44834208054035     -0.64041095112192
  N   2.71320929181596      1.16537037078204     -1.12700552154742
