12
Coordinates from ORCA-job run
  C   -0.55224719068728      0.06938681878675     -0.39248712198783
  C   0.91061808138536     -0.29429916716484     -0.63486284640302
  Cl  -1.52287950965521     -0.42798941355637     -1.78658264131741
  H   1.25862223200521      0.24623443565370     -1.51893030923966
  H   0.97393759110928     -1.36625667648563     -0.82949103914092
  N   -1.07590222451197     -0.72974458970931      0.82189370220718
  O   -0.65085925648797     -1.87072920386805      0.91968381210562
  O   -1.88927044210870     -0.16703935206681      1.53814808884000
  C   -0.73373039837529      1.48969652616175     -0.13187423800540
  N   -0.82631996198502      2.64971049575598      0.03484724068369
  C   1.72947884958561      0.05550656360194      0.52243649994948
  N   2.37755222972598      0.34452356289090      1.45721885230826
