12
Coordinates from ORCA-job run
  C   -0.45191925102016      0.00934684815661     -0.24328293395238
  C   0.98756543253179     -0.33865113049935      0.13415101591092
  Cl  -0.73588352627062     -0.27508066350748     -1.96505623568954
  H   1.18274879424773     -1.37255448368064     -0.15491267960152
  H   1.09637600692188     -0.26148724722804      1.22058855646680
  N   -1.40381248737534     -0.93614724361193      0.52330051027620
  O   -2.52398502036156     -0.50723769452297      0.75105594861094
  O   -0.95809142100173     -2.04321554519027      0.78924669759812
  C   -0.79424698554012      1.37982781507513      0.10957352993726
  N   -1.01305492304002      2.49619578991434      0.40592244589445
  C   1.92666083626378      0.56331187838119     -0.52320178651456
  N   2.68864254464438      1.28469167671340     -1.04838506893668
