12
Coordinates from ORCA-job run
  C   -0.47803634643591      0.06990251450955     -0.27492359974412
  C   0.94241166194960     -0.39755050981960      0.07265812349719
  Cl  -0.77966396531612     -0.03842979504944     -1.99546140547366
  H   1.05734125327018     -1.42919491768998     -0.27392884727296
  H   1.05748499539960     -0.37198170262377      1.15966532214211
  N   -1.41808778953208     -0.89350429049851      0.50987210589001
  O   -1.37240545507314     -0.73082298519331      1.72159606008195
  O   -2.05039424056969     -1.72519380947874     -0.11342416628070
  C   -0.74061255674913      1.41746914027963      0.21170844341912
  N   -0.92644627691924      2.51362596139785      0.59360612343112
  C   1.94721296653223      0.45136049167412     -0.55554077898529
  N   2.76119575344370      1.13331990249222     -1.05482738070477
