12
Coordinates from ORCA-job run
  C   -0.46562215535984      0.12795524563049     -0.17878184606658
  C   0.94791694361116     -0.44607269859560     -0.08458147015851
  Cl  -0.90305037670123      0.44746781388758     -1.86168319995466
  H   1.14157114410957     -0.73825992937448      0.95253145011239
  H   1.00129169187113     -1.34099783837030     -0.70666988257862
  N   -1.45884758010759     -0.93439028696606      0.34302480006021
  O   -2.48263372353358     -0.51423382841812      0.85891528518254
  O   -1.14227780729008     -2.09929624079633      0.14906514364078
  C   -0.62201513501707      1.33180268572745      0.62483515943282
  N   -0.68858813566878      2.30557569924117      1.28005496123140
  C   1.93546416037064      0.53720396193785     -0.51511502608563
  N   2.73579097371567      1.32224541609635     -0.86159537481614
