12
Coordinates from ORCA-job run
  C   -0.45117904543416      0.27021358567278     -0.36272302696977
  C   1.02114236935628      0.33616724120368      0.06356632617097
  Cl  -0.61181479570339     -0.03263832488307     -2.07968336331502
  H   1.50783866568635      1.14187040209022     -0.49156952001164
  H   1.06151909001846      0.57009904667817      1.13050076544068
  N   -1.09401070782065     -0.88348923506556      0.46309607458315
  O   -1.10418923390010     -0.65686864409965      1.66531727092098
  O   -1.47663641505485     -1.87833816046461     -0.12103301774845
  C   -1.14148754534534      1.49849481012368      0.01075705431405
  N   -1.66309114347253      2.51110926136674      0.30088527054007
  C   1.70206455093918     -0.92937308602792     -0.19172663285418
  N   2.25084421073075     -1.94824689659446     -0.38638720107084
