12
Coordinates from ORCA-job run
  C   -0.46461728492987      0.12730894254918     -0.18095460783922
  C   0.94904332217152     -0.44493471938155     -0.07840136767193
  Cl  -0.89288459264938      0.44483767110125     -1.86651336373990
  H   1.13800948789332     -0.73486030442296      0.96016302309243
  H   1.00659025440230     -1.34096668319671     -0.69847987140410
  N   -1.45969976508260     -0.93552446394790      0.33602889315767
  O   -1.14088083220506     -2.10035655954168      0.14513651214526
  O   -2.48756317894989     -0.51594053441870      0.84428051088428
  C   -0.62675139190573      1.33162843451558      0.62091751492013
  N   -0.69782015795353      2.30578199584810      1.27508279619594
  C   1.93762632783599      0.53839823833599     -0.50631713055742
  N   2.73894781137293      1.32362798255939     -0.84994290918313
