12
Coordinates from ORCA-job run
  C   -0.46932557302734      0.14163928483864     -0.40708025702300
  C   1.02567292831302      0.30851257037697     -0.10649115716090
  Cl  -0.73308469045487     -0.72662292350500     -1.90420141895976
  H   1.48367947638147      0.86826532055388     -0.92587875187537
  H   1.13027578422729      0.88634419122244      0.81541593038734
  N   -1.07439096247516     -0.64005883607927      0.79724252800340
  O   -1.50321215207999     -1.76189203172302      0.61082344013625
  O   -1.01102963878859     -0.01522434869085      1.84715618289015
  C   -1.12545713566126      1.44272939002738     -0.44360505627902
  N   -1.62050801045331      2.50766027295850     -0.49511516588840
  C   1.68315338455382     -0.98626260623040      0.04217027686823
  N   2.21422658946493     -2.02509028374928      0.16856344890107
