12
Coordinates from ORCA-job run
  C   -0.44334613436572      0.36217429063876     -0.21599627725299
  C   1.07361722423906      0.20494615670345     -0.08895477518510
  Cl  -0.94462935255973      0.37625923710340     -1.89813296476233
  H   1.54552869195668      1.04437822987109     -0.60595098736326
  H   1.34953228910570      0.24163402729323      0.96618706966673
  N   -1.13603943672186     -0.82108943725093      0.53226046910119
  O   -0.53767881052277     -1.20118725648077      1.52876980797942
  O   -2.20624264568537     -1.20930943437109      0.10489214008746
  C   -0.89164899324854      1.57293964705207      0.46294400228825
  N   -1.22441381043151      2.55169841643704      1.02308464802275
  C   1.52532727704165     -1.05505669545678     -0.67109104980044
  N   1.89199370119239     -2.06738718153947     -1.13701208278171
