12
Coordinates from ORCA-job run
  C   -0.50359166621969     -0.05069712612524     -0.45598019961581
  C   1.00956212342128     -0.25122851372449     -0.48712187810251
  Cl  -1.23264564458790     -0.83766015920982     -1.86377325715840
  H   1.21751456658135     -1.32185706643897     -0.52578154187117
  H   1.40065912323339      0.21729475684031     -1.39395390842134
  N   -1.08057306743867     -0.75250295334013      0.79382836707235
  O   -0.53972196017573     -1.80416068459885      1.09983442607683
  O   -2.04146634503610     -0.21911961301191      1.32610642055130
  C   -0.87410443154589      1.35617779845747     -0.41504699500461
  N   -1.11370227473765      2.50706406135335     -0.41858394099860
  C   1.63433805521732      0.33877969390884      0.69346849882920
  N   2.12473152128829      0.81790980588943      1.64600400864275
