15

C	-0.392446	-0.039171	-1.47532
C	0.0	0.0	0.0
Br	0.182792	1.520758	-2.448478
H	1.096094	0.0	0.0
H	0.054157	-0.902724	-1.96347
N	-1.881485	-0.204023	-1.643753
O	-2.609677	0.741524	-1.35838
O	-2.257802	-1.317036	-2.011288
C	-0.4558	-1.247495	0.613545
N	-0.823693	-2.239052	1.126271
C	-0.484259	1.205364	0.804797
H	-0.117007	2.123585	0.346536
H	-1.57163	1.248183	0.878548
H	-0.054844	1.135823	1.805708
Cl	3.257162	0.0	0.0
