15

C	-0.570709	-0.060722	-1.416075
C	0.0	0.0	0.0
Br	0.245411	-1.429017	-2.494356
H	1.094835	0.0	0.0
H	-1.644162	-0.241968	-1.414704
N	-0.419186	1.285122	-2.077691
O	-1.45422	1.955578	-2.123075
O	0.687552	1.636612	-2.456134
C	-0.474648	-1.188641	0.704831
N	-0.888457	-2.113064	1.300261
C	-0.454808	1.26479	0.740457
H	0.00441	2.141282	0.281168
H	-1.541968	1.381451	0.740822
H	-0.097116	1.209981	1.76944
Cl	3.285344	0.0	0.0
