15

C	-0.563038	-0.012543	-1.420787
C	0.0	0.0	0.0
Br	0.263391	-1.340942	-2.541526
H	1.094851	0.0	0.0
H	-1.635914	-0.196251	-1.434167
N	-0.410726	1.353772	-2.041158
O	-1.449009	2.01807	-2.079853
O	0.696258	1.722564	-2.400656
C	-0.476951	-1.21337	0.659433
N	-0.89297	-2.158664	1.219817
C	-0.457223	1.238564	0.781738
H	-0.103743	1.148266	1.809661
H	0.004408	2.130064	0.354257
H	-1.544223	1.355315	0.782651
Cl	3.287781	0.0	0.0
