15

C	-0.386803	0.025755	-1.458093
C	0.0	0.0	0.0
Br	-2.30834	-0.10197	-1.771504
H	1.096671	0.0	0.0
H	-0.058716	0.950563	-1.927289
N	0.255593	-1.072974	-2.269725
O	0.529612	-2.120311	-1.700404
O	0.433054	-0.815321	-3.457725
C	-0.504459	-1.166902	0.714589
N	-0.932646	-2.044208	1.367826
C	-0.446494	1.284146	0.705291
H	-1.534534	1.367146	0.752133
H	-0.035513	2.15077	0.182152
H	-0.043854	1.286098	1.718996
Cl	3.251271	0.0	0.0
