15

C	-0.262107	0.128668	-1.482662
C	0.0	0.0	0.0
F	-1.592592	0.37654	-1.796877
H	1.091183	0.0	0.0
H	-0.421744	-0.921997	0.399649
C	0.645259	1.147515	-2.107232
H	0.564656	1.146211	-3.193617
H	0.360265	2.126484	-1.715218
H	1.657233	0.908222	-1.763806
N	-0.022085	-1.256365	-2.09824
O	-0.685438	-2.177329	-1.627809
O	0.752929	-1.358628	-3.044381
C	-0.516795	1.149259	0.713839
N	-0.922505	2.081918	1.303028
F	2.586845	0.0	0.0
