15

C	-0.256997	0.100277	-1.486474
C	0.0	0.0	0.0
F	-1.587496	0.317232	-1.811083
H	1.091185	0.0	0.0
H	-0.423049	-0.916346	0.412337
C	0.636461	1.124874	-2.122658
H	0.569622	1.09846	-3.211375
H	0.325351	2.104722	-1.755646
H	1.649399	0.914033	-1.766258
N	0.01858	-1.29033	-2.074496
O	-0.684625	-2.203107	-1.640904
O	0.867982	-1.410406	-2.950778
C	-0.521356	1.160611	0.691492
N	-0.933597	2.103633	1.25939
F	2.583256	0.0	0.0
