15

C	-0.251076	-0.049805	-1.49369
C	0.0	0.0	0.0
F	-0.118476	1.199395	-2.029829
H	1.093455	0.0	0.0
H	-0.331137	-0.938127	0.450425
C	0.723463	-0.989603	-2.162164
H	0.66465	-0.87833	-3.247523
H	1.708117	-0.713011	-1.761387
H	0.500692	-2.019173	-1.879687
N	-1.687298	-0.478985	-1.806925
O	-2.014908	-1.586483	-1.384055
O	-2.408662	0.277407	-2.448622
C	-0.628127	1.129318	0.650633
N	-1.135727	2.035952	1.199732
F	2.601185	0.0	0.0
