15

C	-0.250336	-0.036625	-1.494283
C	0.0	0.0	0.0
F	-0.121795	1.218281	-2.018375
H	1.093467	0.0	0.0
H	-0.330781	-0.942527	0.441574
C	0.728922	-0.965746	-2.171388
H	0.510482	-1.999153	-1.898666
H	0.67061	-0.844419	-3.255627
H	1.7121	-0.688731	-1.767908
N	-1.68486	-0.467608	-1.811489
O	-2.410726	0.295066	-2.440367
O	-2.006607	-1.582305	-1.403686
C	-0.629476	1.122629	0.660574
N	-1.139443	2.02266	1.218208
F	2.601519	0.0	0.0
