15

C	-0.335033	0.154988	-1.471424
C	0.0	0.0	0.0
F	-1.592888	0.683653	-1.674537
H	1.090991	0.0	0.0
H	-0.308922	0.931216	0.487108
C	0.719845	0.991327	-2.154136
H	1.695218	0.644104	-1.795088
H	0.623528	0.943664	-3.240702
H	0.581286	2.024886	-1.825797
N	-0.370075	-1.226501	-2.115251
O	0.717981	-1.746179	-2.339596
O	-1.468433	-1.728274	-2.33742
C	-0.634581	-1.119835	0.660979
N	-1.134795	-2.023793	1.221673
F	2.593733	0.0	0.0
