15

C	-0.567294	0.046884	-1.393504
C	0.0	0.0	0.0
F	-0.053793	-1.008303	-2.109228
H	1.090182	0.0	0.0
H	-0.293675	-0.972867	0.411917
C	-2.072344	-0.003278	-1.509648
H	-2.361972	-0.036305	-2.559032
H	-2.517476	0.868931	-1.029193
H	-2.422696	-0.903816	-1.002647
N	-0.097736	1.289869	-2.149609
O	0.609229	2.10069	-1.56662
O	-0.493279	1.386793	-3.31226
C	-0.567899	1.042111	0.830283
N	-1.044295	1.88786	1.493858
F	2.523267	0.0	0.0
