15

C	-0.259538	0.132591	-1.482588
C	0.0	0.0	0.0
F	-1.586919	0.382314	-1.790152
H	1.091239	0.0	0.0
H	-0.422746	-0.922167	0.394894
C	0.6464	1.15144	-2.106772
H	0.363825	2.133642	-1.716859
H	0.566631	1.150137	-3.191702
H	1.656861	0.902628	-1.767707
N	-0.014841	-1.253705	-2.095855
O	-0.71091	-2.170265	-1.663707
O	0.805702	-1.360859	-3.001823
C	-0.51819	1.145523	0.718298
N	-0.925946	2.076385	1.308795
F	2.590343	0.0	0.0
