15

C	-0.266913	0.151145	-1.479493
C	0.0	0.0	0.0
F	-1.598473	0.404234	-1.785916
H	1.091215	0.0	0.0
H	-0.421016	-0.927477	0.387061
C	0.641016	1.178431	-2.090133
H	0.359118	2.151548	-1.681511
H	1.653115	0.93241	-1.751446
H	0.558454	1.194839	-3.175824
N	-0.031891	-1.223898	-2.119055
O	0.718472	-1.304954	-3.087285
O	-0.675271	-2.157646	-1.645535
C	-0.515719	1.138499	0.73193
N	-0.921459	2.063059	1.333813
F	2.586647	0.0	0.0
