15

C	-0.416164	0.034159	-1.455898
C	0.0	0.0	0.0
F	-0.193976	-1.205432	-1.992115
H	1.093229	0.0	0.0
H	-0.329553	-0.966202	0.395481
C	-1.8348	0.442369	-1.776705
H	-2.031147	1.449165	-1.411885
H	-2.515996	-0.25638	-1.288334
H	-1.993129	0.398338	-2.857456
N	0.493191	1.001017	-2.207361
O	0.477505	2.153019	-1.789145
O	1.094921	0.593737	-3.188268
C	-0.574823	1.064878	0.791128
N	-1.032922	1.921324	1.454367
F	2.519305	0.0	0.0
