15

C	-0.442992	0.015985	-1.443986
C	0.0	0.0	0.0
F	0.040752	-1.078305	-2.098628
H	1.094253	0.0	0.0
H	-0.324867	0.924748	0.482206
C	-1.930795	0.103997	-1.712022
H	-2.343733	1.002122	-1.253389
H	-2.112504	0.123331	-2.790055
H	-2.410407	-0.77819	-1.284629
N	0.191769	1.239588	-2.101552
O	0.85369	1.07908	-3.116189
O	-0.080958	2.317873	-1.579251
C	-0.573532	-1.138851	0.682353
N	-1.046312	-2.063779	1.234456
F	2.521932	0.0	0.0
