19

C	-0.453968	-0.018983	-1.467389
C	0.0	0.0	0.0
Cl	-2.219178	-0.235002	-1.597159
H	1.09076	0.0	0.0
N	-0.095312	1.373835	-2.013595
O	-0.983263	2.190835	-2.2357
O	1.108334	1.553737	-2.159008
C	0.259176	-1.038156	-2.330275
H	1.332809	-0.958353	-2.151207
H	-0.07469	-2.037858	-2.061579
H	0.024058	-0.852645	-3.381038
N	-0.414441	-1.303158	0.618471
O	0.216785	-2.305067	0.286579
O	-1.353899	-1.298036	1.417209
C	-0.530971	1.162601	0.807679
H	-0.0986	2.088551	0.425279
H	-1.618769	1.222759	0.78551
H	-0.20298	1.050366	1.841442
Cl	3.293337	0.0	0.0
