19

C	-0.4165	0.006845	-1.471572
C	0.0	0.0	0.0
Cl	0.237595	-1.443261	-2.242663
H	1.091699	0.0	0.0
N	-1.944559	0.011914	-1.652502
O	-2.492255	1.044003	-1.268203
O	-2.511513	-0.94078	-2.164511
C	0.131901	1.234127	-2.174623
H	-0.081289	1.17049	-3.24375
H	1.211992	1.259606	-2.01372
H	-0.331804	2.133669	-1.772356
N	-0.461413	-1.27946	0.633761
O	-1.670022	-1.520387	0.557268
O	0.363201	-1.977393	1.210941
C	-0.499477	1.135954	0.876802
H	-0.036609	1.013713	1.859085
H	-1.584175	1.13615	0.973876
H	-0.168051	2.09478	0.478646
Cl	3.313444	0.0	0.0
