19

C	-0.45204	-0.042083	-1.469348
C	0.0	0.0	0.0
Cl	-2.205021	-0.349299	-1.594596
H	1.090768	0.0	0.0
N	-0.182406	1.373982	-2.005504
O	0.984937	1.588295	-2.310128
O	-1.099081	2.186301	-2.049203
C	0.31351	-1.017932	-2.337603
H	0.086094	-0.826287	-3.388719
H	1.38079	-0.897539	-2.144911
H	0.01808	-2.033069	-2.084531
N	-0.420229	-1.288321	0.644075
O	-1.280147	-1.247365	1.524835
O	0.123696	-2.317509	0.24929
C	-0.515568	1.181661	0.79035
H	-0.049857	2.092148	0.411538
H	-0.210645	1.066212	1.830199
H	-1.600707	1.27393	0.746216
Cl	3.292283	0.0	0.0
