19

C	-0.534002	0.005284	-1.433257
C	0.0	0.0	0.0
Cl	0.359807	1.279075	-2.31332
H	1.089088	0.0	0.0
N	-0.138914	-1.295787	-2.14472
O	0.830121	-1.897962	-1.710929
O	-0.803012	-1.604238	-3.13136
C	-2.015571	0.24645	-1.612892
H	-2.274583	1.214663	-1.184434
H	-2.582439	-0.543629	-1.122595
H	-2.254577	0.255739	-2.674088
N	-0.440065	-1.233071	0.731069
O	0.005763	-1.378203	1.863182
O	-1.238342	-2.003144	0.188869
C	-0.46825	1.192502	0.823327
H	0.078731	1.185579	1.765375
H	-1.541615	1.151988	1.030056
H	-0.231746	2.119047	0.300618
Cl	3.324118	0.0	0.0
