19

C	-0.449863	-0.066024	-1.471168
C	0.0	0.0	0.0
Cl	-2.180637	-0.480012	-1.595539
H	1.090695	0.0	0.0
N	-0.274506	1.366229	-2.00364
O	-1.237045	2.124768	-2.016709
O	0.870519	1.652821	-2.333928
C	0.377607	-0.988529	-2.340537
H	0.150838	-2.020211	-2.084034
H	0.139397	-0.812891	-3.392034
H	1.434748	-0.798889	-2.146283
N	-0.41555	-1.279792	0.664297
O	0.086218	-2.319745	0.243633
O	-1.228943	-1.222017	1.58689
C	-0.516419	1.19344	0.771911
H	-0.224233	1.088473	1.816057
H	-0.039048	2.095327	0.386944
H	-1.600475	1.29361	0.713793
Cl	3.289535	0.0	0.0
