19

C	-0.399104	-0.000304	-1.474335
C	0.0	0.0	0.0
Cl	0.172411	-1.503909	-2.209112
H	1.091679	0.0	0.0
N	-1.920072	0.09524	-1.672786
O	-2.540682	-0.828934	-2.173006
O	-2.404943	1.166282	-1.314106
C	0.235987	1.173767	-2.193906
H	1.311877	1.135046	-2.015039
H	0.033522	1.099512	-3.264261
H	-0.17241	2.109364	-1.816775
N	-0.494256	-1.248127	0.654627
O	0.305633	-1.94709	1.264746
O	-1.707296	-1.462368	0.568291
C	-0.471881	1.168499	0.851188
H	-1.555746	1.20466	0.942938
H	-0.016453	1.052325	1.837723
H	-0.109187	2.107426	0.435103
Cl	3.323673	0.0	0.0
