16

C	-0.456867	0.01036	-1.455359
C	0.0	0.0	0.0
F	0.022785	-1.139751	-2.081141
H	1.095839	0.0	0.0
H	0.027056	0.861784	-1.947102
C	-1.957887	0.035483	-1.660784
H	-2.177345	-0.019828	-2.729359
H	-2.403547	0.949791	-1.262236
H	-2.414106	-0.82726	-1.168552
C	-0.503347	-1.191784	0.678236
N	-0.961708	-2.115448	1.24124
C	-0.435823	1.264406	0.748501
H	-1.518351	1.318189	0.88815
H	0.045431	1.287927	1.727435
H	-0.099425	2.14575	0.196134
Br	3.54669	0.0	0.0
