11
Coordinates from ORCA-job run
  C   -0.82782668437558      0.31177576256041      0.09872875672556
  C   0.49995558213445      0.39605184860861      0.34064216378864
  H   0.83842200873983      1.22970439739926      0.95343526658474
  C   -1.38915926830999     -0.74449654194927     -0.69597188766576
  N   -1.83321652460867     -1.61680862538080     -1.34756731550444
  C   -1.74345231083603      1.28147052551801      0.62969742423879
  N   -2.48687913444967      2.08059578522371      1.06601850429283
  C   1.52492765357216     -0.55708473448769     -0.16833962922670
  H   2.06952600633117     -1.00496524443821      0.66822013057243
  H   2.26116599228030     -0.02405294431674     -0.77708916471828
  H   1.08553667952202     -1.35419022873727     -0.76877424908781
