11
Coordinates from ORCA-job run
  C   -0.84454662642092     -0.23302273524826      0.15599110521692
  C   0.47744368369049     -0.35040826466560      0.41520819629418
  H   0.76848835535595     -1.06378374907793      1.18425088896486
  C   -1.81417672905833     -1.01718192924968      0.86697963563166
  N   -2.60205076947586     -1.66438069268395      1.45182275171231
  C   -1.34573826565295      0.67562221720163     -0.83674559318057
  N   -1.74010737203176      1.42573758427053     -1.65192200221546
  C   1.55541863064366      0.41501306268812     -0.27050104138071
  H   2.25075610453816     -0.27436279061197     -0.75835308030907
  H   2.13519258812104      0.98504810191527      0.46156589650210
  H   1.16132040029051      1.10271919546185     -1.01929675723620
