11
Coordinates from ORCA-job run
  C   -0.82944549165569      0.26568508045137      0.18243820126076
  C   0.50047440358068      0.50511478828853      0.12996125526640
  H   0.83756240281530      1.48951803027148      0.44922296181975
  C   -1.39063719603090     -0.99558151306707     -0.21303192700725
  N   -1.83607671591125     -2.03342342571624     -0.53999161343119
  C   -1.74841942858879      1.26950701014222      0.63895783269035
  N   -2.49490079849798      2.09680438222149      1.01347902814127
  C   1.52907762277996     -0.46964245348728     -0.32826295048918
  H   2.25647343711478     -0.64860999714897      0.46914141766773
  H   2.08385954345623     -0.05628768288595     -1.17593126807697
  H   1.09203222093767     -1.42308421906956     -0.62598293784169
