11
Coordinates from ORCA-job run
  C   -0.85777970348818     -0.19954551084779      0.12840183039380
  C   0.44169751166245     -0.29277074233173      0.49110968112625
  H   0.66593234735670     -0.89156265709958      1.37182933195483
  C   -1.88719163991008     -0.86386340189097      0.87656048256561
  N   -2.72376082700327     -1.41139542558539      1.49475702283318
  C   -1.27481694689255      0.56203715246074     -1.01519154495790
  N   -1.60174886032259      1.18952050294121     -1.95432956234752
  C   1.57838998282220      0.35636309941595     -0.21936109512342
  H   2.29357230991912     -0.40226019902139     -0.55079349444932
  H   1.25043133415581      0.93125787238884     -1.08582017017410
  H   2.11527449170038      1.02221930957008      0.46283751817859
