11
Coordinates from ORCA-job run
  C   -0.86033190167085     -0.19006897092732      0.11998768483635
  C   0.43821521781653     -0.33847095018108      0.46581260993526
  H   0.65378231880308     -1.00290007126421      1.30068240292324
  C   -1.90234171178033     -0.88077067676146      0.82523088401179
  N   -2.75095240336295     -1.44977367540107      1.40663343696535
  C   -1.26563631385477      0.65989584270140     -0.96400148073557
  N   -1.58455482624309      1.35973358007494     -1.85345681807144
  C   1.58493407932787      0.33566607274425     -0.20398795406702
  H   2.28375038773368     -0.41113024584378     -0.59267858293411
  H   1.26463058557619      0.97794012821268     -1.02487769550359
  H   2.13850456765464      0.93987896664564      0.52065551263974
