11
Coordinates from ORCA-job run
  C   -0.84725122867933      0.23292690450371      0.14132335403129
  C   0.47737004789857      0.48404512566324      0.24535877524578
  H   0.76672314449906      1.41524975885027      0.72902782961005
  C   -1.34734933715815     -0.96258307110754     -0.47744159316913
  N   -1.74268683570278     -1.94518008977029     -0.98803957836515
  C   -1.82172138914336      1.15704350995034      0.64796191447747
  N   -2.61387786012806      1.91856705041861      1.06547820112292
  C   1.56054929629775     -0.41065932724314     -0.24922663703678
  H   2.18228696731779      0.12178774741927     -0.97528514477468
  H   1.16929355348309     -1.31411460190860     -0.71770746844277
  H   2.21566364131542     -0.69808300677586      0.57855034730100
