11
Coordinates from ORCA-job run
  C   -0.82194259347437      0.26842513666628      0.20909746132568
  C   0.50640467290208      0.50329174353045      0.11394296186360
  H   0.85717217558273      1.48606629637285      0.42352505448011
  C   -1.72198408309000      1.27487012141843      0.69660768852414
  N   -2.45404933531741      2.10312161254551      1.09649086607782
  C   -1.40032047302621     -0.99013086114914     -0.16980506582943
  N   -1.86075573232348     -2.02577027719481     -0.48288480158552
  C   1.51625227326510     -0.47451832600111     -0.37843652798161
  H   1.06615202998713     -1.42584556074392     -0.66297093114142
  H   2.04518222101714     -0.06194811927412     -1.24275187263484
  H   2.26788884447728     -0.65756176617042      0.39518516690145
