11
Coordinates from ORCA-job run
  C   -0.85810355472794     -0.14462664989291      0.18465862850235
  C   0.44192098334590     -0.50885559516608      0.26225136721980
  H   0.66583738705237     -1.42786672914057      0.80080950274919
  C   -1.27358366141976      1.04793937611527     -0.49889520376650
  N   -1.60030860117020      2.02730364822446     -1.06152799397037
  C   -1.89067713153615     -0.93901278738167      0.78734673556986
  N   -2.73184829505359     -1.59366294925312      1.28289184861417
  C   1.58027274947097      0.24771610488504     -0.32943188918653
  H   2.12224550022911     -0.38589140422547     -1.03774359664036
  H   1.25328990239558      1.15123678619133     -0.84452078798939
  H   2.29095472141371      0.52672019964371      0.45416138889778
