11
Coordinates from ORCA-job run
  C   -0.84562036885854     -0.18501996379216      0.20767353505241
  C   0.46895173468259     -0.50229687702504      0.22445931371965
  H   0.74541814683694     -1.43426024944488      0.71396350807919
  C   -1.32795237410431      1.01913279626698     -0.40851109218545
  N   -1.70722162524449      2.00886399497311     -0.91741318531468
  C   -1.82604025044154     -1.04361162397937      0.80945914220238
  N   -2.62305200074334     -1.75180089988537      1.30457266784775
  C   1.55689683891554      0.32193788079055     -0.37167740908820
  H   2.09978353711227     -0.26050540785832     -1.12204273128340
  H   2.28158545557495      0.59858854796513      0.39997210311160
  H   1.17825090626993      1.23097180198938     -0.83945585214124
