11
Coordinates from ORCA-job run
  C   -0.84524763150120     -0.17901186146442      0.21082631411219
  C   0.48028724769960     -0.30034247844631      0.44921346297853
  H   0.77417383163597     -0.89534902120783      1.31191209752058
  C   -1.81462750387106     -0.80607146204876      1.06378099314833
  N   -2.60317713584067     -1.31953037873995      1.76842473974922
  C   -1.35217347191759      0.58092176570538     -0.89722139628316
  N   -1.75593236557255      1.20574007783815     -1.80774479579398
  C   1.55881761528553      0.31436610438299     -0.37359055177724
  H   1.16360686120138      0.88539114777871     -1.21406165764334
  H   2.16977372466519      0.97723530097107      0.24636604828323
  H   2.22549882821540     -0.46334919476901     -0.75790525429437
