11
Coordinates from ORCA-job run
  C   -0.85804550709661     -0.15922126965826      0.17265785297240
  C   0.44705414118885     -0.49868896570903      0.27379088906571
  H   0.67916071676132     -1.41027199161355      0.82130523280087
  C   -1.28415828070751      1.02126792045657     -0.52525402923268
  N   -1.61893096483763      1.99098391194957     -1.09976028311257
  C   -1.88580872020952     -0.96913179605196      0.76273154803331
  N   -2.72284542052190     -1.63737367512841      1.24717882627999
  C   1.58054338956396      0.27491855502468     -0.30530874234709
  H   2.27399266819990      0.57243237118870      0.48696420671395
  H   2.14418469109759     -0.35338805975109     -1.00127099222912
  H   1.24485328656154      1.16847299929280     -0.83203450894477
