11
Coordinates from ORCA-job run
  C   -0.84782016166539      0.22482627623915      0.14646694646489
  C   0.47288272559853      0.51135225391253      0.19443179079347
  H   0.75274040507426      1.48252822668864      0.59869663026396
  C   -1.82989809530361      1.16424100276303      0.60859872841382
  N   -2.62923902540553      1.93868327214664      0.98697460966079
  C   -1.33646189707472     -1.02455664712947     -0.36547014430675
  N   -1.72415463654521     -2.05134032492922     -0.78715497484809
  C   1.56334866278539     -0.39516251375492     -0.26087332108283
  H   2.24583412151209     -0.60527266962901      0.56803535333508
  H   2.15388776686327      0.09323458052606     -1.04173810140146
  H   1.18088013416093     -1.33953345683342     -0.64896751729288
