11
Coordinates from ORCA-job run
  C   -0.84182814204176     -0.23672120332510      0.16209016066806
  C   0.47863660082721     -0.31121996016864      0.44381828268794
  H   0.77183131889289     -0.96094141450409      1.26648112731747
  C   -1.34743657131478      0.58818787714762     -0.89865491625790
  N   -1.74981085227584      1.26653073944019     -1.77055731438687
  C   -1.80682277415928     -0.98481828813733      0.91705148781150
  N   -2.59189294143099     -1.60117867678064      1.53802829134277
  C   1.55212241647178      0.42358706524533     -0.28135521213749
  H   1.15705680569127      1.04516932786746     -1.08535083699523
  H   2.26984653594879     -0.28540634544535     -0.70482775958423
  H   2.10729760339070      1.05881087866054      0.41527668953400
