11
Coordinates from ORCA-job run
  C   -0.85261938161969     -0.16474537178073      0.19371924440881
  C   0.46579149130469     -0.31762054053197      0.45284957459396
  H   0.73197124081206     -0.93456580900728      1.30913445818728
  C   -1.84960753442540     -0.79090400268817      1.01501013123946
  N   -2.66103448102660     -1.30659079033680      1.69137855393003
  C   -1.32387471006483      0.62611690886059     -0.90833477431772
  N   -1.69624044244450      1.27665913409786     -1.81422615114027
  C   1.57079458960506      0.29048031759179     -0.33921924941673
  H   2.22594760420083     -0.49358067273405     -0.73035756791575
  H   2.18628772904901      0.92609392650185      0.30433508405472
  H   1.20158389460936      0.88765690002691     -1.17328930362379
