16
Coordinates from ORCA-job run
  C   -0.67263665588811      0.00205980321958     -0.30823785230280
  C   0.69343718194536      0.38182869319497      0.34404690285409
  Br  -0.51969554135489     -0.01266183421550     -2.26534647161278
  H   0.52010429312367      0.40225456475643      1.42292941484276
  C   -1.23509546666321     -1.33661889055323      0.15782295965899
  H   -0.60062148567003     -2.15568810585047     -0.17804263980787
  H   -2.23761094635842     -1.47705543557505     -0.24708526061797
  H   -1.28245190026416     -1.35501675083358      1.24957891489975
  C   -1.58029854573569      1.09258249989634      0.03938427749604
  N   -2.28147444429777      1.97294390620000      0.38043410732076
  N   1.32281036055703      1.58638433365833     -0.06403994391854
  H   0.84964084910562      2.39559263202050      0.31414265855504
  H   1.39678675490692      1.65390700275914     -1.07070761499433
  N   1.65001632622257     -0.76396164197212      0.12974588303464
  O   1.61244537499165     -1.67095349578086      0.95952945422733
  O   2.36464384537944     -0.71459728092449     -0.86415478963511
