16
Coordinates from ORCA-job run
  C   -0.50328282433650     -0.48373406386486     -0.57969154028937
  C   0.92783843009427     -0.17998179778082     -0.07125442036165
  Br  -0.50823605875740     -2.37303419600088     -1.11737890455194
  H   1.65115841165359     -0.49677746152756     -0.82213677526497
  C   -1.58074039611835     -0.27250053549328      0.47809239072205
  H   -2.55807452138880     -0.51105507110538      0.05857163417938
  H   -1.57947713435111      0.76848424214803      0.80828348059840
  H   -1.39540519414088     -0.93218614594320      1.32569625830590
  C   -0.80028342648265      0.29492637351876     -1.77853253805721
  N   -1.07694982910928      0.93960802229919     -2.72216303506552
  N   1.17896948820991     -0.78508975371493      1.18316386832147
  H   2.17117738936731     -0.85458319743976      1.36425305384950
  H   0.73925273184467     -0.26185946078158      1.93018464758870
  N   1.07732622855733      1.34848364955380     -0.03078419485783
  O   1.60422864067084      1.88356256469984     -1.00083494334643
  O   0.65249806428703      1.91673683143261      0.97453101822953
