16
Coordinates from ORCA-job run
  C   -0.54344279951679     -0.38643920229471     -0.53067127344367
  C   0.73998376020849     -0.14542286102463      0.27487291026776
  Br  -0.34662655253991     -2.04813432614829     -1.55649085771429
  H   1.01859401546274     -1.08945884593792      0.76430755773261
  C   -1.71813933344873     -0.57667712341779      0.43163515974505
  H   -2.61003076782506     -0.85742527764789     -0.12822536983435
  H   -1.49464265652750     -1.37192398409027      1.14723509404205
  H   -1.91695938565814      0.36028878329028      0.95469988042198
  C   -0.83684102771039      0.71572439011905     -1.44034751999101
  N   -1.15387357294647      1.61877879315661     -2.12207029415132
  N   0.56939004835089      0.98410267491455      1.15842436501103
  H   0.08834193070259      0.69224818677656      2.00002905107190
  H   1.48514511783304      1.32086809859261      1.43517009118598
  N   1.93612197608988      0.18383755723217     -0.59877836044484
  O   2.96848000692263      0.41825698641243      0.02494932602782
  O   1.81249924060273      0.18237615006725     -1.81573975992668
