16
Coordinates from ORCA-job run
  C   -0.51528729524169     -0.39995186319048     -0.49251380191576
  C   0.68565351695512     -0.09469771865468      0.42222746835505
  Br  -0.07651922189980     -1.90710753063638     -1.66525905570892
  H   0.85044242234276     -0.94708161980384      1.08287581266836
  C   -1.72414231621065     -0.77957013389111      0.36129442647824
  H   -2.57796296079614     -1.00099120791066     -0.27937801958093
  H   -1.96602065621237      0.05098560708364      1.02488651081953
  H   -1.48973100492825     -1.66562456567306      0.95445559394587
  C   -0.84044102281386      0.75006099807544     -1.33166036008464
  N   -1.16744984242661      1.69288081266874     -1.95330542199192
  N   0.43053181341642      1.09167970044709      1.16380419245917
  H   0.46344767136467      1.90710653323460      0.56122698854827
  H   1.09218056765906      1.20488868918610      1.92105261676700
  N   1.96570689171015     -0.00107212652018     -0.39971383599817
  O   2.04990753164552      0.96235376800657     -1.15735518200693
  O   2.81968390543569     -0.86285934242180     -0.21363793275424
