16
Coordinates from ORCA-job run
  C   -0.46844959711266     -0.38092477889419     -0.49210875192566
  C   0.77619541588289     -0.11118163927663      0.38979452063781
  Br  -0.12665847399559     -1.92557801184853     -1.64933224018302
  H   0.92467622173168     -0.97223295179898      1.04276967811339
  C   -1.66662670364577     -0.70467739668944      0.40006894638876
  H   -2.54020574367563     -0.92841242464431     -0.21211382327569
  H   -1.44192168717492     -1.57316647755281      1.02256450671904
  H   -1.90038750353462      0.15354400600431      1.03403008600415
  C   -0.78323335456294      0.77001148687374     -1.33287718094546
  N   -1.11054293421345      1.72336227720965     -1.93806673396952
  N   0.74137096040056      1.09444441151734      1.15142379514680
  H   0.19982307464482      1.00837208412326      1.99788486900714
  H   0.45397754752023      1.89645398428684      0.60477241423937
  N   2.01238023461169     -0.04437381316932     -0.46839949489172
  O   2.87334345650014     -0.89862316457670     -0.29082568887955
  O   2.05825908662356      0.89298240843576     -1.25958490218587
