16
Coordinates from ORCA-job run
  C   -0.65243692812897      0.01218759168201     -0.44674950552837
  C   0.52929419878658      0.44969057733076      0.44514758620710
  Br  -0.08510495166204     -0.04646467282519     -2.32995480873909
  H   0.16235822252820      0.47854879991586      1.47475673495094
  C   -1.25252941335285     -1.34184556447297     -0.07977181884136
  H   -1.53116047234143     -1.34411731151975      0.97692863615775
  H   -2.14258631309385     -1.51726688885044     -0.68430513737377
  H   -0.53982574394447     -2.14533949312695     -0.25717395237561
  C   -1.66928880234869      1.05531549182584     -0.33331247683930
  N   -2.53190329969609      1.84289467595289     -0.20157174510301
  N   1.05173108101668      1.70170116896361      0.06512759923279
  H   1.68643149880523      2.06941095699353      0.76068471104396
  H   1.52076019988030      1.65121386058882     -0.83018322827786
  N   1.56853811319272     -0.68245259462884      0.46971130518005
  O   2.53163691403648     -0.57621697088478     -0.28249673062620
  O   1.35508569632222     -1.60525962694442      1.25316283093200
