16
Coordinates from ORCA-job run
  C   -0.48640143837654     -0.35951657519998     -0.48929703606316
  C   0.78208464484440     -0.13883661433588      0.37168134473018
  Br  -0.20789845717801     -1.89011933904985     -1.68186504472546
  H   0.92446453663736     -1.01857932857023      1.00069461727872
  C   -1.67454239633853     -0.66987417632435      0.42111129555343
  H   -1.45913537809046     -1.55425163618927      1.02426886534772
  H   -1.87520240045851      0.18264140073660      1.07379879219620
  H   -2.56502545316906     -0.86178169766833     -0.17739402208004
  C   -0.78956383326530      0.81381212123559     -1.30273849648418
  N   -1.10976102299800      1.78318958185125     -1.88618900315199
  N   0.79133559464263      1.04872216036511      1.16228853878295
  H   0.51731666271537      1.87047989762066      0.63868009896479
  H   0.25843530322268      0.95634803234592      2.01346811306893
  N   2.00090826055616     -0.07901357591769     -0.51144715355276
  O   2.83717627074416     -0.96611835712176     -0.38562615421961
  O   2.05780910651167      0.88389810622219     -1.27043475564573
