16
Coordinates from ORCA-job run
  C   -0.52098748589990     -0.39838047755107     -0.48756916544911
  C   0.68717040305564     -0.09763610698451      0.41901777920170
  Br  -0.09969090441954     -1.91469181317129     -1.65497915251891
  H   0.84929683542654     -0.94818970774122      1.08272880740806
  C   -1.72777155327102     -0.76502224330829      0.37493371433157
  H   -2.58672953988882     -0.98340411826511     -0.25989088495294
  H   -1.49644062025093     -1.64972609117692      0.97130820192002
  H   -1.95983041758440      0.07063391930299      1.03564873162965
  C   -0.84284364717353      0.74959857558940     -1.33067583666250
  N   -1.16719549360640      1.69167218730744     -1.95473000146613
  N   0.44541424026856      1.09434389741055      1.15594133759166
  H   1.11264786621163      1.20656776142163      1.90845852273128
  H   0.48010205510368      1.90633752985650      0.54883205927644
  N   1.96347156173079     -0.01796730101937     -0.41059295334698
  O   2.04962577853974      0.93983041443343     -1.17509005314068
  O   2.81276092175800     -0.88396642610416     -0.22334110655313
