16
Coordinates from ORCA-job run
  C   -0.48411124676726     -0.35925442850221     -0.49163210012168
  C   0.78047508988427     -0.13935522071975      0.37499235022208
  Br  -0.20119867532569     -1.88929748277080     -1.68364787856880
  H   0.92046399869879     -1.01919496896087      1.00439621361380
  C   -1.67652297582671     -0.66913574711288      0.41337417819995
  H   -1.87884860207426      0.18298106394042      1.06603748678298
  H   -1.46452103921772     -1.55432520647054      1.01654524145735
  H   -2.56459214958146     -0.85944872588842     -0.18919992483914
  C   -0.78331265297855      0.81439705338693     -1.30629055554395
  N   -1.10716565445592      1.77872479819976     -1.89605393097965
  N   0.78620913754207      1.04788656635698      1.16607917857733
  H   0.51143468176797      1.86965959617222      0.64296022245334
  H   0.25300616677352      0.95392090319567      2.01686697212629
  N   2.00303402868624     -0.07933078789755     -0.50314213615076
  O   2.06430860214826      0.88541163219884     -1.25945525319762
  O   2.84034129072638     -0.96463904512786     -0.37183006403162
