16
Coordinates from ORCA-job run
  C   -0.51882161428811     -0.55489179572023     -0.49662363222477
  C   0.91071306219244     -0.26009469497384      0.02127935755577
  Br  -0.66332404452726     -2.50897651726459     -0.63531077258619
  H   1.63485732871119     -0.78042374962173     -0.60501425143200
  C   -1.61692459486903     -0.04683239377737      0.43102255677301
  H   -1.52421180344235     -0.52789300541686      1.40467385253345
  H   -1.53917386067984      1.03690461387606      0.54131860338147
  H   -2.59312518463538     -0.29231341094858      0.01288142176875
  C   -0.69771500543106     -0.02379219123130     -1.84488590629693
  N   -0.87812571578170      0.42813065343565     -2.91533376293830
  N   1.05681880269458     -0.60705441199891      1.38572968561672
  H   0.63379864649538      0.09281996339656      1.98276827618228
  H   2.03125641427866     -0.71126821032830      1.63428665558695
  N   1.18931056304157      1.22705512908579     -0.24362310995568
  O   1.80034513002421      1.50606895146443     -1.27012637685437
  O   0.77332187621672      2.02356107002324      0.59695740288986
