16
Coordinates from ORCA-job run
  C   -0.62960395977807      0.02114579718456     -0.47835722898250
  C   0.48120428607612      0.43355828891914      0.51187896277516
  Br  0.03640834872980      0.14095199095117     -2.32542464592313
  H   0.05577885149465      0.36727462948454      1.51696727430275
  C   -1.18091507922853     -1.38397556372952     -0.25347191017610
  H   -0.42241800893916     -2.13796170913020     -0.45667290308588
  H   -2.02992754247858     -1.54849674278073     -0.91725958072717
  H   -1.51099482731807     -1.48671199708640      0.78319972266124
  C   -1.69952884918406      1.00743930899776     -0.34223297091808
  N   -2.58047129909229      1.78035781961226     -0.25240381825685
  N   0.97010986990142      1.73030110427887      0.25992154198205
  H   1.55634146993059      2.06295730020009      1.01332588639862
  H   1.48125707785587      1.77110288928137     -0.61251720431051
  N   1.56412986897840     -0.65701300873871      0.51237149461829
  O   2.55816114668127     -0.46070988475330     -0.17934996733097
  O   1.35146864637065     -1.64022022269090      1.21902534697306
