16
Coordinates from ORCA-job run
  C   -0.46767533584349     -0.38815004984777     -0.48552539030724
  C   0.77861198573207     -0.10555756324848      0.38940980814510
  Br  -0.12706789317796     -1.94855512433626     -1.62203680064415
  H   0.93289689821117     -0.96019433856783      1.04944898185202
  C   -1.66364369433315     -0.70064571125939      0.41387891542424
  H   -1.43559315857713     -1.55802565636866      1.05045666299993
  H   -2.53735307602889     -0.93705088668447     -0.19335632894238
  H   -1.89938920776380      0.16733808860462      1.03361234122286
  C   -0.78707542040947      0.74942544391827     -1.34236607432402
  N   -1.12274749316763      1.69012834637454     -1.96286198947666
  N   0.74213326384399      1.10703786292729      1.14062790091566
  H   0.19654803016642      1.02704985208683      1.98507521521032
  H   0.45376371722854      1.90305029956671      0.58579139081541
  N   2.01132065288102     -0.04153623046591     -0.47396535896360
  O   2.05582799985941      0.89659657391082     -1.26410364975512
  O   2.86844273137894     -0.90091090661028     -0.30408562417237
