16
Coordinates from ORCA-job run
  C   -0.42360451164335     -0.71461668878661     -0.36855568212594
  C   0.89175593064747     -0.18507661637890      0.25504307651372
  Br  -0.53567354538395     -2.61594430582697      0.11283236766010
  H   1.71577730822300     -0.83479435863926     -0.03855374179146
  C   -1.67001916447893     -0.00461169208554      0.14799402252282
  H   -1.61685098415940      1.06017614359702     -0.08871039250515
  H   -2.55602765401062     -0.42994814269063     -0.32335061992887
  H   -1.74911313037361     -0.14295574407063      1.22623517114160
  C   -0.36156789658401     -0.65322950313904     -1.82582890233036
  N   -0.32515563346616     -0.56877797834335     -2.99810663643834
  N   0.79523750977700     -0.06844299262880      1.66217693625959
  H   1.71028137975612     -0.02919626656502      2.09024764122865
  H   0.27013015315013      0.75784166035078      1.92034655751063
  N   1.21005370881904      1.15321236790432     -0.42815437713320
  O   1.99987844850417      1.12753487320309     -1.36639139907108
  O   0.64389808122316      2.14882924409954      0.02177597848726
