16
Coordinates from ORCA-job run
  C   -0.46822104169203     -0.39206163571491     -0.48200837258511
  C   0.77798012774617     -0.10348508312337      0.39094627645060
  Br  -0.12874856677906     -1.96237063320181     -1.60534654026700
  H   0.93138477693488     -0.95301684022700      1.05778882167026
  C   -1.66508434290842     -0.69561174571045      0.41905073203923
  H   -1.43869482070708     -1.54833824386954      1.06241383914746
  H   -1.90002543563818      0.17747012007534      1.03187722491382
  H   -2.53874076525920     -0.93544590445543     -0.18689391957898
  C   -0.78529084718945      0.73861934305073     -1.34901480350939
  N   -1.11746640962438      1.67506506303311     -1.97767860212807
  N   0.74282227048369      1.11556117889516      1.13215595140041
  H   0.46033932331503      1.90739552296036      0.56831377785572
  H   0.19083564503113      1.04470172036322      1.97330882370228
  N   2.01108618308272     -0.04765317484189     -0.47186259231574
  O   2.86540021187497     -0.90912619407525     -0.29833222342345
  O   2.05942369132920      0.88729650684174     -1.26571839337203
