19

C	-0.58516	0.0183	-1.413571
C	0.0	0.0	0.0
Cl	0.290459	1.210769	-2.411679
H	1.095026	0.0	0.0
N	-0.329555	-1.349739	-2.033363
O	0.809368	-1.633456	-2.378029
O	-1.293123	-2.122715	-2.074299
C	-2.061882	0.338971	-1.486886
H	-2.638874	-0.379831	-0.904644
H	-2.186321	1.336694	-1.069353
H	-2.416067	0.317369	-2.519152
C	-0.447117	-1.212585	0.803152
H	-1.529081	-1.24406	0.990587
H	-0.150609	-2.151012	0.331533
H	0.075574	-1.164507	1.761056
N	-0.38595	1.267912	0.645809
H	0.484946	1.683101	0.957531
H	-0.955261	1.087935	1.465475
F	2.621931	0.0	0.0
