19

C	-0.321162	-0.052745	-1.491003
C	0.0	0.0	0.0
Cl	-1.99162	-0.621183	-1.845729
H	1.096905	0.0	0.0
N	-0.186202	1.361743	-2.057261
O	-1.046725	1.818056	-2.801926
O	0.856851	1.928516	-1.75358
C	0.717047	-0.893543	-2.215345
H	1.68964	-0.611135	-1.78419
H	0.530925	-1.949025	-2.009396
H	0.666687	-0.735357	-3.295235
C	-0.444868	-1.25701	0.725194
H	-1.528507	-1.275575	0.888518
H	-0.16753	-2.161132	0.179731
H	0.068086	-1.288264	1.690514
N	-0.552707	1.210449	0.612949
H	0.233607	1.812977	0.826757
H	-1.000781	0.973856	1.489557
F	2.699277	0.0	0.0
