19

C	-0.485393	0.012932	-1.461909
C	0.0	0.0	0.0
Cl	0.356166	1.308001	-2.364264
H	1.093891	0.0	0.0
N	-0.078769	-1.312972	-2.095864
O	1.073525	-1.463472	-2.469975
O	-0.954153	-2.184408	-2.120101
C	-1.976446	0.201458	-1.676487
H	-2.54289	-0.535971	-1.108997
H	-2.256983	1.206073	-1.358681
H	-2.227481	0.099244	-2.733691
C	-0.469096	-1.238733	0.748917
H	-0.055961	-2.15199	0.317608
H	-0.07505	-1.142009	1.761417
H	-1.560909	-1.340902	0.810697
N	-0.389601	1.203984	0.723972
H	0.262028	1.939211	0.480531
H	-1.334298	1.513349	0.523681
F	2.626262	0.0	0.0
