19

C	-0.30953	-0.147092	-1.492013
C	0.0	0.0	0.0
Cl	-1.968661	-0.774701	-1.83074
H	1.09429	0.0	0.0
N	-0.226172	1.250977	-2.097067
O	0.916384	1.678591	-2.221351
O	-1.248648	1.865833	-2.375045
C	0.738811	-1.019749	-2.158325
H	0.701957	-0.925934	-3.246065
H	1.707614	-0.7109	-1.739974
H	0.550748	-2.062615	-1.891093
C	-0.434122	-1.218576	0.801355
H	-0.104373	-2.151021	0.33629
H	-1.522196	-1.264533	0.930403
H	0.040063	-1.157835	1.784937
N	-0.495133	1.260359	0.529439
H	0.219969	1.644152	1.132381
H	-1.344643	1.128803	1.067171
F	2.683524	0.0	0.0
