14

C	-0.539723	0.017794	-1.422935
C	0.0	0.0	0.0
F	-0.214777	-1.218025	-2.006024
H	1.087126	0.0	0.0
H	-0.377875	0.871521	0.537944
N	-1.930222	0.288324	-1.499816
H	-2.245182	0.213788	-2.459455
H	-2.433116	-0.35791	-0.904354
C	0.166367	1.056545	-2.208291
N	0.630497	1.900013	-2.880684
N	-0.498039	-1.199415	0.733019
O	0.319373	-1.908388	1.304904
O	-1.723217	-1.376119	0.760243
Br	3.469716	0.0	0.0
