14

C	-0.372147	-0.198023	-1.466008
C	0.0	0.0	0.0
F	-0.22433	1.034522	-2.131063
H	1.087912	0.0	0.0
H	-0.389515	-0.821519	0.595642
N	0.469806	-1.207879	-1.964588
H	1.442087	-1.010206	-1.725526
H	0.356153	-1.335171	-2.961245
C	-1.797298	-0.5579	-1.668134
N	-2.922641	-0.850943	-1.833783
N	-0.576703	1.251311	0.535109
O	0.051257	2.293995	0.379865
O	-1.6759	1.152195	1.094376
Br	3.477547	0.0	0.0
