14

C	-0.580204	-0.021142	-1.406942
C	0.0	0.0	0.0
F	-1.984358	0.237439	-1.265288
H	1.09027	0.0	0.0
H	-0.389599	-0.835196	0.577216
N	0.046375	0.862273	-2.289942
H	0.220813	1.759378	-1.860639
H	-0.441541	0.935244	-3.170625
C	-0.52796	-1.396406	-1.952368
N	-0.499764	-2.478095	-2.407421
N	-0.446292	1.226283	0.71115
O	-0.935546	1.088217	1.828951
O	-0.270557	2.309875	0.152515
Br	3.44142	0.0	0.0
