14

C	-0.586113	-0.016951	-1.395361
C	0.0	0.0	0.0
F	-1.989137	-0.224235	-1.252295
H	1.088459	0.0	0.0
H	-0.365891	0.8832	0.524465
N	-0.303041	1.209537	-2.032552
H	-0.598297	1.996599	-1.47263
H	-0.706275	1.249239	-2.957833
C	-0.125979	-1.113284	-2.26948
N	0.15863	-1.917818	-3.073639
N	-0.47288	-1.160663	0.791461
O	-0.832663	-0.94215	1.948017
O	-0.446818	-2.264379	0.252645
Br	3.429734	0.0	0.0
