14

C	-0.610938	0.006431	-1.396273
C	0.0	0.0	0.0
F	-0.268943	-1.23614	-1.931596
H	1.086704	0.0	0.0
H	-0.376215	-0.882297	0.51768
N	-2.027817	0.143818	-1.368335
H	-2.382064	0.935413	-1.880093
H	-2.420101	0.093568	-0.439471
C	-0.041188	1.020291	-2.306138
N	0.34335	1.791567	-3.102717
N	-0.490162	1.179653	0.74545
O	-1.18226	0.98006	1.748429
O	-0.205882	2.287693	0.29798
Br	3.44779	0.0	0.0
