14

C	-0.456514	0.001793	-1.457208
C	0.0	0.0	0.0
F	-0.411821	1.371147	-1.819878
H	1.090573	0.0	0.0
H	-0.402352	0.856998	0.532443
N	0.354177	-0.763483	-2.295064
H	-0.097992	-1.447273	-2.874395
H	1.232901	-1.052475	-1.887035
C	-1.886592	-0.361322	-1.597035
N	-3.026489	-0.619879	-1.708161
N	-0.4658	-1.209753	0.71973
O	-0.939858	-1.045906	1.844267
O	-0.328181	-2.299242	0.164387
Br	3.435097	0.0	0.0
