14

C	-0.406401	0.023523	-1.459912
C	0.0	0.0	0.0
F	-1.763157	0.350656	-1.566239
H	1.089546	0.0	0.0
H	-0.377657	0.909419	0.46116
N	0.362543	1.066462	-2.06335
H	1.337098	0.995569	-1.769837
H	0.313643	1.01053	-3.07258
C	-0.286634	-1.268073	-2.184671
N	-0.229978	-2.185669	-2.916683
N	-0.535243	-1.137845	0.771222
O	-0.320666	-2.270808	0.344584
O	-1.138742	-0.875683	1.813452
Br	3.412285	0.0	0.0
