17

C	-0.462874	-0.047126	-1.456824
C	0.0	0.0	0.0
Br	-0.135585	1.753681	-2.213884
H	1.089125	0.0	0.0
C	0.397434	-1.023135	-2.260033
H	1.445564	-0.808282	-2.034193
H	0.163135	-2.04076	-1.953558
H	0.196574	-0.901156	-3.325554
C	-1.89079	-0.306938	-1.634605
N	-3.019659	-0.54449	-1.862483
N	-0.417364	-1.152473	0.776453
O	-0.725953	-2.194271	0.177063
O	-0.291116	-1.051237	2.003779
N	-0.517731	1.196665	0.726134
O	-1.743883	1.278028	0.824299
O	0.291747	2.006442	1.16068
H	2.49864	0.0	0.0
