17

C	-0.467356	-0.001217	-1.432082
C	0.0	0.0	0.0
Br	-2.455809	0.236473	-1.592061
H	1.091406	0.0	0.0
C	0.209351	1.100402	-2.242726
H	-0.028587	0.96994	-3.299223
H	1.287955	1.011105	-2.070616
H	-0.121187	2.080407	-1.909549
C	-0.154846	-1.28426	-2.060999
N	0.176366	-2.255538	-2.634944
N	-0.41394	-1.154647	0.795755
O	-1.121193	-2.030837	0.284189
O	0.079868	-1.202111	1.925936
N	-0.390288	1.228069	0.711945
O	-1.259738	1.17428	1.584101
O	0.209549	2.250621	0.366362
H	2.401599	0.0	0.0
