17

C	-0.511764	-0.012259	-1.435305
C	0.0	0.0	0.0
Br	0.016705	1.716616	-2.246171
H	1.08914	0.0	0.0
C	0.183428	-1.11222	-2.238602
H	-0.178499	-2.082367	-1.902669
H	-0.03284	-0.985926	-3.300383
H	1.258747	-1.031953	-2.055279
C	-1.968589	-0.075456	-1.556673
N	-3.131846	-0.128799	-1.723356
N	-0.434562	-1.143768	0.782387
O	-0.994238	-2.10064	0.222046
O	-0.098113	-1.116401	1.973913
N	-0.461386	1.206492	0.75657
O	0.359079	2.084768	0.994749
O	-1.65285	1.227792	1.074431
H	2.490137	0.0	0.0
