17

C	-0.445135	0.000276	-1.438802
C	0.0	0.0	0.0
Br	-2.433533	0.221796	-1.62656
H	1.091392	0.0	0.0
C	0.23508	1.106562	-2.241285
H	0.030484	0.959977	-3.302453
H	1.309388	1.034676	-2.038755
H	-0.11962	2.084957	-1.93031
C	-0.110182	-1.276291	-2.069544
N	0.246292	-2.234066	-2.65103
N	-0.41132	-1.160203	0.785289
O	0.064709	-1.20897	1.922104
O	-1.089426	-2.048332	0.255732
N	-0.388432	1.23024	0.7076
O	-1.241534	1.18143	1.594695
O	0.205005	2.251539	0.348664
H	2.387558	0.0	0.0
