13
Coordinates from ORCA-job run
  C   -0.39059193280514     -0.07522142564178      0.48057226360592
  C   1.03661902455910     -0.59518643418235      0.34217177378114
  Br  -0.92557077107361     -0.15591228390039      2.34981470803642
  H   1.70845936545623     -0.01004892638182      0.96862086139621
  H   1.04764050815552     -1.63535480701549      0.67423634155184
  N   -1.30113264737775     -0.79180487589173     -0.30746127099754
  H   -2.23485791841097     -0.40730801404953     -0.24132021597517
  H   -1.00923132635643     -0.81147781334738     -1.27895994223300
  N   -0.37522086671324      1.45792810480956      0.15866709795423
  O   -1.38267395130041      1.89904108175154     -0.37957717525082
  O   0.62169847868213      2.09072574558289      0.48025981757155
  C   1.46109382993866     -0.51471356253778     -1.05440606403613
  N   1.74476820724590     -0.44866678919573     -2.19161819540466
