13
Coordinates from ORCA-job run
  C   -0.30768775806755      0.16690914212306      0.41146347924702
  C   1.02373443190558     -0.04642146370001     -0.33969033763757
  Br  0.01319842051177      0.02817268344318      2.31870249864106
  H   1.79573948778219      0.61498648546521      0.05852789394330
  H   0.85897379495481      0.20909992108453     -1.39379164389463
  N   -1.40272972423215     -0.66138085308419      0.07285775096368
  H   -1.21664912872878     -1.62871684413368      0.30276754108565
  H   -1.66970834650212     -0.55598293913118     -0.89758169156740
  N   -0.68196341208392      1.62108147339738      0.07187452566217
  O   0.05632623266402      2.49432093547996      0.50479817672709
  O   -1.63168057732021      1.77351447324511     -0.68720559546082
  C   1.43590897438460     -1.44091011817660     -0.24791140417167
  N   1.72653760473176     -2.57567289601278     -0.17581119353788
