13
Coordinates from ORCA-job run
  C   -0.31069869243450      0.15589657931427      0.42002808308963
  C   1.03243052965362     -0.02948205062811     -0.31585672588573
  Br  -0.05073698309199     -0.11404146724303      2.30983847312447
  H   1.79840191653690      0.62224479365041      0.11379438774689
  H   0.88114461010450      0.25324824680334     -1.36309227506320
  N   -1.40880686797919     -0.63726496554504     -0.01785509591409
  H   -1.28892416463150     -1.60538895389347      0.24969341450786
  H   -1.53367073454521     -0.55399231349609     -1.01969534223572
  N   -0.69840812756905      1.61902543629653      0.12759342803855
  O   -0.53461169481138      2.48098825402169      0.97442625830693
  O   -1.10678856117802      1.78325934683771     -1.01919350840475
  C   1.45720786966845     -1.42205521130928     -0.25214011722754
  N   1.76246090027737     -2.55443769480894     -0.20854098008331
