13
Coordinates from ORCA-job run
  C   -0.32780960684512     -0.10304290146755      0.40378282316060
  C   0.72667030926706     -0.80927004536383     -0.44216596921365
  Br  0.08819832119018     -0.27501867775249      2.27944267454124
  H   0.72752597661205     -1.85897190649454     -0.14189540858660
  H   0.44006062684676     -0.74726030793787     -1.49458996581345
  N   -1.60779728524617     -0.65696867906508      0.14692840203879
  H   -1.86256183946232     -0.54086774769047     -0.82815339893917
  H   -2.31922387888475     -0.25796062415373      0.74733716879166
  N   -0.31558722326454      1.41338117014263      0.03752437654858
  O   -0.66049520976749      2.22862565690430      0.87867865389644
  O   -0.08641738638935      1.63935830696999     -1.14904473763671
  C   2.06015690967978     -0.24063923430813     -0.28042249845247
  N   3.13728028626393      0.20763499021676     -0.15742212033526
