19

C	0.0	0.0	0.0
C	-0.327986	-0.072513	-1.507129
F	1.400525	0.0	0.0
H	0.160774	0.786971	-1.97123
C	-0.50077	1.322395	0.540369
H	-0.112844	2.152737	-0.055961
H	-0.161185	1.446419	1.57185
H	-1.593308	1.333048	0.522925
C	-0.495703	-1.161534	0.831553
H	-0.092157	-2.105071	0.469388
H	-0.178646	-1.007766	1.866632
H	-1.587681	-1.197168	0.80817
N	-1.674266	-0.194635	-1.910091
H	-2.015714	0.656351	-2.327836
H	-2.344183	-0.451203	-1.185403
N	0.483183	-1.232677	-2.102742
O	0.10598	-2.375985	-1.866517
O	1.453142	-0.940297	-2.803504
Cl	-4.193189	0.0	0.0
