19

C	0.0	0.0	0.0
C	-0.473738	0.436122	-1.39576
F	1.40392	0.0	0.0
H	-1.566598	0.486461	-1.368606
C	-0.456755	0.962534	1.076457
H	-0.176861	0.565215	2.056105
H	0.019716	1.936576	0.948902
H	-1.54263	1.070406	1.027701
C	-0.473529	-1.409215	0.280271
H	-0.107133	-2.103628	-0.478871
H	-0.084234	-1.72644	1.251119
H	-1.566566	-1.416674	0.302527
N	-0.009824	-0.36184	-2.496134
H	0.927623	-0.696166	-2.31264
H	-0.63611	-1.142763	-2.63054
N	0.010835	1.845121	-1.633796
O	1.161741	1.980154	-2.046543
O	-0.757975	2.768016	-1.368489
Cl	-3.79319	0.0	0.0
