19

C	0.0	0.0	0.0
C	-0.487938	0.494438	-1.371633
F	1.403933	0.0	0.0
H	-1.575497	0.594644	-1.310148
C	-0.45221	0.91389	1.120604
H	-0.106689	0.503662	2.073356
H	-1.542776	0.969745	1.120603
H	-0.031826	1.913824	1.002619
C	-0.476085	-1.419266	0.222696
H	-0.143647	-1.757453	1.206957
H	-0.059667	-2.092443	-0.529513
H	-1.568426	-1.43536	0.185246
N	-0.105779	-0.295958	-2.508366
H	0.825708	-0.668861	-2.377543
H	-0.766543	-1.052032	-2.62098
N	0.057641	1.882364	-1.592621
O	1.193396	1.972035	-2.053877
O	-0.652681	2.834565	-1.270598
Cl	-3.796234	0.0	0.0
