19

C	0.0	0.0	0.0
C	-0.386883	0.347375	-1.459825
F	1.401059	0.0	0.0
H	0.456294	0.911531	-1.872885
C	-0.426296	1.132128	0.918433
H	-0.052177	2.0867	0.545228
H	-1.512742	1.181639	0.992074
H	-0.001594	0.94331	1.90858
C	-0.543769	-1.327127	0.475326
H	-1.630862	-1.32477	0.351639
H	-0.319715	-1.457985	1.535819
H	-0.104247	-2.153628	-0.081885
N	-1.588138	1.063226	-1.584117
H	-1.840822	1.179123	-2.556389
H	-2.385871	0.636702	-1.097368
N	-0.33728	-0.944777	-2.331831
O	0.697454	-1.610919	-2.299788
O	-1.308636	-1.188399	-3.043336
Cl	-4.168369	0.0	0.0
