19

C	0.0	0.0	0.0
C	-0.174561	-0.112939	-1.542142
F	1.41298	0.0	0.0
H	0.438007	-0.981576	-1.816505
C	-0.523736	1.285293	0.580999
H	-0.239086	1.341787	1.636606
H	-1.61543	1.267081	0.505421
H	-0.135992	2.14983	0.045387
C	-0.501275	-1.213583	0.737241
H	-0.175071	-1.153589	1.7794
H	-1.593921	-1.218892	0.701209
H	-0.116666	-2.133295	0.292876
N	0.232824	1.122093	-2.170546
H	0.134501	1.047303	-3.175304
H	1.208923	1.265125	-1.942365
N	-1.520799	-0.520646	-2.089967
O	-2.141419	0.286878	-2.768464
O	-1.815922	-1.698389	-1.911256
Cl	-3.957544	0.0	0.0
