19

C	0.0	0.0	0.0
C	-0.36627	-0.358033	-1.461603
F	1.402443	0.0	0.0
H	0.440103	0.030335	-2.090797
C	-0.467165	1.404047	0.320726
H	-1.556458	1.434146	0.370566
H	-0.12702	2.105376	-0.443629
H	-0.04709	1.695488	1.287886
C	-0.499784	-1.004969	1.01286
H	-1.587369	-1.091169	0.940276
H	-0.038856	-1.981047	0.851323
H	-0.239289	-0.662018	2.017236
N	-1.621912	0.104535	-1.871545
H	-1.8695	-0.223337	-2.793985
H	-2.402425	-0.073736	-1.229771
N	-0.158764	-1.889164	-1.618113
O	-1.151079	-2.611651	-1.610614
O	1.003664	-2.283525	-1.723197
Cl	-4.195864	0.0	0.0
