19

C	0.0	0.0	0.0
C	-0.341973	0.118121	-1.506996
F	1.403845	0.0	0.0
H	0.015381	1.093183	-1.843731
C	-0.501449	1.234309	0.716296
H	-0.08841	2.138051	0.259929
H	-0.192166	1.201517	1.764114
H	-1.594082	1.258794	0.674631
C	-0.492905	-1.263968	0.666927
H	-0.114567	-1.285977	1.692573
H	-0.142479	-2.150417	0.139884
H	-1.585288	-1.259381	0.702608
N	-1.676705	-0.094477	-1.950309
H	-2.165068	-0.796678	-1.406747
H	-2.235776	0.740079	-1.831279
N	0.553353	-0.846234	-2.26429
O	1.488781	-0.374922	-2.908869
O	0.273522	-2.040697	-2.199935
Cl	-4.188453	0.0	0.0
