14

C	-0.420501	0.046353	-1.471027
C	0.0	0.0	0.0
Br	0.05047	-1.661161	-2.345092
H	1.093732	0.0	0.0
H	-0.3025	0.948609	0.460839
C	-1.864631	0.199676	-1.643315
N	-3.021009	0.378118	-1.770633
C	0.352579	1.169394	-2.157048
H	0.042932	2.127361	-1.726381
H	1.41528	1.0135	-1.945395
H	0.160666	1.181066	-3.230818
C	-0.572083	-1.097702	0.755291
N	-1.018706	-1.979638	1.391545
H	2.74452	0.0	0.0
