14

C	-0.547991	-0.007257	-1.426795
C	0.0	0.0	0.0
Br	0.160324	1.589869	-2.351498
H	1.092803	0.0	0.0
H	-0.323413	0.925494	0.489328
C	-0.079192	-1.182687	-2.167974
N	0.201387	-2.148952	-2.766288
C	-2.072286	0.064576	-1.499011
H	-2.416329	0.95797	-0.973638
H	-2.412119	0.108884	-2.535252
H	-2.498588	-0.818825	-1.016426
C	-0.513364	-1.141273	0.741773
N	-0.923646	-2.062921	1.340479
H	2.696036	0.0	0.0
