14

C	-0.544386	-0.023055	-1.430875
C	0.0	0.0	0.0
Br	0.168263	1.566516	-2.365043
H	1.092827	0.0	0.0
H	-0.327635	0.93036	0.477007
C	-0.071918	-1.203691	-2.156442
N	0.244978	-2.18911	-2.713903
C	-2.067058	0.04673	-1.505667
H	-2.413233	0.944752	-0.98965
H	-2.404671	0.079247	-2.543699
H	-2.491506	-0.833383	-1.014866
C	-0.514354	-1.132804	0.750024
N	-0.928019	-2.050884	1.358673
H	2.690399	0.0	0.0
