16

C	-0.499303	0.006233	-1.45127
C	0.0	0.0	0.0
Br	0.266059	1.66053	-2.249263
H	1.089595	0.0	0.0
N	0.111462	-1.163018	-2.236219
O	0.069234	-1.086066	-3.455771
O	0.463536	-2.124456	-1.568145
N	-1.884697	-0.132152	-1.617266
H	-2.417298	0.339151	-0.900172
H	-2.178308	0.138132	-2.547268
N	-0.493409	-1.198481	0.799022
O	-1.714275	-1.29834	0.930092
O	0.350819	-1.931486	1.290675
C	-0.525255	1.167208	0.69843
N	-0.984369	2.075519	1.285936
Cl	3.180834	0.0	0.0
