16

C	0.0	0.0	0.0
C	-0.484133	-0.153591	-1.487173
Cl	1.789083	0.0	0.0
H	0.407581	-0.343709	-2.092402
C	-0.486546	1.261034	0.702734
H	-0.126064	1.261676	1.733652
H	-0.10377	2.145184	0.18881
H	-1.581362	1.195924	0.654738
C	-0.395649	-1.179187	0.78193
N	-0.556927	-2.110611	1.479182
C	-1.03007	1.133931	-1.977205
N	-1.423419	2.114839	-2.492303
N	-1.392013	-1.273559	-1.632355
H	-1.670147	-1.326133	-2.606899
H	-2.212072	-0.970234	-1.042921
F	-2.833094	0.0	0.0
