16

C	0.0	0.0	0.0
C	-0.338882	0.061982	-1.530164
Cl	1.797738	0.0	0.0
H	0.361339	0.809207	-1.927765
C	-0.392246	1.255481	0.770195
H	-1.484812	1.243405	0.78661
H	0.015639	2.125512	0.249473
H	0.062152	1.234975	1.76387
C	-0.467049	-1.234895	0.618786
N	-0.59997	-2.279455	1.142417
C	-1.681111	0.53756	-1.931633
N	-2.468617	1.003887	-2.676623
N	-0.056922	-1.184004	-2.238728
H	0.886526	-1.48077	-2.010583
H	-0.696299	-1.897023	-1.902232
F	-2.507246	0.0	0.0
