13
Coordinates from ORCA-job run
  C   -0.57252308847919      0.24975318940314     -0.18269528920092
  C   0.72259174548395     -0.52595485201607     -0.00012493927800
  F   -0.74538721186197      0.54995417568218     -1.49317910913507
  H   0.81653248099494     -0.77602364788074      1.05738484428776
  H   0.61010652258005     -1.46035392887351     -0.56912975987311
  N   -1.72961440715096     -0.65675448775832      0.24728164770432
  O   -2.47419679830273     -1.07245345132326     -0.62519326195662
  O   -1.75462245856743     -0.91237632425920      1.44476080653423
  C   -0.63344681063922      1.46980553387956      0.62377313346569
  N   -0.68592068950111      2.44607836375580      1.27375103062090
  N   1.81366143728876      0.32861949788665     -0.41653380426623
  H   2.67180027372351      0.08303907683158      0.05444508397307
  H   1.96001900443139      0.27666685467219     -1.41454038287602
