13
Coordinates from ORCA-job run
  C   -0.55487455337040      0.30028663267316     -0.16263149985558
  C   0.69857436628129     -0.55388639837444     -0.05310013357946
  F   -0.66897531129807      0.78601360173112     -1.42271827371360
  H   0.56568111748800     -1.39357657824984     -0.75083304076792
  H   0.74451924520666     -0.95264445802175      0.96114785176200
  N   -1.76326515972541     -0.60182381239913      0.10408870445207
  O   -1.84174005392398     -1.01775212563114      1.25335829287159
  O   -2.49213656106162     -0.86059241049609     -0.83954958436537
  C   -0.59142883619817      1.39850213747687      0.80432467115602
  N   -0.62323190388678      2.27663320304699      1.58283465241630
  N   1.83976931903227      0.29694867805681     -0.31416187659996
  H   2.01880481851219      0.37591724975174     -1.30507264248392
  H   2.66930351294404     -0.05402571956430      0.14131287870782
