13
Coordinates from ORCA-job run
  C   -0.61499066360553      0.35789452424142     -0.16804215301302
  C   0.90138442072361      0.28874884975392     -0.10198056174294
  F   -1.03066824147703      0.21083366100775     -1.45100516479677
  H   1.19484167275083      0.43549526975339      0.93786437798704
  H   1.28267166285278      1.13318995051241     -0.69259766018148
  N   -1.17180393899575     -0.81455575671159      0.64456702849835
  O   -0.88430917033711     -0.77716482461251      1.83283556168665
  O   -1.81425905840490     -1.65828733148918      0.04897758003924
  C   -1.16207297117707      1.59431681076530      0.39665882827741
  N   -1.56296171914590      2.60907390955066      0.83149605863297
  N   1.30532134549350     -1.02725577312602     -0.55048014804464
  H   1.35144589898528     -1.07452918047000     -1.55858530153367
  H   2.20540076233728     -1.27976010917553     -0.16970844580913
