13
Coordinates from ORCA-job run
  C   -0.53531046683367      0.22587227588384     -0.16164405865819
  C   0.74205693130008     -0.62239659506032     -0.12280077506066
  F   -0.68408467110340      0.77291344634748     -1.39445542876454
  H   0.79855157615557     -1.10871073227240      0.85282320200032
  H   0.61294906005182     -1.39609712051252     -0.88684453918788
  N   -1.72392810790732     -0.69380986425944      0.09849948858997
  O   -1.81535234134075     -1.09084481621239      1.25389232000145
  O   -2.41672656218586     -0.99749200512622     -0.85917271876426
  C   -0.53670827240323      1.28197195470423      0.85204636166596
  N   -0.45736124052023      2.13525074740810      1.65527750110598
  N   1.95065642713086      0.11478839012547     -0.38109002027747
  H   2.15942501737596      0.77395577635279      0.35714894449060
  H   1.90583265028017      0.60359854262136     -1.26468027714130
