13
Coordinates from ORCA-job run
  C   -0.53294943236135      0.42291909867047     -0.18828054200028
  C   0.98908719529328      0.31851953909573     -0.03289479906197
  F   -0.86674854297851      0.37586141417935     -1.50207940919737
  H   1.40582239970880      1.18215345675058     -0.55941763877015
  H   1.23119055105705      0.41607956975752      1.02654705028050
  N   -1.14363214482774     -0.80230422313943      0.48932643306625
  O   -1.00446846300177     -0.82920804795143      1.70575945153751
  O   -1.64038686693286     -1.65523312834953     -0.22800141674700
  C   -1.10047815476156      1.61704892061287      0.43713535834988
  N   -1.49973213802511      2.60714242557946      0.92741341868381
  N   1.55848389788278     -0.89400656581875     -0.55967953682257
  H   1.32970200923365     -1.70326571547416      0.00129644101653
  H   1.27410968971333     -1.05670674391267     -1.51612481033513
