13
Coordinates from ORCA-job run
  C   -0.48896343767984      0.46668923301078     -0.19466864711883
  C   1.01053392510839      0.24912626450800      0.04092478160169
  F   -0.74627512803563      0.50206504804304     -1.52602380372470
  H   1.51509678623584      1.10493330214493     -0.41721456359906
  H   1.19482469444525      0.28119689349598      1.11596625438125
  N   -1.21995864035947     -0.74158118457454      0.38736849092960
  O   -1.15963004313543     -0.82879747959800      1.60745967321016
  O   -1.72294372180282     -1.52862104335627     -0.39771778114712
  C   -1.01326183117483      1.66858316237841      0.45326611985279
  N   -1.40417828955864      2.66324880797141      0.94099842908508
  N   1.52891163098177     -0.97439697445950     -0.51259896108457
  H   1.21303011755891     -1.79093006224654     -0.00728481665833
  H   1.29181393741650     -1.07251596731769     -1.49047517572794
