13
Coordinates from ORCA-job run
  C   -0.68449241580039      0.41549678635086     -0.21890927728055
  C   0.65781682759457     -0.00965083632774     -0.78360531283725
  F   -1.54170174642289      0.77642758805845     -1.21799541133738
  H   0.45532932752251     -0.76253428013148     -1.54745813604383
  H   1.09910525587203      0.86365342252782     -1.27232272681028
  N   -1.32698271024322     -0.79070319202022      0.46791407783254
  O   -1.28103746543034     -1.83409139715871     -0.17176038197158
  O   -1.86843979886267     -0.61171410908227      1.55066957063495
  C   -0.55512042545413      1.50452564442140      0.75139919826121
  N   -0.38813471603265      2.42881514268646      1.45589102097249
  N   1.45092334577290     -0.51597127590240      0.31971329034099
  H   2.28996631122489      0.02198337486256      0.47139400384064
  H   1.69276821025940     -1.48723686828474      0.19607008439805
