12

C	-0.485914	0.064587	-1.443898
C	0.0	0.0	0.0
Cl	-0.159776	-1.473066	-2.314317
H	1.09217	0.0	0.0
H	0.076845	0.846582	-1.957276
H	-0.381005	-0.911053	0.476113
C	-1.917947	0.352139	-1.534258
N	-3.069667	0.582364	-1.584425
N	-0.41172	1.243456	0.650456
H	-1.177712	1.098676	1.293792
H	0.388134	1.595429	1.164157
H	2.906039	0.0	0.0
