12

C	-0.595116	0.018357	-1.402444
C	0.0	0.0	0.0
Cl	-0.18212	1.52976	-2.278844
H	1.098267	0.0	0.0
H	-1.684659	-0.007374	-1.329066
H	-0.363453	0.892763	0.518756
C	-0.193686	-1.136006	-2.207211
N	0.092164	-2.058014	-2.876041
N	-0.513218	-1.22296	0.648506
H	-0.684911	-1.021242	1.625137
H	0.25583	-1.888379	0.636565
H	2.948159	0.0	0.0
