12

C	-0.58805	0.02009	-1.406368
C	0.0	0.0	0.0
Cl	-0.236682	1.568332	-2.249359
H	1.097734	0.0	0.0
H	-1.67636	-0.051183	-1.344674
H	-0.360102	0.893669	0.520213
C	-0.133243	-1.098797	-2.231781
N	0.170175	-2.000134	-2.920465
N	-0.479802	-1.237942	0.635851
H	0.343958	-1.803088	0.817716
H	-0.896768	-1.030082	1.532642
H	2.928497	0.0	0.0
