12

C	-0.328029	-0.103161	-1.485443
C	0.0	0.0	0.0
Cl	-2.075242	-0.503828	-1.822975
H	1.094435	0.0	0.0
H	0.247996	-0.92426	-1.919172
H	-0.407084	0.927524	0.410725
C	-0.026884	1.130251	-2.20555
N	0.173513	2.136143	-2.777433
N	-0.39471	-1.152572	0.790489
H	-1.261831	-1.562125	0.467624
H	0.346932	-1.841007	0.735985
H	2.860916	0.0	0.0
