12

C	-0.517391	0.00199	-1.438936
C	0.0	0.0	0.0
Cl	-0.106394	1.525881	-2.294287
H	1.092431	0.0	0.0
H	-1.611747	-0.044239	-1.449953
H	-0.37807	0.903147	0.490134
C	-0.041927	-1.148297	-2.210822
N	0.263804	-2.103097	-2.822769
N	-0.416205	-1.201714	0.714379
H	0.305047	-1.902914	0.59486
H	-1.294794	-1.578638	0.381236
H	2.920418	0.0	0.0
