13

C	0.0	0.0	0.0
C	-0.507236	-0.018081	-1.449022
Br	1.943231	0.0	0.0
H	0.341039	0.075719	-2.141304
H	-0.314805	0.931074	0.456118
C	-0.438866	-1.1286	0.81156
N	-0.548451	-2.062705	1.517692
N	-1.322434	1.220024	-1.749384
O	-2.140944	1.133627	-2.652379
O	-0.975406	2.255627	-1.19512
C	-1.247055	-1.217457	-1.816705
N	-1.650076	-2.231818	-2.251984
F	-2.311198	0.0	0.0
