13

C	0.0	0.0	0.0
C	-0.495715	-0.140079	-1.447109
Br	1.944343	0.0	0.0
H	0.357346	-0.084909	-2.138049
H	-0.30841	0.971931	0.367489
C	-0.451377	-1.040405	0.912077
N	-0.599362	-1.882871	1.718092
N	-1.3232	1.056551	-1.855724
O	-0.980245	2.143347	-1.407157
O	-2.155375	0.876615	-2.731914
C	-1.209315	-1.37676	-1.722709
N	-1.568452	-2.436533	-2.081053
F	-2.305664	0.0	0.0
