13

C	0.0	0.0	0.0
C	-0.394036	0.009292	-1.488565
Br	1.94389	0.0	0.0
H	0.136958	-0.793198	-2.007542
H	-0.360169	0.892626	0.496199
C	-0.447829	-1.218731	0.658659
N	-0.561833	-2.24977	1.210191
N	0.145868	1.273584	-2.118079
O	0.000815	2.318933	-1.493071
O	0.662071	1.167363	-3.226351
C	-1.834144	-0.05022	-1.834605
N	-2.602835	-0.113155	-2.73475
F	-2.371198	0.0	0.0
