17

C	-0.512808	0.003484	-1.420649
C	0.0	0.0	0.0
F	-0.044702	1.095517	-2.097575
H	1.095172	0.0	0.0
H	-0.327085	-0.929821	0.471408
N	0.028248	-1.223916	-2.14877
O	0.680217	-1.060862	-3.170099
O	-0.296308	-2.304171	-1.658837
C	-2.01863	-0.038135	-1.58819
H	-2.26549	-0.101119	-2.650934
H	-2.448751	0.87978	-1.186689
H	-2.435823	-0.898677	-1.067024
C	-0.486991	1.212706	0.788134
H	0.02623	1.236257	1.751304
H	-0.233022	2.135369	0.262975
H	-1.565017	1.199023	0.977312
Cl	3.523346	0.0	0.0
