17

C	-0.426493	-0.117198	-1.443625
C	0.0	0.0	0.0
F	-1.798339	-0.321783	-1.543166
H	1.091829	0.0	0.0
H	-0.370613	0.947299	0.397331
N	-0.227584	1.247156	-2.112804
O	-0.952329	2.153491	-1.709896
O	0.618442	1.351552	-2.997752
C	0.294307	-1.180886	-2.224173
H	0.001814	-1.152662	-3.274137
H	0.025216	-2.150984	-1.805288
H	1.370041	-1.035687	-2.129302
C	-0.500076	-1.163755	0.851172
H	-1.589493	-1.243427	0.835233
H	-0.071702	-2.112408	0.521683
H	-0.177063	-1.01183	1.88318
Cl	3.483271	0.0	0.0
