17

C	-0.464582	-0.125578	-1.435311
C	0.0	0.0	0.0
F	-1.763779	-0.593236	-1.483807
H	1.091948	0.0	0.0
H	-0.3112	-0.93863	0.472148
N	-0.521004	1.265575	-2.054823
O	0.55678	1.758617	-2.365841
O	-1.617046	1.808688	-2.162109
C	0.425515	-1.002344	-2.278792
H	0.383513	-2.01453	-1.871823
H	0.07657	-1.019129	-3.314166
H	1.454788	-0.647382	-2.218342
C	-0.578908	1.189387	0.752503
H	-0.292889	1.126625	1.803752
H	-1.669695	1.22267	0.68718
H	-0.176675	2.127322	0.364342
Cl	3.514847	0.0	0.0
