17

C	-0.389482	0.017784	-1.462346
C	0.0	0.0	0.0
F	-0.257551	-1.248272	-1.984107
H	1.094359	0.0	0.0
H	-0.364532	-0.942232	0.417774
N	-1.885416	0.31409	-1.546181
O	-2.228145	1.467939	-1.79757
O	-2.650824	-0.607217	-1.280494
C	0.396953	0.971818	-2.317473
H	0.079496	0.894936	-3.358191
H	1.4471	0.693607	-2.218953
H	0.270137	1.997908	-1.978555
C	-0.515018	1.190039	0.801594
H	-0.084167	1.15494	1.803916
H	-1.604876	1.188295	0.89681
H	-0.212566	2.138489	0.352301
Cl	3.503568	0.0	0.0
