16

C	0.0	0.0	0.0
C	-0.584478	0.01226	-1.418265
Br	1.924994	0.0	0.0
H	-1.643279	0.238736	-1.244313
H	-0.346641	-0.851414	0.580402
N	-0.395684	1.206729	0.816915
O	-0.469325	2.289802	0.243933
O	-0.567673	1.01603	2.014755
C	-0.496205	-1.389605	-1.999558
H	-0.976572	-1.381737	-2.978978
H	-1.022153	-2.103577	-1.362053
H	0.543708	-1.712105	-2.125823
N	-0.03833	0.978946	-2.354057
H	-0.198969	1.907517	-1.9867
H	0.963763	0.850809	-2.439462
Cl	-3.596298	0.0	0.0
