16

C	0.0	0.0	0.0
C	-0.610199	0.171808	-1.379242
Br	1.916393	0.0	0.0
H	-1.667936	0.375762	-1.156399
H	-0.358687	-0.910978	0.471646
N	-0.415258	1.102909	0.94522
O	-0.480245	2.245086	0.498244
O	-0.62375	0.776938	2.107322
C	-0.537528	-1.147377	-2.131144
H	-1.108224	-1.912973	-1.602352
H	0.49795	-1.469279	-2.271077
H	-0.99433	-1.026027	-3.117193
N	0.051099	1.220393	-2.16205
H	-0.074652	2.096959	-1.670098
H	-0.465027	1.300987	-3.031665
Cl	-3.694698	0.0	0.0
