16

C	0.0	0.0	0.0
C	-0.582618	0.043973	-1.419807
Br	1.924693	0.0	0.0
H	-1.642437	0.268594	-1.246957
H	-0.342474	-0.867452	0.559694
N	-0.399132	1.183652	0.844609
O	-0.485815	2.278414	0.296056
O	-0.560216	0.964834	2.039172
C	-0.497172	-1.346252	-2.030117
H	0.541022	-1.676947	-2.146673
H	-1.041056	-2.066892	-1.416059
H	-0.961746	-1.312591	-3.016202
N	-0.030873	1.028767	-2.332994
H	-0.184005	1.950104	-1.943485
H	0.970743	0.894725	-2.423858
Cl	-3.603631	0.0	0.0
