17

C	0.0	0.0	0.0
C	-0.573466	-0.03992	-1.418704
F	1.353488	0.0	0.0
H	-1.665772	-0.080296	-1.333771
N	-0.255166	1.505816	0.47752
O	0.716255	2.255492	0.564483
O	-1.414901	1.795408	0.731485
N	-0.573171	-0.947904	0.829413
H	-0.333372	-0.810786	1.803805
H	-1.593865	-0.946068	0.707646
N	-0.121611	-1.356191	-2.008791
O	0.999038	-1.373315	-2.512615
O	-0.889449	-2.309275	-1.928555
N	-0.152788	1.016679	-2.277069
H	0.799715	1.298959	-2.088638
H	-0.781124	1.802603	-2.190073
Br	-3.956851	0.0	0.0
