16

C	-0.277627	0.081828	-1.5113
C	0.0	0.0	0.0
Cl	-2.017387	0.511369	-1.843644
H	1.098929	0.0	0.0
N	0.565038	1.111672	-2.047739
H	1.51671	0.965527	-1.698059
H	0.572282	1.076966	-3.059351
C	-0.089425	-1.232148	-2.156137
N	0.095218	-2.251963	-2.711615
C	-0.536252	-1.214506	0.593022
N	-0.982425	-2.166319	1.117825
C	-0.452839	1.24559	0.760921
H	-0.113185	2.131388	0.224568
H	-1.537899	1.279653	0.871597
H	0.011153	1.236039	1.74895
Br	3.418945	0.0	0.0
