16

C	-0.285024	0.079347	-1.510272
C	0.0	0.0	0.0
Cl	-2.019555	0.527685	-1.839408
H	1.098904	0.0	0.0
N	0.563858	1.100745	-2.053042
H	0.550635	1.075757	-3.065587
H	1.520221	0.946282	-1.718224
C	-0.114049	-1.237914	-2.151838
N	0.051367	-2.265885	-2.698276
C	-0.537287	-1.211323	0.598951
N	-0.986901	-2.16147	1.123953
C	-0.44718	1.249012	0.759475
H	-0.110005	2.132025	0.217321
H	0.024493	1.242194	1.743884
H	-1.531113	1.284805	0.878159
Br	3.418089	0.0	0.0
