16

C	-0.304797	-0.031175	-1.512543
C	0.0	0.0	0.0
Cl	0.078971	1.643534	-2.211008
H	1.09752	0.0	0.0
N	0.468369	-1.059853	-2.088414
H	1.441946	-0.968699	-1.792976
H	0.402038	-1.0692	-3.097368
C	-1.735725	-0.2125	-1.793383
N	-2.888132	-0.336388	-1.99031
C	-0.467705	-1.257806	0.580268
N	-0.861743	-2.229953	1.109921
C	-0.561397	1.18514	0.774764
H	-0.087679	2.107452	0.444579
H	-1.645553	1.265179	0.651624
H	-0.339649	1.048856	1.834699
Br	3.443225	0.0	0.0
