16

C	-0.484495	0.006969	-1.454411
C	0.0	0.0	0.0
Cl	0.136948	-1.437413	-2.30593
H	1.095697	0.0	0.0
N	-1.933209	-0.041846	-1.520879
H	-2.226825	-0.053094	-2.491883
H	-2.309538	0.795031	-1.08805
C	0.055397	1.187844	-2.159074
N	0.339855	2.168597	-2.742011
C	-0.490422	-1.197691	0.675946
N	-0.895986	-2.120423	1.279043
C	-0.433035	1.255037	0.767253
H	-1.51444	1.304064	0.925007
H	-0.089631	2.150509	0.244846
H	0.053454	1.240538	1.743924
Br	3.432351	0.0	0.0
