16

C	-0.48481	0.075541	-1.452562
C	0.0	0.0	0.0
Cl	0.145558	-1.322044	-2.373943
H	1.09569	0.0	0.0
N	-1.933033	0.021898	-1.521426
H	-2.227895	0.086083	-2.489148
H	-2.313401	0.81894	-1.022042
C	0.048933	1.29224	-2.09846
N	0.332607	2.304092	-2.62641
C	-0.489623	-1.228732	0.618506
N	-0.892543	-2.180519	1.176119
C	-0.431711	1.216918	0.827913
H	-0.08432	2.135977	0.350802
H	0.052365	1.152664	1.804332
H	-1.513301	1.261999	0.986677
Br	3.4349	0.0	0.0
