16

C	-0.32386	-0.039841	-1.516618
C	0.0	0.0	0.0
Cl	0.107422	1.555746	-2.226408
H	1.097068	0.0	0.0
N	0.430731	-1.045622	-2.225709
H	0.145811	-1.961776	-1.890767
H	1.413255	-0.915208	-1.973222
C	-1.763662	-0.236202	-1.745763
N	-2.918545	-0.400333	-1.886344
C	-0.441711	-1.278548	0.554683
N	-0.82626	-2.305407	0.978568
C	-0.572486	1.166748	0.793878
H	-1.660085	1.225139	0.692245
H	-0.325914	1.03788	1.849015
H	-0.12545	2.099257	0.454128
Br	3.433145	0.0	0.0
