16

C	-0.2739	0.076428	-1.521591
C	0.0	0.0	0.0
Cl	-2.001188	0.533177	-1.831335
H	1.098402	0.0	0.0
N	0.572075	1.024581	-2.209088
H	0.381323	1.952142	-1.846549
H	1.539987	0.796527	-1.961901
C	-0.076117	-1.243655	-2.138224
N	0.072092	-2.301562	-2.627549
C	-0.548269	-1.202446	0.607932
N	-1.002162	-2.148413	1.137485
C	-0.431918	1.243345	0.776157
H	-0.000767	1.189852	1.777434
H	-1.517138	1.324511	0.853174
H	-0.033764	2.14181	0.300875
Br	3.414669	0.0	0.0
