16

C	-0.484707	0.024333	-1.462547
C	0.0	0.0	0.0
Cl	0.183431	1.476099	-2.285347
H	1.095422	0.0	0.0
N	-0.022039	-1.132862	-2.171115
H	-0.429709	-1.181941	-3.096865
H	-0.223178	-1.981031	-1.653019
C	-1.957658	0.181053	-1.504471
N	-3.132227	0.235584	-1.5384
C	-0.476854	-1.24376	0.601705
N	-0.891986	-2.245576	1.055802
C	-0.471804	1.199184	0.823393
H	-1.562148	1.262524	0.873563
H	-0.073544	1.104004	1.834768
H	-0.069642	2.11603	0.39302
Br	3.475145	0.0	0.0
