16

C	-0.301391	-0.034547	-1.514149
C	0.0	0.0	0.0
Cl	0.024801	1.664477	-2.204142
H	1.097559	0.0	0.0
N	0.508573	-1.02925	-2.093337
H	1.477389	-0.915513	-1.788378
H	0.447404	-1.042108	-3.103286
C	-1.722522	-0.264811	-1.804912
N	-2.862772	-0.449252	-2.019656
C	-0.464183	-1.261463	0.57571
N	-0.869364	-2.237634	1.089487
C	-0.566743	1.181076	0.776807
H	-0.075551	2.102215	0.469641
H	-0.373297	1.029021	1.839881
H	-1.646071	1.274735	0.628033
Br	3.440591	0.0	0.0
