16

C	-0.515718	0.027033	-1.448616
C	0.0	0.0	0.0
Cl	0.300316	-1.32956	-2.365212
H	1.094108	0.0	0.0
N	-1.943647	-0.066903	-1.489804
H	-2.269549	-0.069732	-2.449163
H	-2.235924	-0.930124	-1.043051
C	-0.121043	1.271069	-2.120975
N	0.113712	2.274803	-2.683698
C	-0.491814	-1.221505	0.630867
N	-0.954353	-2.17204	1.144712
C	-0.458275	1.229822	0.790412
H	-1.545468	1.315682	0.815288
H	-0.070522	1.15377	1.807801
H	-0.029542	2.126817	0.340148
Br	3.439194	0.0	0.0
