14
Coordinates from ORCA-job run
  C   -0.73168775122848     -0.48199467295705      0.57669975578503
  C   0.65801302837589      0.08435233584675      0.13492819775825
  Br  -0.80859397475548     -0.58578819604007      2.52695865906694
  H   1.40711490120932     -0.50507574574005      0.68163461354643
  C   -1.78851473636397      0.40703785559024      0.10413285224332
  N   -2.60890535379268      1.15776673855649     -0.27554708570176
  C   -0.91396620011991     -1.83133699868324      0.04772400476972
  N   -0.98433981152419     -2.91656073016040     -0.39905504790123
  N   0.74599651105203      1.44722026676597      0.56760541294957
  H   1.70103023211219      1.73428559384619      0.72615898247988
  H   0.30442291149164      2.06297748569682     -0.10547709976103
  N   0.70789597274346     -0.04652791097484     -1.31221980357345
  H   1.49209941486003      0.48496731547059     -1.67014729840629
  H   0.81743485594016     -1.01132333721739     -1.60439614325538
