14
Coordinates from ORCA-job run
  C   -0.70778618530046     -0.50647210950674      0.53393544950416
  C   0.65426183783024      0.07560129081384      0.05170382469705
  Br  -0.84672775512468     -0.40389080782166      2.49579148457904
  H   1.42518135869137     -0.57368516135425      0.49275224138517
  C   -1.80825949984179      0.25183091596216     -0.05394364113890
  N   -2.68077662776551      0.85793802787085     -0.55618791826013
  C   -0.79236369586117     -1.91618225710028      0.16208435688605
  N   -0.83382131818761     -3.05870733687944     -0.10910428199824
  N   0.72560619639088      1.47104465494573      0.43472587620608
  H   0.75110847677457      1.58281190504964      1.44114758687064
  H   1.57017123259992      1.87568317727494      0.04830314554165
  N   0.67309348528316     -0.09329840310386     -1.37599983827157
  H   0.27294529232721      0.71731716483228     -1.83320155150644
  H   1.59836720218387     -0.27999106098322     -1.73400673449456
