14
Coordinates from ORCA-job run
  C   -0.83398648275767     -0.30993820206762      0.50180261533484
  C   0.31987020730389      0.57519096498377     -0.05689740664854
  Br  -1.14919243648485      0.08643246968629      2.40484327963104
  H   -0.03463769689302      1.61286769589411      0.03212444862123
  C   -2.06841743949475     -0.00989836243775     -0.21832971830367
  N   -3.06357404368092      0.26631500814181     -0.77870802211571
  C   -0.48566945775707     -1.72147125774036      0.36836757003281
  N   -0.19858038952897     -2.85248227397701      0.22948826295370
  N   0.43095855043729      0.24562735403646     -1.45178970300803
  H   1.08150745796850     -0.51947710524966     -1.58423383475376
  H   0.69553774825535      1.03706666443942     -2.01963838015204
  N   1.53443207262812      0.27030514427005      0.67179382813435
  H   2.30517454656098      0.77817004673226      0.25452911186967
  H   1.46557736344312      0.54029185328824      1.64564794840414
