14
Coordinates from ORCA-job run
  C   -0.88643711776250     -0.23743465312295      0.52981879588673
  C   0.29421040303733      0.62387668960626     -0.01651639661948
  Br  -1.32728424172348      0.26166247295199      2.36834417867250
  H   -0.03636951050592      1.66348417264685      0.06271504595965
  C   -2.08198611427929     -0.03855451193062     -0.28593299990823
  N   -3.06001011952215      0.14225389106001     -0.91155579228159
  C   -0.47680925719044     -1.64059295906983      0.50679327918522
  N   -0.05817092773248     -2.73797080238211      0.45203742650171
  N   0.40354245815650      0.29052653185097     -1.42476762221362
  H   0.84319111189425      1.03987632737567     -1.94305267366231
  H   0.94553392698992     -0.55585389597024     -1.55833367255142
  N   1.43732643914381      0.44478520828969      0.84689764152072
  H   2.11010711523211      1.18664649873182      0.70474865427503
  H   1.89415583426233     -0.44270497003751      0.66780413523510
