14
Coordinates from ORCA-job run
  C   -0.75259141485151     -0.45996937166828      0.58761595657661
  C   0.67213677205170      0.00665706993230      0.15549489196873
  Br  -0.97716229021411     -0.32703987890189      2.52547050207009
  H   1.37143818117802     -0.63565066121705      0.69842647937491
  C   -1.73356088689390      0.40768421788666     -0.06210821587417
  N   -2.44463810639190      1.15559507016107     -0.62555117369898
  C   -0.96908447026928     -1.85383310346254      0.20729605566454
  N   -1.14078914305863     -2.98518600994641     -0.05952458429632
  N   0.86888789756913      1.36670828008915      0.59806662129153
  H   0.38231116055802      2.02055935846194     -0.00538214617582
  H   1.85276048175841      1.60165223139189      0.59884794485363
  N   0.77506202031155     -0.30650922327636     -1.25786279479396
  H   0.35388788954220      0.42117676123404     -1.82438660090919
  H   1.74134190871031     -0.41384474068452     -1.53740293605159
