14
Coordinates from ORCA-job run
  C   -0.84464857190898     -0.35335405536262      0.34792785196597
  C   0.50141618012958      0.02746391102724     -0.32394152991137
  Br  -1.37356402719296      1.05907645925608      1.62282526261239
  H   0.71159417947284     -0.80523862350311     -1.00544461637043
  C   -1.90387290342150     -0.47179556217698     -0.65031957267255
  N   -2.75249463797302     -0.61432733540410     -1.45072469310722
  C   -0.71300733173241     -1.60157245902909      1.09425689411750
  N   -0.62647084921602     -2.62824021781301      1.65958895725584
  N   1.52943333923468      0.01799820861182      0.69355873271340
  H   1.48274166582490      0.85423439809587      1.26351137855911
  H   2.44698150349314     -0.03360815630828      0.27000596637317
  N   0.27958181446377      1.20167745435837     -1.13916891399298
  H   1.02594895156497      1.31087867678627     -1.81367567714851
  H   0.23536068726102      2.03680730146152     -0.56740004039429
