14
Coordinates from ORCA-job run
  C   -0.82502166815015     -0.34370985147909      0.40087050970261
  C   0.47761474860362      0.02447871027416     -0.35821067283125
  Br  -1.23455421747419      1.05385803569928      1.73431160639440
  H   0.62367005457379     -0.80013942629946     -1.06575904744448
  C   -1.95405603336281     -0.42442204074682     -0.52193618253776
  N   -2.86651564099225     -0.54463817291287     -1.25288945374775
  C   -0.66537506132093     -1.60801092150305      1.11373243668636
  N   -0.54579535130835     -2.64584697043026      1.65210208074814
  N   1.57485376806938     -0.01985825981359      0.58314763707840
  H   2.45868596313912     -0.08388112341470      0.09459067333153
  H   1.58643229794362      0.80884420456172      1.16570104589011
  N   0.22000326430063      1.21608864972824     -1.13710111351329
  H   0.22918921083964      2.04152432884284     -0.54976267227693
  H   0.92086866513885      1.32571283749361     -1.85879684748006
