14
Coordinates from ORCA-job run
  C   -0.82766219893881     -0.31714427581056      0.50514656342730
  C   0.31259270025026      0.57998368016123     -0.06125282125133
  Br  -1.14657019187840      0.09001124088795      2.40525416191848
  H   -0.05618154791021      1.61325657284948      0.02076381834197
  C   -2.06723110985279     -0.04167225798170     -0.21619409594904
  N   -3.07232562018087      0.20739471849442     -0.77160863146288
  C   -0.45982406142330     -1.72476533088027      0.38233628872202
  N   -0.16734396086335     -2.85480352345855      0.24681143665369
  N   0.42663800867440      0.24193594685470     -1.45408028626512
  H   1.08906717234530     -0.51380288496171     -1.58191711622160
  H   0.67923044386394      1.03349731460654     -2.02747273805867
  N   1.53237589411451      0.29752821482347      0.66791981971343
  H   1.46113845032044      0.57428689971576      1.63968505609959
  H   2.29509602147886      0.81329368469925      0.24560854433217
