14
Coordinates from ORCA-job run
  C   -0.91853827378498     -0.33086063075528      0.38226848719569
  C   0.34790483597072      0.55923912744368      0.15819288601476
  Br  -2.40266518084977      0.78093019537969      1.00058104358889
  H   0.45667018641703      1.15761838046737      1.07346830274956
  C   -1.29244338704467     -0.96769882077106     -0.87676550319614
  N   -1.57662666672049     -1.44623033824102     -1.91167312848725
  C   -0.65011770847195     -1.33349916314428      1.41010327300067
  N   -0.36705518263927     -2.10301922140642      2.25264767417404
  N   0.08686419818557      1.44564587406001     -0.93684907487536
  H   0.27485978474129      0.98472643785513     -1.81972178325138
  H   0.62365780593041      2.29821173529864     -0.86940020660237
  N   1.44410414477031     -0.35668530536893     -0.11257320936447
  H   1.73954425889328     -0.85497237205832      0.71970493907490
  H   2.23584118460254      0.16359410124079     -0.46998370002153
