14
Coordinates from ORCA-job run
  C   -0.74306450753113     -0.47765212787381      0.51238288588624
  C   0.65096048870480      0.07037870617737      0.08507698531179
  Br  -0.98988538757088     -0.29740339369719      2.45781747947882
  H   1.38807986831726     -0.56920572031010      0.59300688210716
  C   -1.79911547014123      0.26891115396250     -0.16506864125140
  N   -2.63101012771067      0.86903205881302     -0.73836381813021
  C   -0.82464567224790     -1.89983243440759      0.19075756120353
  N   -0.86878603138357     -3.05200347425972     -0.03541169464751
  N   0.71945807613876      1.47894901910659      0.41597721432741
  H   1.59320297313942      1.85654580771860      0.06934515882577
  H   0.68256581335923      1.63106746610786      1.41677097694628
  N   0.74623236361814     -0.15539491181095     -1.33234785113330
  H   1.68743438622802     -0.36883946741026     -1.62881364494590
  H   0.38857322707977      0.64444731788367     -1.84112949397864
