14
Coordinates from ORCA-job run
  C   -0.83272890533866     -0.32041414176674      0.49202123009964
  C   0.30955632045077      0.58357754825875     -0.05775994617600
  Br  -1.18462362092349      0.08864443696326      2.38594359428262
  H   -0.06757487070809      1.61445897643632      0.01528963595527
  C   -2.06313333420507     -0.05677898618708     -0.24911551943123
  N   -3.06166130430971      0.17320809396484     -0.82434033681376
  C   -0.45317846131572     -1.72578370145435      0.37877623858294
  N   -0.15982455849157     -2.85695524480103      0.25422838140112
  N   0.44789441184334      0.24357614062919     -1.44830699996905
  H   0.71719215269998      1.03422475223030     -2.01560749873529
  H   1.11184247371386     -0.51343968239954     -1.56160905255619
  N   1.51939249830246      0.31169292336788      0.69201776174828
  H   2.28566778830826      0.83000885768555      0.27933582128121
  H   1.43117940997369      0.59298002707266      1.66112669033048
