14
Coordinates from ORCA-job run
  C   -0.82400336670661     -0.31276302609495      0.51538772464514
  C   0.31771121496097      0.57512226368476     -0.06286116516040
  Br  -1.10913929414236      0.08314750948284      2.42341083437259
  H   -0.03765566179472      1.61202588040085      0.03193986488256
  C   -2.07068676798040     -0.01509696355149     -0.18437469369030
  N   -3.07288487274638      0.26540119051767     -0.72990758633751
  C   -0.47497736126029     -1.72366906078606      0.37697339067311
  N   -0.19004100385814     -2.85526531147821      0.23828025663258
  N   0.40640821855162      0.24447575586822     -1.45952815072905
  H   0.65027496465672      1.03847249085342     -2.03323501038358
  H   1.06497694183064     -0.51193061411270     -1.60240184644637
  N   1.54548531117928      0.27334399413405      0.64448781108655
  H   1.48918802544288      0.53482718471380      1.62150813257460
  H   2.30534365186675      0.79190870636774      0.22032043788013
