14
Coordinates from ORCA-job run
  C   -0.79667066926345     -0.38513877761857      0.50685382329448
  C   0.28278514120201      0.59608226123331     -0.03997505109055
  Br  -1.09105748870726     -0.08910219159185      2.43206990745634
  H   -0.13358700267930      1.60360013836903      0.10462685395798
  C   -2.06485215757985     -0.13639678300756     -0.17287446426776
  N   -3.08841528006396      0.09874768929230     -0.69979161356768
  C   -0.36290547866745     -1.76478934701785      0.30588933303579
  N   -0.01774257631285     -2.87213292205141      0.11723951602750
  N   0.37841514859718      0.33421581410854     -1.45086818285859
  H   1.09021850542414     -0.36281213720241     -1.63412698621602
  H   0.54957000593843      1.16798100178441     -1.99335458957555
  N   1.53367097836079      0.33862564355479      0.64368912443533
  H   1.46800822180860      0.54087450694614      1.63454678300785
  H   2.25356265194290      0.93024510320114      0.24607554636092
