14
Coordinates from ORCA-job run
  C   -0.87382195115235     -0.29130628387694      0.52552640196237
  C   0.26745745174494      0.63551819876342      0.00312975168369
  Br  -1.32301815593468      0.12662151809310      2.38203327939963
  H   -0.10435217601111      1.65760897186283      0.11855227278345
  C   -2.08158488632601     -0.11416471053297     -0.27718938728930
  N   -3.06876010528281      0.05543415177441     -0.89134874210590
  C   -0.40558727585561     -1.67442919672905      0.45285923145900
  N   0.05965600057741     -2.74982271971715      0.35667569406616
  N   0.38189912111990      0.35420759190901     -1.41615711295253
  H   0.79798387663222      1.13413165494709     -1.90834516513271
  H   0.95003001856442     -0.46967942332523     -1.57923020571564
  N   1.42206396422530      0.47432917251825      0.85490585953354
  H   1.91589444673747     -0.38502507023518      0.64070719058389
  H   2.06113967096089      1.24957614454840      0.73788093172435
