14
Coordinates from ORCA-job run
  C   -0.81340555976514     -0.33934348641192      0.42748597733603
  C   0.46692843973785      0.02123957791991     -0.37214528454133
  Br  -1.18034407939848      1.06693840577396      1.76381250897062
  H   0.58956968776900     -0.80733464282762     -1.07950559938098
  C   -1.96941663433013     -0.42382825084276     -0.46087639877342
  N   -2.89612478938979     -0.53778075188209     -1.17472039008068
  C   -0.63536798499266     -1.59993174851409      1.14287582386588
  N   -0.51781502922539     -2.63680183390127      1.68330663017747
  N   1.59121044895561     -0.02253593384163      0.53709338775491
  H   2.45994739548909     -0.09442462846594      0.02322480095524
  H   1.62417631923616      0.81034703744095      1.11283578485245
  N   0.19069865345098      1.20992942039165     -1.14886301344336
  H   0.21789671428678      2.03794696238250     -0.56568113247486
  H   0.87204641817608      1.31457987277832     -1.88984309521798
