14
Coordinates from ORCA-job run
  C   -0.80901471041861     -0.20055173033340      0.51259521527181
  C   0.39870306576318      0.60761646160929     -0.10815816072943
  Br  -1.17522959082589      0.48342916248449      2.31538251935681
  H   0.11758811046985      1.66646846618147     -0.01155819419903
  C   -2.00681623739679     -0.00880580309798     -0.29584994693937
  N   -2.92754008942569      0.20590491846153     -0.99538561596147
  C   -0.45516792687862     -1.61106946462549      0.60954755989024
  N   -0.13128142110399     -2.73667555854630      0.70748702536610
  N   0.53822311073184      0.11677390155073     -1.45917986331688
  H   1.43963725491881      0.41380775375367     -1.81255381083127
  H   -0.18730003133248      0.47365727151838     -2.06857699505004
  N   1.64982143487753      0.40794063391517      0.55542330668831
  H   1.90976327059361     -0.57243365625290      0.54589114229652
  H   1.63861376002724      0.75393764338131      1.50493581815765
