14
Coordinates from ORCA-job run
  C   -0.80254981523111     -0.37778044141991      0.50449986473871
  C   0.28847034308214      0.59352098925980     -0.03585549601006
  Br  -1.08574188549124     -0.09397187796811      2.43276491681055
  H   -0.11567440205369      1.60543057383793      0.11603204923725
  C   -2.07059268238928     -0.10848255927034     -0.16797477063834
  N   -3.09567027963003      0.13972144008632     -0.68606148974849
  C   -0.38639932169069     -1.76097418209656      0.29115767818502
  N   -0.04416424931720     -2.86728768798247      0.09175586513567
  N   0.37802529219190      0.34152145313542     -1.44862818228890
  H   1.06519121139376     -0.37898257692536     -1.63592367941003
  H   0.58631678443077      1.17445421537999     -1.97975643959831
  N   1.53681024259643      0.31601159904245      0.64546653844300
  H   1.47955957734801      0.52858852158527      1.63419151631293
  H   2.26741918476022      0.88823053333560      0.23933162883098
