14
Coordinates from ORCA-job run
  C   -0.80842104937437     -0.33363070762346      0.31886297466084
  C   0.51341169175908      0.10324706923114     -0.41213462360878
  Br  -1.34377518819882      1.03928771393296      1.62508811690437
  H   0.70141214542121     -0.71263899286870     -1.12053396843975
  C   -1.89541384187313     -0.51386042706060     -0.63606319382898
  N   -2.75518880160750     -0.70202611297734     -1.41543348432299
  C   -0.56130684962893     -1.56906144110283      1.05596103433313
  N   -0.28296964384382     -2.56266786143400      1.61959592412371
  N   1.66876449132746      0.20795449275372      0.44123322993334
  H   1.94074193881102     -0.68521525361781      0.83484444848245
  H   1.51764778931458      0.87125716319760      1.19216446752797
  N   0.21073170826036      1.28812347206631     -1.17063579764906
  H   0.10056529764925      2.08330233622941     -0.55108911962163
  H   0.99380031198362      1.48392854927359     -1.78286000849463
