14
Coordinates from ORCA-job run
  C   -0.85737083371995     -0.30334159619196      0.54540277973723
  C   0.26336992378422      0.63716427806326      0.00344594389253
  Br  -1.25882463824821      0.09010648646456      2.41819223211015
  H   -0.11181844451084      1.65527466662293      0.14123842838739
  C   -2.08761853513851     -0.12535079491970     -0.22211513746463
  N   -3.09345965947262      0.04056731577221     -0.80660566074135
  C   -0.38256053605805     -1.68235465473075      0.44360527375779
  N   0.08871566036350     -2.75275522347073      0.32218958512316
  N   0.34086784273400      0.37365843346597     -1.42160232807881
  H   0.73970104031629      1.16155431827875     -1.91535223523174
  H   0.90801910355167     -0.44545380920085     -1.61016373570788
  N   1.44164699660414      0.47395446903789      0.82173423759341
  H   2.07249256791834      1.25465641804010      0.69664390281190
  H   1.93483951187605     -0.37968030723174      0.58438671381083
