14
Coordinates from ORCA-job run
  C   -0.76625514835486     -0.38462159545960      0.61903525887767
  C   0.67403792969137      0.00219850094507      0.16171585781375
  Br  -0.99933906665861     -0.07516189709652      2.53558220091536
  H   1.35148061273305     -0.60581260431968      0.76803932283898
  C   -1.71767502984672      0.44967582857017     -0.11321815227193
  N   -2.41542207785215      1.15047777072254     -0.74898774778247
  C   -1.02281447720198     -1.79944168898705      0.35986908187272
  N   -1.24528739037933     -2.94062886615816      0.19025401975809
  N   0.90406191934668      1.39154654904485      0.48083469613595
  H   0.44637305734733      1.99989618765183     -0.18899032444895
  H   1.89419962092947      1.59823101750724      0.47784458554394
  N   0.78063157051417     -0.44173563959174     -1.21592553094918
  H   1.74773988902945     -0.58124182455186     -1.47845132049612
  H   0.36926859070211      0.23461826172287     -1.84960194780776
