14
Coordinates from ORCA-job run
  C   -0.86011358970104     -0.29590721008312      0.54454309408407
  C   0.26043701717125      0.63916562445364     -0.00697874898156
  Br  -1.28123456207415      0.13514487814061      2.40479994113428
  H   -0.12114509294688      1.65787986531506      0.10659002647442
  C   -2.08400315698944     -0.14189842583116     -0.23823683488249
  N   -3.08526140784847     -0.00039303562107     -0.83674150988989
  C   -0.37744270961098     -1.67428080639031      0.47645854487116
  N   0.09993859988641     -2.74443357485267      0.38063867451190
  N   0.35241167561253      0.34656244883104     -1.42552113357724
  H   0.93425016150757     -0.46663611438999     -1.59304910963781
  H   0.73994922848840      1.13030031126849     -1.93449587592949
  N   1.43215768598765      0.49881240296608      0.82485239734065
  H   2.06400075713532      1.27574192744897      0.68216380578449
  H   1.92705539338185     -0.36105829125555      0.61497672869756
