14
Coordinates from ORCA-job run
  C   -0.87803033408832     -0.24276574464786      0.51927643196810
  C   0.34713288587361      0.58186292001772      0.00404619391829
  Br  -1.42995438821532      0.42484489485939      2.27154753242312
  H   0.06669295971027      1.63761262267506      0.12393968241739
  C   -2.00598367646133     -0.08798813540017     -0.39588222965486
  N   -2.87239849058151      0.09182063774823     -1.17001746837447
  C   -0.50013696430502     -1.64727413507438      0.64174056583145
  N   -0.15514890996799     -2.76557286915729      0.74801965526870
  N   0.57368348021498      0.15687978088479     -1.36778212512203
  H   1.47371763085630      0.49909659467199     -1.68101111940189
  H   -0.13812559629579      0.50827210957520     -1.99874115282431
  N   1.46488731716234      0.30793613055590      0.85761231717202
  H   1.93515783117198     -0.54107931696753      0.56558691298001
  H   2.11950625492570      1.07635451025891      0.88166480339849
