14
Coordinates from ORCA-job run
  C   -0.87181515891691     -0.23346505265001      0.55645412803126
  C   0.28941628147353      0.62523145819865     -0.03400467434227
  Br  -1.26677181318284      0.29295589761995      2.39809893719588
  H   -0.04430688316212      1.66428878356640      0.03884211300023
  C   -2.08960980820505     -0.05413945720032     -0.23028757374506
  N   -3.08507629098505      0.11123467954003     -0.83220837612879
  C   -0.45285406302181     -1.63401353175293      0.54560318875716
  N   -0.02121990841188     -2.72669601678814      0.49873892842577
  N   0.36273668232512      0.27168961942519     -1.43973697410072
  H   0.78731706412215      1.01411029842387     -1.98016221351764
  H   0.90267867335764     -0.57577323019606     -1.57477947338286
  N   1.45609678057132      0.46417099151898      0.80095637264456
  H   2.12350051919706      1.20365032966829      0.62505217272664
  H   1.90890792483889     -0.42624476937389      0.62643344443584
