14
Coordinates from ORCA-job run
  C   -0.79935518530684     -0.20361210782243      0.53013958977703
  C   0.39228989880267      0.60824992479535     -0.11753411690118
  Br  -1.12988603735163      0.48212796193819      2.33905338137577
  H   0.10954301083007      1.66604185283168     -0.01453353102305
  C   -2.01474284658708     -0.01788549173559     -0.25317650385829
  N   -2.95128382877939      0.19089925361918     -0.93319117073828
  C   -0.43628566030824     -1.61205352994170      0.62208563858264
  N   -0.08068394612598     -2.72852526305102      0.71508235160728
  N   0.50325714652992      0.11792401054949     -1.47128457231614
  H   -0.23555253711843      0.47405139425109     -2.06490626856456
  H   1.39660082271397      0.41587928616561     -1.84377445362003
  N   1.65821699192617      0.41309762092053      0.51831480885346
  H   1.92081094328999     -0.56651853385091      0.50434673539244
  H   1.66707122748479      0.76032362133054      1.46737811143292
