14
Coordinates from ORCA-job run
  C   -0.64561284229672     -0.45955191026043      0.57686653869614
  C   0.72887439747684      0.07645357091301      0.01081222902279
  Br  -0.57329526719727     -0.45702935833832      2.53792900755034
  H   1.50041902642965     -0.54058665541896      0.49419721020949
  C   -1.72613896584287      0.41898231719420      0.14708585518854
  N   -2.55618366410787      1.18165003818036     -0.18582878689887
  C   -0.86766263752372     -1.83074748073290      0.13425277216317
  N   -0.96498330639455     -2.93581051306729     -0.25636412877685
  N   0.99707902330055      1.45026940416253      0.30459007111110
  H   1.10651593260392      1.61496119394100      1.29578567370737
  H   0.26643990153570      2.04715109410815     -0.06811021200814
  N   0.63234656271373     -0.05207880858393     -1.42453636405984
  H   1.37176097791796      0.50006699155317     -1.84183307177091
  H   0.73044086138466     -1.01372988365061     -1.72584679413435
