14
Coordinates from ORCA-job run
  C   -0.84221974085962     -0.35189378655046      0.39866239022086
  C   0.43686001642879      0.14461840773224     -0.34512463572297
  Br  -1.44871632228706      0.96947180427788      1.71106359789319
  H   0.60448895480550     -0.61785047850601     -1.12310648939110
  C   -1.91287803158328     -0.56359903482587     -0.57150777114310
  N   -2.75286209896682     -0.76507717077455     -1.36813282633785
  C   -0.54883361970788     -1.59568579762620      1.10761939398160
  N   -0.23724791860234     -2.59502267042883      1.64302533217281
  N   1.51598798698635      0.26406177664997      0.61613402747424
  H   2.31085191555681      0.70147193054229      0.16651806511419
  H   1.81146581940256     -0.64065440700048      0.96711379468539
  N   0.12497937810472      1.37636073067273     -1.00976193885501
  H   0.71033786369803      1.51859746326960     -1.82103127687567
  H   0.22778579702421      2.15520123256772     -0.37047166321659
