14
Coordinates from ORCA-job run
  C   -0.67744015722205     -0.43660959569370      0.54854840059645
  C   0.72100954289543      0.10086417935996      0.07137357437718
  Br  -0.79966381257617     -0.37818893185210      2.51053684805468
  H   1.46105669247450     -0.56017299058837      0.54816534213056
  C   -1.74622625326577      0.37634504960757     -0.02141886546675
  N   -2.58441803076060      1.02757195040952     -0.52631741647885
  C   -0.81363908689793     -1.83025610800507      0.13575355359129
  N   -0.84562281171453     -2.94734089277260     -0.22983279728897
  N   0.80451284673843      1.49474982357275      0.42826864113743
  H   0.88429576913870      1.61975134943816      1.42887462792823
  H   1.62595485501627      1.88201078532411     -0.01979967734483
  N   0.88798580113698      0.01566029530847     -1.35013901408557
  H   0.19248974678783      0.57231794430058     -1.83357380083692
  H   0.88770489824897     -0.93570285840927     -1.69243941631395
