14
Coordinates from ORCA-job run
  C   -0.77938309318863     -0.28175735279247      0.51154180121153
  C   0.39197654531450      0.61896681192093     -0.02516338217355
  Br  -1.13815785193457      0.11850610650381      2.40351930410016
  H   0.04789605711008      1.65478716377583      0.11845879311572
  C   -1.99186997781488      0.01788287379850     -0.24422259205376
  N   -2.92394792913198      0.31031047654530     -0.89858761502932
  C   -0.42683469224970     -1.69123839802108      0.37976559348149
  N   -0.13753550850086     -2.81940411804523      0.22135018893343
  N   0.64709381657643      0.41660387684403     -1.42152762256926
  H   -0.12884456914424      0.68973076943711     -2.00937789401079
  H   0.91997702892607     -0.54153800423732     -1.60794629772100
  N   1.59148446616497      0.25326384078623      0.68534673134511
  H   1.55561882034823      0.54461299518909      1.65334633402543
  H   2.37352688752459      0.70927295829527      0.23149665734482
