13

C	0.0	0.0	0.0
C	-0.312535	-0.195651	-1.509397
Cl	1.755383	0.0	0.0
H	0.27739	0.606041	-1.97312
H	-0.416153	0.918818	0.3987
N	-0.433931	-1.117065	0.911437
O	-0.453478	-0.830303	2.100986
O	-0.623011	-2.21653	0.414903
C	-1.645199	-0.041655	-2.128193
N	-2.2899	0.08491	-3.111514
C	0.279171	-1.436774	-2.037414
N	0.775317	-2.358716	-2.568905
Cl	-3.040753	0.0	0.0
