13

C	0.0	0.0	0.0
C	-0.306692	-0.001396	-1.525186
Cl	1.755166	0.0	0.0
H	0.203776	0.911371	-1.86273
H	-0.416817	0.857912	0.51543
N	-0.433725	-1.233085	0.742298
O	-0.598908	-2.255355	0.093113
O	-0.478531	-1.115007	1.959449
C	-1.650806	0.095543	-2.133391
N	-2.298602	0.229076	-3.114036
C	0.389624	-1.100579	-2.218187
N	0.939334	-1.914068	-2.861938
Cl	-3.041391	0.0	0.0
