13

C	0.0	0.0	0.0
C	-0.451215	-0.226931	-1.476315
Cl	1.749242	0.0	0.0
H	0.461307	-0.456032	-2.040218
H	-0.398074	0.909464	0.433549
N	-0.367217	-1.126472	0.936806
O	-0.323416	-2.261918	0.480762
O	-0.529606	-0.810291	2.106498
C	-0.935832	1.042158	-2.027386
N	-1.153648	2.070414	-2.551021
C	-1.356153	-1.335038	-1.805423
N	-1.834264	-2.245555	-2.378102
Cl	-2.957958	0.0	0.0
