13

C	0.0	0.0	0.0
C	-0.29214	0.017426	-1.526272
Cl	1.787015	0.0	0.0
H	0.324464	0.858058	-1.869386
H	-0.398648	0.863644	0.519323
N	-0.419615	-1.224476	0.760321
O	-0.580309	-2.26124	0.134246
O	-0.454717	-1.083306	1.976126
C	-1.613066	0.298012	-2.126787
N	-2.247568	0.61038	-3.074443
C	0.271617	-1.154884	-2.216645
N	0.734033	-2.012057	-2.87315
Cl	-3.009845	0.0	0.0
