13

C	0.0	0.0	0.0
C	-0.430597	-0.179241	-1.483723
Cl	1.7876	0.0	0.0
H	0.480048	-0.436333	-2.039059
H	-0.381963	0.900036	0.466171
N	-0.351127	-1.156792	0.899575
O	-0.340817	-2.273525	0.398188
O	-0.477076	-0.884397	2.085094
C	-0.848852	1.125159	-2.003517
N	-1.016606	2.18692	-2.47655
C	-1.373213	-1.243347	-1.850848
N	-1.870535	-2.13542	-2.435294
Cl	-2.955263	0.0	0.0
