16

C	0.0	0.0	0.0
C	-0.551114	-0.099044	-1.439622
Br	1.967182	0.0	0.0
H	-1.650134	-0.138129	-1.246976
C	-0.31191	1.373755	0.470449
N	-0.494805	2.460449	0.884385
N	-0.568453	-1.036847	0.780818
H	-1.612386	-0.874251	0.63513
H	-0.368759	-0.869271	1.76342
N	-0.138955	-1.407986	-2.040367
O	-0.866299	-2.380534	-1.850329
O	0.900679	-1.418931	-2.703262
N	-0.221617	0.953007	-2.343755
H	-0.809329	1.750782	-2.138815
H	0.754647	1.214674	-2.276956
H	-2.913022	0.0	0.0
