16

C	0.0	0.0	0.0
C	-0.542991	-0.069111	-1.444618
Br	1.971638	0.0	0.0
H	-1.643684	-0.088314	-1.260317
C	-0.303495	1.370041	0.489611
N	-0.486666	2.453922	0.91032
N	-0.583468	-1.044859	0.753649
H	-0.396617	-0.895926	1.741584
H	-1.628375	-0.866344	0.59573
N	-0.158096	-1.380522	-2.054317
O	0.890881	-1.410546	-2.700477
O	-0.912845	-2.33532	-1.887103
N	-0.180238	0.982555	-2.337259
H	0.805497	1.205891	-2.26791
H	-0.736643	1.799171	-2.118927
H	-2.909372	0.0	0.0
