16

C	0.0	0.0	0.0
C	-0.506609	0.05616	-1.450254
Br	1.965035	0.0	0.0
H	-0.441279	-0.95249	-1.879926
C	-0.413997	1.189013	0.752839
N	-0.874	1.958967	1.517
N	-0.550931	-1.14705	0.67207
H	-0.177745	-1.206379	1.613373
H	-0.267394	-1.979612	0.167115
N	0.297656	0.952794	-2.276245
O	0.247692	2.185435	-1.64326
O	-0.1388	0.812696	-3.571611
N	-1.94132	0.452077	-1.361994
H	-2.268195	0.313652	-2.315563
H	-1.838434	1.470099	-1.303521
H	-3.219273	0.0	0.0
