16

C	0.0	0.0	0.0
C	-0.398259	-0.023734	-1.52597
Br	2.023168	0.0	0.0
H	0.508117	-0.043073	-2.136974
C	-0.367656	1.20035	0.757162
N	-0.501361	2.119114	1.480361
N	-0.401728	-1.14737	0.752724
H	-1.425176	-0.998612	0.82972
H	-0.267903	-1.954891	0.151952
N	-1.017617	1.310039	-1.994143
O	-1.906824	1.242849	-2.837578
O	-0.458707	2.342111	-1.631665
N	-1.204471	-1.150487	-1.799569
H	-2.073659	-0.962089	-1.252023
H	-1.416924	-1.17146	-2.790335
H	-2.695462	0.0	0.0
