16

C	0.0	0.0	0.0
C	-0.274144	-0.181947	-1.519575
Br	2.014952	0.0	0.0
H	0.560871	0.239624	-2.094088
C	-0.370574	1.272439	0.588332
N	-0.435615	2.288276	1.188875
N	-0.236235	-1.178529	0.847564
H	-1.090736	-1.025374	1.365064
H	0.563078	-1.306569	1.461173
N	-1.419068	0.711727	-2.021711
O	-1.242624	1.920017	-1.890868
O	-2.31423	0.201101	-2.696043
N	-0.455979	-1.552848	-1.820578
H	-0.959405	-1.966156	-1.04243
H	-1.013919	-1.627171	-2.662035
H	-1.904031	0.0	0.0
