16

C	-0.421726	-0.098533	-1.446567
C	0.0	0.0	0.0
Br	-0.212117	1.706889	-2.195776
H	1.088548	0.0	0.0
H	-0.370817	0.888589	0.50079
C	0.400226	-1.058556	-2.269539
H	0.179782	-2.076512	-1.950596
H	0.186351	-0.950717	-3.331359
H	1.449351	-0.835009	-2.048927
N	-1.919777	-0.378219	-1.577099
O	-2.297354	-0.999331	-2.565383
O	-2.649258	0.067643	-0.697497
N	-0.437097	-1.143815	0.794755
O	-0.756436	-2.193709	0.219108
O	-0.389032	-1.012472	2.019513
H	2.637138	0.0	0.0
