16

C	-0.430588	-0.096125	-1.443683
C	0.0	0.0	0.0
Br	-0.249992	1.715876	-2.187849
H	1.088558	0.0	0.0
H	-0.373752	0.884046	0.507101
C	0.392111	-1.045729	-2.278814
H	0.172668	-0.931308	-3.339095
H	1.442605	-0.822394	-2.06048
H	0.175033	-2.065133	-1.965084
N	-1.929294	-0.394454	-1.562371
O	-2.309441	-1.013447	-2.551061
O	-2.656525	0.030984	-0.670271
N	-0.424794	-1.150406	0.792473
O	-0.380408	-1.02341	2.01798
O	-0.719511	-2.206029	0.211765
H	2.632472	0.0	0.0
