16

C	-0.49424	0.051798	-1.407634
C	0.0	0.0	0.0
Br	-2.469297	0.217738	-1.51688
H	1.091078	0.0	0.0
H	-0.273766	0.923993	0.510505
C	0.149429	1.235799	-2.100889
H	1.23533	1.127979	-1.979263
H	-0.134253	1.259555	-3.153536
H	-0.168813	2.161643	-1.620281
N	-0.084598	-1.17492	-2.218391
O	-0.61394	-1.322154	-3.316701
O	0.827988	-1.849777	-1.763896
N	-0.519452	-1.087201	0.821875
O	-0.386362	-0.951406	2.042832
O	-1.001863	-2.085997	0.277721
H	2.591646	0.0	0.0
