16

C	-0.439593	0.014943	-1.43259
C	0.0	0.0	0.0
Br	0.290108	1.526539	-2.408313
H	1.088342	0.0	0.0
H	-0.299646	-0.929074	0.483089
C	0.064721	-1.259651	-2.088949
H	1.14691	-1.295751	-1.929764
H	-0.163669	-1.260329	-3.155861
H	-0.403849	-2.124041	-1.609137
N	-1.96929	0.018544	-1.568838
O	-2.566323	-0.594656	-0.686444
O	-2.489219	0.508926	-2.56219
N	-0.534806	1.078307	0.827176
O	-1.157982	2.002887	0.291705
O	-0.293689	1.003902	2.034621
H	2.641816	0.0	0.0
