16

C	-0.678058	-0.051059	-1.344996
C	0.0	0.0	0.0
Br	0.033358	-1.629668	-2.284637
H	1.0905	0.0	0.0
H	-0.244709	-0.904365	0.558687
C	-2.183699	-0.179895	-1.283038
H	-2.431446	-1.039394	-0.659185
H	-2.595519	0.729748	-0.843315
H	-2.610207	-0.319203	-2.274768
N	-0.291855	1.12733	-2.233609
O	0.864322	1.508016	-2.183736
O	-1.166518	1.568608	-2.976429
N	-0.446319	1.118433	0.782363
O	-0.307777	1.037082	2.013843
O	-0.816875	2.15545	0.188883
H	2.487938	0.0	0.0
