13
Coordinates from ORCA-job run
  C   0.31730310834774     -0.58971441523904      0.14255918818470
  C   -0.65132705382627      0.57740198512587      0.02552163906330
  Cl  0.36613213525605     -1.17166456466506      1.83639017024074
  H   -0.38141970803784      1.32050768891047      0.78087314943809
  H   -0.06085567344692     -1.43198411769843     -0.44349110400617
  H   -0.48553747691608      1.03958414770729     -0.96087341608201
  C   1.72049949110158     -0.22265382524775     -0.30272521016833
  H   2.40036696750962     -1.06736292034658     -0.18749171022479
  H   1.71492711807453      0.07644208758293     -1.35472800880699
  H   2.10474215902805      0.60724656831654      0.29449862162670
  N   -2.02676659398962      0.15655728257764      0.25251814519801
  H   -2.41521336216795     -0.24315954486161     -0.59193486496521
  H   -2.60185111093288      0.94679962783775      0.50988340050197
