13
Coordinates from ORCA-job run
  C   0.29679053018309     -0.85039262968719     -0.13597536301178
  C   -0.98434414153150     -0.04955983405176     -0.33656637297436
  Cl  0.17244613758133     -1.80450908066040      1.37866888672419
  H   -0.95911342772859      0.34322348555033     -1.36279130964316
  H   0.37803901680830     -1.58919075199501     -0.93803215254541
  H   -1.83152183630137     -0.73760062029462     -0.28011148534239
  C   1.53257678028117      0.02306428539652     -0.08545791356143
  H   1.62555648499958      0.58524449968563     -1.02045234487668
  H   2.43305190823338     -0.57792238115366      0.04596268608579
  H   1.45154413735130      0.72363812060057      0.74532439240110
  N   -1.11730829002652      1.01073290134017      0.65585222164408
  H   -2.02883248144995      1.00207455413536      1.08663615987487
  H   -0.96888481840021      1.92019745113406      0.24494259522519
