13
Coordinates from ORCA-job run
  C   0.29185956084247     -0.51407932247434      0.02560195405210
  C   -0.69393913315839      0.65012918527793     -0.05735446334019
  Cl  0.15631246703424     -1.28931213226189      1.64488127422274
  H   -0.53918242136929      1.13789443564363     -1.02658061698613
  H   0.00050107682046     -1.29006407421872     -0.68796246236014
  H   -0.43055630055293      1.37870221699430      0.71547853833363
  C   1.72696465166618     -0.08444193464507     -0.20582986377915
  H   2.02471757034350      0.66273938324041      0.53282224311108
  H   2.41055942665835     -0.93100899488294     -0.13112433992969
  H   1.82518654426008      0.35276952008807     -1.20364186707678
  N   -2.10592001312897      0.33899512678876      0.07215245328250
  H   -2.28008605372224     -0.09794453248159      0.96842732372052
  H   -2.38941737569344     -0.31537887706855     -0.64687017325048
