16

C	-0.362356	-0.015054	-1.450493
C	0.0	0.0	0.0
Br	-2.295443	0.039126	-1.835704
H	1.094012	0.0	0.0
H	0.011197	-0.910639	-1.930022
N	0.270594	1.130821	-2.192044
O	1.130859	0.822905	-3.012017
O	-0.112759	2.270527	-1.948685
N	-0.377611	-1.307548	0.572715
O	-0.639483	-1.358588	1.775615
O	-0.348135	-2.301802	-0.158545
C	-0.496404	1.14332	0.848528
H	-1.587343	1.168518	0.929153
H	-0.148816	2.079212	0.415704
H	-0.066602	1.046377	1.844043
F	2.479369	0.0	0.0
