16

C	-0.627634	0.03998	-1.368064
C	0.0	0.0	0.0
Br	-0.054426	1.616836	-2.353769
H	1.089354	0.0	0.0
H	-1.717064	0.057038	-1.366629
N	-0.276561	-1.13878	-2.247896
O	0.813603	-1.666959	-2.102709
O	-1.133747	-1.449557	-3.073575
N	-0.501279	-1.20584	0.689285
O	-0.206425	-1.36032	1.87321
O	-1.183093	-2.017049	0.04384
C	-0.34619	1.220487	0.841932
H	0.001909	1.028931	1.855413
H	0.209291	2.074719	0.460087
H	-1.419105	1.452311	0.857641
F	2.498783	0.0	0.0
