16

C	-0.424846	0.013113	-1.448823
C	0.0	0.0	0.0
Br	0.324082	-1.465711	-2.434999
H	1.091146	0.0	0.0
H	-0.045748	0.927987	-1.900528
N	-1.931361	0.081219	-1.664036
O	-2.569627	-0.915768	-1.967427
O	-2.404405	1.204891	-1.482213
N	-0.489425	-1.262631	0.65067
O	-1.714346	-1.426106	0.717882
O	0.338171	-2.054288	1.094562
C	-0.519747	1.166341	0.81861
H	-1.604918	1.154661	0.932689
H	-0.045828	1.113822	1.801857
H	-0.218543	2.106938	0.354034
F	2.541522	0.0	0.0
