16

C	-0.609205	0.036321	-1.376268
C	0.0	0.0	0.0
Br	0.008761	1.591364	-2.368067
H	1.089313	0.0	0.0
H	-1.698051	0.072436	-1.394742
N	-0.263068	-1.162277	-2.232335
O	-1.078988	-1.429033	-3.113258
O	0.78279	-1.751024	-2.012278
N	-0.515577	-1.200151	0.68924
O	-0.190042	-1.37289	1.86135
O	-1.254204	-1.976012	0.063168
C	-0.363078	1.216544	0.839916
H	-1.444806	1.399968	0.896083
H	0.136141	2.092223	0.427975
H	0.032283	1.051995	1.840799
F	2.502822	0.0	0.0
