16

C	-0.354295	0.037711	-1.465739
C	0.0	0.0	0.0
Br	0.231246	-1.521023	-2.438141
H	1.091144	0.0	0.0
H	0.150881	0.894423	-1.901531
N	-1.829788	0.274138	-1.727137
O	-2.160736	1.463196	-1.721424
O	-2.593054	-0.672163	-1.85959
N	-0.574329	-1.213692	0.64189
O	-1.777668	-1.194219	0.93199
O	0.171419	-2.165696	0.858562
C	-0.457473	1.2298	0.758596
H	-1.540842	1.355591	0.790543
H	0.000335	2.109716	0.303966
H	-0.069697	1.153691	1.77784
F	2.540558	0.0	0.0
