17

C	-0.504863	0.003655	-1.434985
C	0.0	0.0	0.0
Cl	0.014193	-1.554449	-2.230906
H	1.100368	0.0	0.0
H	-0.340722	0.945066	0.445553
C	-2.019592	0.044559	-1.532166
H	-2.448647	-0.789791	-0.977912
H	-2.382925	0.978289	-1.088899
H	-2.344822	-0.000646	-2.575489
C	0.173685	1.132737	-2.19119
H	-0.157621	2.090207	-1.773247
H	1.256589	1.054835	-2.065743
H	-0.085585	1.107188	-3.253311
N	-0.577228	-1.106685	0.785612
H	-0.284019	-0.952821	1.745582
H	-0.074857	-1.94054	0.49448
H	3.089235	0.0	0.0
