17

C	-0.355482	-0.035601	-1.471746
C	0.0	0.0	0.0
Cl	-2.189176	0.017759	-1.673619
H	1.09618	0.0	0.0
H	-0.34463	0.953419	0.428589
C	0.219696	1.192833	-2.148967
H	0.020809	1.182178	-3.223248
H	1.299208	1.189901	-1.965608
H	-0.204487	2.106247	-1.723736
C	0.146246	-1.314932	-2.108396
H	1.228992	-1.350083	-1.950114
H	-0.077067	-1.336277	-3.17809
H	-0.302369	-2.17649	-1.617191
N	-0.462332	-1.175682	0.729437
H	0.214614	-1.373876	1.457387
H	-1.359593	-0.996202	1.163678
H	3.01118	0.0	0.0
