17

C	-0.522104	0.054668	-1.434266
C	0.0	0.0	0.0
Cl	-0.203476	-1.568462	-2.188436
H	1.093555	0.0	0.0
H	-0.364576	-0.91245	0.488106
C	-2.021316	0.280443	-1.494795
H	-2.375016	0.285764	-2.529382
H	-2.551089	-0.507421	-0.952997
H	-2.243914	1.24232	-1.028359
C	0.246042	1.089343	-2.230752
H	-0.072829	1.102699	-3.277618
H	0.061248	2.067636	-1.780801
H	1.314068	0.878003	-2.162752
N	-0.409749	1.225776	0.709677
H	-1.112892	1.016555	1.405734
H	0.410764	1.575686	1.192568
H	3.074732	0.0	0.0
