17

C	-0.449157	-0.042299	-1.467808
C	0.0	0.0	0.0
Cl	-0.054074	1.584863	-2.174619
H	1.094076	0.0	0.0
H	-0.387198	0.90983	0.471015
C	0.352154	-1.07868	-2.237368
H	1.418327	-0.899354	-2.072413
H	0.108574	-2.076178	-1.857415
H	0.118695	-1.046812	-3.305755
C	-1.950249	-0.218159	-1.649575
H	-2.265819	-1.205315	-1.297352
H	-2.222156	-0.138247	-2.705402
H	-2.49784	0.546093	-1.091446
N	-0.377516	-1.176336	0.786541
H	0.353126	-1.870599	0.69606
H	-1.260485	-1.581125	0.506385
H	3.066029	0.0	0.0
