15

C	0.0	0.0	0.0
C	-0.32181	-0.089416	-1.497948
F	1.398061	0.0	0.0
H	0.246756	-0.963867	-1.845331
H	-0.357421	0.940822	0.415315
C	-0.437788	-1.188893	0.819315
H	0.014168	-1.134225	1.815372
H	-0.098535	-2.112632	0.337374
H	-1.529095	-1.125853	0.853298
N	0.221228	1.06518	-2.240446
H	-0.35792	1.869698	-2.022228
H	1.143543	1.245186	-1.856929
C	-1.710139	-0.312537	-1.957221
N	-2.492717	-0.544853	-2.809632
F	-2.645022	0.0	0.0
