15

C	0.0	0.0	0.0
C	-0.375103	-0.024708	-1.473622
F	1.399995	0.0	0.0
H	0.06972	-0.956643	-1.868778
H	-0.348989	0.924469	0.454971
C	-0.420619	-1.22245	0.779532
H	-1.507075	-1.179818	0.843206
H	0.050416	-1.1997	1.767276
H	-0.082817	-2.12625	0.260782
N	0.224996	1.16179	-2.117624
H	-0.06211	1.162492	-3.089803
H	1.231922	1.051745	-2.082567
C	-1.808429	-0.063175	-1.860512
N	-2.542862	-0.11395	-2.790277
F	-2.645594	0.0	0.0
