15

C	0.0	0.0	0.0
C	-0.515612	0.033889	-1.431499
F	1.395387	0.0	0.0
H	-1.621636	0.043836	-1.251275
H	-0.342198	0.903949	0.506539
C	-0.470128	-1.219666	0.756337
H	-1.565727	-1.168268	0.715778
H	-0.071988	-2.129666	0.296441
H	-0.102824	-1.174497	1.785851
N	-0.087143	-1.099725	-2.257867
H	0.885028	-1.298313	-2.039442
H	-0.632057	-1.907596	-1.98457
C	-0.080314	1.274217	-2.083085
N	0.271439	2.273799	-2.590605
F	-2.83054	0.0	0.0
