15

C	0.0	0.0	0.0
C	-0.38704	-0.007036	-1.471938
F	1.400129	0.0	0.0
H	0.039899	-0.941236	-1.88035
H	-0.349203	0.918029	0.467659
C	-0.418368	-1.232922	0.76681
H	-1.504999	-1.200515	0.828056
H	-0.072526	-2.129205	0.240516
H	0.046817	-1.217561	1.757354
N	0.221862	1.177772	-2.109346
H	1.228183	1.057906	-2.082444
H	-0.073419	1.186961	-3.079039
C	-1.823495	-0.019973	-1.851814
N	-2.556845	-0.036808	-2.784302
F	-2.644627	0.0	0.0
