13
Coordinates from ORCA-job run
  C   -0.46399993085521      0.14619594096241     -0.41798620404041
  C   0.36977353402702     -0.14610894745446      0.82989832599569
  Br  -0.81787561845237     -1.65947809845846     -1.30566693670733
  H   -0.26602120491533     -0.73116058445926      1.51216890579037
  H   0.55166388607230      0.82841619437041      1.29231450333383
  C   0.30033944349248      0.90647742794485     -1.40345890009685
  N   0.91070625630172      1.55869838188604     -2.16612104675692
  N   -1.65204763106631      0.82947161938770     -0.08044872273218
  H   -2.20926704659561      1.06620163293614     -0.89114556569410
  H   -2.21147167341404      0.29843666962039      0.57537037505408
  N   1.63593666742522     -0.75450708209079      0.48725027769507
  H   2.31723928311424     -0.59145812669784      1.21506386710531
  H   1.53602403486589     -1.75118502794714      0.35176112105345
