13
Coordinates from ORCA-job run
  C   -0.48781141307036     -0.05958268253871     -0.50958042812616
  C   0.45435606348452     -0.79193529298414      0.44535967158727
  Br  -1.68901234814654     -1.48148287948394     -1.32196457256771
  H   -0.17267160116502     -1.24790014147835      1.22832091754838
  H   0.94466897877229     -1.60109910602555     -0.09752176027605
  C   0.23630286184594      0.52727697388479     -1.63569244804479
  N   0.79169811149861      0.99908022780465     -2.55665251435124
  N   -1.20972533714408      0.94261864567615      0.18474326467552
  H   -1.76670857541323      1.51880474146522     -0.43347769747933
  H   -1.80694183563799      0.53167745890010      0.89280036852230
  N   1.45265964621406      0.15421978898915      0.90179364122190
  H   2.21064589444179     -0.32153150212050      1.37197014383656
  H   1.04153955432001      0.83085376791114      1.52990141345334
