15

C	-0.508099	0.079201	-1.435059
C	0.0	0.0	0.0
Cl	-2.260993	0.326632	-1.531718
H	1.097586	0.0	0.0
H	-0.021755	0.886504	-1.980342
N	-0.131912	-1.176822	-2.182693
O	-0.921469	-2.1095	-2.224793
O	0.991277	-1.148156	-2.676292
N	-0.45496	-1.210323	0.631512
H	-1.351255	-1.048659	1.074371
H	0.224341	-1.506322	1.319232
N	-0.476016	1.202403	0.716799
H	0.073983	1.230043	1.571357
H	-0.182337	2.024619	0.19335
Cl	3.40189	0.0	0.0
