15

C	-0.444294	0.068795	-1.449323
C	0.0	0.0	0.0
Cl	-2.213966	-0.002609	-1.641296
H	1.101411	0.0	0.0
H	-0.099292	1.002054	-1.880958
N	0.149865	-1.015033	-2.308548
O	0.83996	-0.644432	-3.251673
O	-0.09916	-2.183351	-2.02135
N	-0.554161	-1.154662	0.706547
H	-0.604652	-1.94345	0.071731
H	0.124009	-1.40614	1.418577
N	-0.418033	1.253828	0.613767
H	-1.240881	1.058133	1.170683
H	0.323948	1.571041	1.224142
Cl	3.378117	0.0	0.0
