15

C	-0.523038	-0.010072	-1.430901
C	0.0	0.0	0.0
Cl	0.069649	-1.391529	-2.370811
H	1.097355	0.0	0.0
H	-1.611676	-0.024958	-1.456094
N	-0.124384	1.258239	-2.134117
O	1.06848	1.490663	-2.257734
O	-1.052905	1.968516	-2.523914
N	-0.573456	-1.165471	0.689207
H	-0.190917	-2.004252	0.262056
H	-0.186917	-1.146829	1.628804
N	-0.456901	1.239023	0.590872
H	0.222873	1.564666	1.26592
H	-1.353801	1.092341	1.040921
Cl	3.404561	0.0	0.0
