15

C	-0.566004	-0.0441	-1.425291
C	0.0	0.0	0.0
Cl	0.160964	-1.316716	-2.388878
H	1.093086	0.0	0.0
H	-1.640679	-0.213063	-1.377788
N	-0.418431	1.284447	-2.125275
O	-1.37694	2.051829	-1.970695
O	0.60371	1.541675	-2.739694
N	-0.492821	-1.230949	0.632612
H	-0.976577	-0.932496	1.470113
H	0.313245	-1.769523	0.928109
N	-0.452559	1.178141	0.728876
H	-1.195706	1.673974	0.255554
H	0.331243	1.805271	0.84453
Cl	3.391194	0.0	0.0
