15

C	-0.537568	0.04051	-1.422261
C	0.0	0.0	0.0
Cl	-2.301201	0.301576	-1.450506
H	1.093163	0.0	0.0
H	-0.068331	0.844564	-1.981749
N	-0.209678	-1.233166	-2.159455
O	-1.024514	-2.146289	-2.182231
O	0.908728	-1.243367	-2.663234
N	-0.420247	-1.226711	0.646019
H	-1.375425	-1.16938	0.977664
H	0.199341	-1.42014	1.42152
N	-0.356315	1.279992	0.61402
H	0.34531	1.496625	1.311984
H	-1.262909	1.221889	1.063526
Cl	3.378732	0.0	0.0
