17

C	-0.575948	-0.001802	-1.420926
C	0.0	0.0	0.0
Cl	0.179081	1.37254	-2.265569
H	1.091911	0.0	0.0
N	-0.103501	-1.25033	-2.170943
O	-0.762037	-1.56146	-3.159796
O	0.905151	-1.803628	-1.763425
C	-2.079744	0.114308	-1.51712
H	-2.401655	1.01386	-0.99151
H	-2.372575	0.184561	-2.562269
H	-2.546982	-0.764319	-1.073432
N	-0.433591	-1.202064	0.8017
O	-0.138697	-1.185886	1.988975
O	-1.021965	-2.111476	0.218527
C	-0.464507	1.180805	0.717063
N	-0.872728	2.132767	1.271728
Cl	3.150837	0.0	0.0
