17

C	-0.472013	-0.072471	-1.462182
C	0.0	0.0	0.0
Cl	-2.197985	-0.49024	-1.53127
H	1.090532	0.0	0.0
N	-0.307483	1.328956	-2.074416
O	-0.960575	1.576257	-3.079901
O	0.544495	2.044952	-1.563111
C	0.359686	-0.981132	-2.344115
H	0.055839	-0.834873	-3.381942
H	0.208532	-2.016148	-2.054909
H	1.412946	-0.725127	-2.197697
N	-0.379236	-1.269027	0.727175
O	-0.979666	-1.166688	1.791303
O	-0.018128	-2.321503	0.212398
C	-0.567626	1.133055	0.712686
N	-1.02948	2.05405	1.277174
Cl	3.156851	0.0	0.0
