17

C	-0.5131	0.015973	-1.457988
C	0.0	0.0	0.0
Cl	0.215006	1.416709	-2.234322
H	1.107102	0.0	0.0
N	-0.017055	-1.267752	-2.150348
O	0.853223	-1.2061	-3.000323
O	-0.603496	-2.281491	-1.775573
C	-2.020259	0.060087	-1.617486
H	-2.479111	-0.800297	-1.135579
H	-2.266354	0.062577	-2.681444
H	-2.401113	0.975066	-1.16363
N	-0.490558	-1.223584	0.736544
O	0.298214	-2.151598	0.85537
O	-1.649719	-1.197533	1.155072
C	-0.505167	1.174697	0.696006
N	-0.908503	2.133828	1.241574
Cl	3.170366	0.0	0.0
