19

C	-0.316184	0.018144	-1.497923
C	0.0	0.0	0.0
F	-1.723249	0.07276	-1.67083
H	1.098353	0.0	0.0
N	0.236143	1.214955	-2.072289
H	1.157779	1.366215	-1.670718
H	0.357579	1.093574	-3.071218
C	0.1349	-1.247648	-2.204775
H	-0.089822	-1.163952	-3.272039
H	-0.379291	-2.129371	-1.820066
H	1.212185	-1.362989	-2.067184
N	-0.473099	-1.19628	0.693521
H	0.141663	-1.973051	0.49083
H	-1.400966	-1.429313	0.359202
C	-0.538705	1.232242	0.709483
H	-1.633021	1.229068	0.689206
H	-0.192076	2.153131	0.241153
H	-0.207645	1.205501	1.748525
Br	3.638032	0.0	0.0
