19

C	-0.439624	-0.003518	-1.459775
C	0.0	0.0	0.0
F	-1.884998	-0.236451	-1.461805
H	1.095409	0.0	0.0
N	-0.176155	1.23466	-2.096045
H	-0.700035	1.981973	-1.662389
H	-0.421309	1.180873	-3.076253
C	0.1721	-1.140113	-2.238532
H	-0.221366	-1.147087	-3.261536
H	-0.074732	-2.077355	-1.745317
H	1.257124	-1.012482	-2.247252
N	-0.4533	-1.255463	0.604679
H	-1.452041	-1.191925	0.781277
H	0.025938	-1.368371	1.492452
C	-0.480708	1.244545	0.747238
H	-0.225536	1.144352	1.805081
H	-1.567604	1.360587	0.661967
H	0.017548	2.146924	0.384316
Br	3.454362	0.0	0.0
