19

C	-0.474571	-0.003685	-1.452628
C	0.0	0.0	0.0
F	0.014975	-1.212716	-1.995765
H	1.101132	0.0	0.0
N	-1.908657	-0.060424	-1.602205
H	-2.2976	0.874109	-1.611976
H	-2.276883	-0.563733	-0.800658
C	0.135306	1.109809	-2.275682
H	1.219537	1.099622	-2.14101
H	-0.252622	2.087645	-1.976834
H	-0.10758	0.937781	-3.326413
N	-0.561853	-1.204287	0.637872
H	-0.22179	-1.224556	1.593434
H	-0.132221	-1.999922	0.176169
C	-0.473303	1.228449	0.759405
H	-0.040659	2.140635	0.343933
H	-0.13924	1.165195	1.799631
H	-1.565465	1.302821	0.756626
Br	3.73002	0.0	0.0
