19

C	-0.399497	-0.00129	-1.48049
C	0.0	0.0	0.0
F	-0.124698	-1.276621	-1.996055
H	1.096795	0.0	0.0
N	-1.844587	0.129245	-1.620448
H	-2.113858	1.073747	-1.36759
H	-2.075441	0.00047	-2.601352
C	0.427244	0.961562	-2.312494
H	0.205053	0.808002	-3.373371
H	0.196365	1.997807	-2.054429
H	1.490006	0.78487	-2.128871
N	-0.487579	-1.180083	0.709541
H	-1.413331	-1.391045	0.346564
H	0.111845	-1.957543	0.456689
C	-0.485356	1.250654	0.722523
H	-0.182675	2.171976	0.217362
H	-1.575357	1.238764	0.835873
H	-0.048153	1.255043	1.721489
Br	3.73348	0.0	0.0
