19

C	-0.32284	0.026365	-1.498925
C	0.0	0.0	0.0
F	-1.665164	0.39658	-1.682568
H	1.103734	0.0	0.0
N	0.46834	1.006802	-2.219384
H	0.331719	1.912094	-1.782845
H	1.44904	0.776151	-2.067363
C	-0.124752	-1.327666	-2.143872
H	-0.306797	-1.232903	-3.215484
H	-0.822394	-2.043421	-1.708853
H	0.902591	-1.667222	-1.982676
N	-0.547797	-1.206906	0.648229
H	-0.511471	-1.051875	1.65091
H	0.106377	-1.964814	0.476942
C	-0.526078	1.224854	0.726355
H	-0.121811	1.252508	1.742482
H	-0.223289	2.153347	0.239625
H	-1.617159	1.189802	0.773528
Br	3.645901	0.0	0.0
