19

C	-0.381158	0.071935	-1.486462
C	0.0	0.0	0.0
F	0.017756	-1.181083	-2.048148
H	1.096358	0.0	0.0
N	-1.791237	0.230423	-1.684258
H	-1.989721	0.186561	-2.677929
H	-2.269332	-0.549973	-1.24785
C	0.403397	1.120839	-2.242588
H	0.24427	0.989397	-3.317819
H	0.081004	2.123405	-1.959056
H	1.466428	0.99996	-2.021252
N	-0.45773	-1.212089	0.674792
H	-0.073612	-2.013794	0.18967
H	-1.470602	-1.276934	0.645787
C	-0.480791	1.216547	0.773957
H	-1.573872	1.273568	0.78585
H	-0.113008	1.137502	1.798281
H	-0.095456	2.142196	0.343161
Br	3.751499	0.0	0.0
