14

C	0.0	0.0	0.0
C	-0.519941	-0.11961	-1.436124
Cl	1.750284	0.0	0.0
H	0.336359	-0.169403	-2.125748
H	-0.363512	0.908997	0.451105
N	-0.402973	-1.115375	0.918305
O	-0.576239	-0.804478	2.088406
O	-0.381492	-2.255154	0.46954
N	-1.177245	1.189562	-1.829115
O	-0.731717	2.208029	-1.31303
O	-1.989075	1.152086	-2.740774
C	-1.410947	-1.225277	-1.762181
N	-1.947953	-2.153263	-2.244066
F	-2.31149	0.0	0.0
