14

C	0.0	0.0	0.0
C	-0.522445	-0.047655	-1.438972
Cl	1.74894	0.0	0.0
H	0.332105	-0.051223	-2.132929
H	-0.364302	0.884936	0.495934
N	-0.407139	-1.158705	0.86241
O	-0.582357	-0.90521	2.046507
O	-0.389804	-2.27456	0.356972
N	-1.193961	1.274878	-1.757111
O	-2.018077	1.279095	-2.657989
O	-0.744489	2.268229	-1.196777
C	-1.404342	-1.14158	-1.823791
N	-1.944785	-2.028452	-2.37429
F	-2.312981	0.0	0.0
