17
Coordinates from ORCA-job run
  C   0.77339260856330      0.40164812959889      0.03965266840963
  C   -0.71642145354785      0.16850387208007      0.25224427717616
  Br  1.38644637683132      1.47087744005295      1.66453933146231
  H   -1.19182298396691      1.11056092313283      0.52248226688792
  N   1.01075192055782      1.39972542169629     -1.09386784726305
  O   0.15759861691262      2.26029965817227     -1.24399670116249
  O   2.05500243701282      1.28013084508830     -1.71841327483904
  N   1.51098652991649     -0.74626903204307     -0.20004609877897
  H   2.42813227707697     -0.53910917174139     -0.57476002590181
  H   1.56310883699864     -1.35778216647342      0.60196936649860
  C   -1.01013463642600     -0.91940833551262      1.27185573244821
  H   -2.08399270732317     -0.97150775601301      1.44247905964380
  H   -0.67634213925354     -1.89068302219170      0.90073525066202
  H   -0.51582612175173     -0.69686509106038      2.21761969300320
  N   -1.38589220389572     -0.22698730673501     -1.04998048578132
  O   -2.60041062797038     -0.38129143399020     -0.97434887289493
  O   -0.70357672973468     -0.36184297406079     -2.05916433957025
