17
Coordinates from ORCA-job run
  C   0.71977018265989      0.39682490686343     -0.25500349768461
  C   -0.47728249130757     -0.34674043513029      0.35944179261063
  Br  0.45108727135643      0.78336387414844     -2.20167376814982
  H   -0.08502842376008     -0.87747212068017      1.22783614807427
  N   1.92780613807807     -0.55568328401561     -0.26546704312547
  O   1.70462520375749     -1.75697859478556     -0.18469899553009
  O   3.02558242585120     -0.02795169499527     -0.37030347750528
  N   1.10879721925374      1.50056360399512      0.51413158195455
  H   0.42146503584155      2.24138045863578      0.46457504398859
  H   2.01929715824780      1.83610779500933      0.22332778933848
  C   -1.27744598903154     -1.28122920690324     -0.52974644917396
  H   -1.81488820339882     -0.71880064314099     -1.29243082063723
  H   -1.99435922204510     -1.82200574872175      0.09139027844915
  H   -0.61545565668301     -1.99870081582642     -1.00924484745933
  N   -1.44598689535342      0.64424617660063      0.94003408574865
  O   -1.98054316360429      0.32044884502159      1.99526025384314
  O   -1.68844058986234      1.66262688392497      0.29357192525831
