17
Coordinates from ORCA-job run
  C   0.69510304518416      0.57555821379449     -0.22401409744817
  C   -0.48786199538091     -0.27012768666068      0.32333060291417
  Br  0.13726284449664      1.61356326952616     -1.74777384314530
  H   -0.13534399888896     -0.69314554942407      1.26795297756691
  N   1.72109092150492     -0.49443708614627     -0.64399420766265
  O   2.20529910594165     -1.08505074135640      0.31941213255137
  O   1.94738467450694     -0.71316900551223     -1.82127969993893
  N   1.39045985872081      1.42762373035795      0.68117722599382
  H   1.66040189351922      0.89962422496753      1.50404867867433
  H   0.79777459026853      2.19759819443614      0.96358496953156
  C   -0.99932669053629     -1.34817093490349     -0.60552684197711
  H   -0.22988703866102     -2.10884686270960     -0.74668348224412
  H   -1.87246031511680     -1.82941066147660     -0.16391589411747
  H   -1.28518998087842     -0.93899476656172     -1.57295340643547
  N   -1.58317456876853      0.67921969882060      0.71923425283248
  O   -2.61461039238801      0.68990282673189      0.05601081343999
  O   -1.34792195352395      1.39826313611629      1.69138981946461
