17
Coordinates from ORCA-job run
  C   0.64234358888261      0.56528282887664     -0.23042844999324
  C   -0.51767654078192     -0.30484618677091      0.28125578071539
  Br  0.32963730593175      1.36746682980093     -1.95562367398453
  H   -0.14845828856766     -0.79045280739520      1.18851901210841
  N   1.80974756233179     -0.49223034676237     -0.39492996279217
  O   2.34955854309221     -0.77654175593988      0.67155646217208
  O   2.05996676706107     -0.97504982306471     -1.48804885003780
  N   0.95747117577861      1.56968744722470      0.69672544370334
  H   1.11643991195237      1.19521714016749      1.62386427342165
  H   1.73015657824991      2.14987443722132      0.39878041896697
  C   -1.07616180483919     -1.31314275495320     -0.69741677229888
  H   -0.29334733139261     -1.99393079879517     -1.03393459065792
  H   -1.50801884889714     -0.81197276816532     -1.56109374702315
  H   -1.85466649939773     -1.90003148671397     -0.20619630373291
  N   -1.60110174504440      0.61077247721226      0.77575701783840
  O   -1.60539038598014      0.84648637618440      1.98212962565878
  O   -2.39149998837954      1.05141119187298     -0.05191568406444
