17
Coordinates from ORCA-job run
  C   0.85000069142677      0.45234123744893      0.02522443248232
  C   -0.66622560161021      0.27028839388629      0.23448867180970
  Br  1.45227509148079      1.70700712592734      1.39262114392586
  H   -1.14462731016716      1.24282336374364      0.32609158138334
  N   1.01906148550233      1.19316349379972     -1.32967989844569
  O   0.18792025704797      2.06685879863447     -1.55183585015574
  O   1.94044209866649      0.85614398005121     -2.05260942917018
  N   1.70880001584859     -0.66131870974336      0.03821340366600
  H   1.84086209313001     -1.04240205629926      0.96315809462145
  H   1.41260874555765     -1.36036730659676     -0.63026167449323
  C   -1.00455002902564     -0.64057127847492      1.40081832186574
  H   -0.61104695271018     -1.64459140267150      1.23216551532347
  H   -2.08828945823009     -0.70142411737946      1.51013279678932
  H   -0.58593310670261     -0.24120553969757      2.32495921832319
  N   -1.27888262304375     -0.33536496291717     -0.99876275381726
  O   -0.57087814023856     -1.07401138142956     -1.68580360275399
  O   -2.46053725693241     -0.08636963828204     -1.19991997135430
