14
Coordinates from ORCA-job run
  C   1.04553547616308     -0.24918587522448      0.47047559453938
  C   -0.24329439684164     -0.14256707860042      0.09628844884652
  H   1.35574064711127     -1.06865343840532      1.11543373360037
  N   2.06314830268913      0.67808995601734      0.18907272638828
  H   1.94933939942700      1.14220940435586     -0.69949875964121
  H   2.98485214271085      0.27584993532593      0.25570551714689
  C   -1.25146632560622     -1.18561041432417      0.48538202135154
  H   -0.79908351802310     -1.97792686068167      1.08718798187377
  H   -1.70269362025212     -1.65278748363296     -0.39763317916211
  H   -2.07145531790174     -0.74733139454229      1.06582927792442
  C   -0.72859482049935      1.00330024548457     -0.75069157883935
  H   -0.69927787467401      0.76700760184835     -1.82170724424460
  H   -1.76655036938622      1.24700454539918     -0.50746186438947
  H   -0.13719972491693      1.90860085698008     -0.58738267539442
