14
Coordinates from ORCA-job run
  C   1.06124385652268     -0.38036673585784      0.33017362699251
  C   -0.23715430659016     -0.16820516800130      0.04412444618381
  H   1.34142849728863     -1.21790522596495      0.96557150777743
  N   2.15172427843485      0.32907856469720     -0.20069631529133
  H   1.94639453673251      1.29842105550884     -0.39016031405321
  H   2.97834242359585      0.25472360403238      0.37110377732283
  C   -0.68293197346472      0.94073026901140     -0.87026957823286
  H   -0.97490197534218      1.83999977940607     -0.31377998188656
  H   -1.55638632250249      0.62944322658824     -1.45052010452189
  H   0.09497096579361      1.22170353066831     -1.58519752452770
  C   -1.31264973673192     -1.02008486264577      0.65556594621369
  H   -1.90632034429832     -1.52341663782015     -0.11619512511210
  H   -2.00978625520438     -0.41593166084939      1.24773185187516
  H   -0.89497364423395     -1.78718973877305      1.31254778726023
