14
Coordinates from ORCA-job run
  C   1.11529652186239      0.35863088600467      0.17663488200577
  C   -0.21136165379630      0.18813284838893      0.01319624014073
  H   1.50300358802184      1.35256239451963      0.39066567195973
  N   2.09916538310305     -0.63963891555459      0.21140699335261
  H   2.97237141001886     -0.34820483173891     -0.20169725895682
  H   1.79862335939146     -1.52136991753417     -0.17651245217728
  C   -1.15617503077033      1.34551486413284      0.17616219990410
  H   -1.85541700884315      1.17335200714228      1.00283404589607
  H   -0.62129211629838      2.27596016570239      0.38221270838632
  H   -1.76162090763826      1.49458417809553     -0.72512910493446
  C   -0.83740612714183     -1.15316374539813     -0.25700485412865
  H   -1.16837983432024     -1.63942907326882      0.66815026782727
  H   -1.71851894033639     -1.04264036165672     -0.89575722152081
  H   -0.15828864325273     -1.84429049883492     -0.76516211775459
