14
Coordinates from ORCA-job run
  C   1.05426111306407     -0.29247601456274      0.42420330782547
  C   -0.24281416431937     -0.14426073480304      0.09527981990556
  H   1.36951993588753     -1.15527574329836      1.00714903460659
  N   2.07766574024261      0.63715577661653      0.17279474316267
  H   1.94726792187097      1.15690605655149     -0.68199076574393
  H   2.99479943509290      0.21970852006812      0.18951190793938
  C   -1.25545308944578     -1.19721069330271      0.44364159641275
  H   -2.05463811900750     -0.78663094120046      1.07137255396512
  H   -0.79961933494570     -2.03184170297589      0.98232809166541
  H   -1.73484943008404     -1.60164021470598     -0.45538071277954
  C   -0.73354875315608      1.05939963068646     -0.66358553967075
  H   -1.76003225741850      1.30211519570341     -0.37491688370527
  H   -0.73878796080943      0.89058629373978     -1.74769106477114
  H   -0.12377103697168      1.94446457148337     -0.46171608881232
