14
Coordinates from ORCA-job run
  C   1.08691115127179      0.30367174249964      0.32140675626578
  C   -0.22435449239292      0.19259295489822      0.03714511209131
  H   1.50250175233425      1.27299546240644      0.58848945887559
  N   2.00116781242479     -0.75953850547080      0.41358423248999
  H   1.80078155550206     -1.51790926715751     -0.22086226599477
  H   2.95756032938719     -0.46024333057400      0.30675617931939
  C   -0.85375471944181     -1.13613068870640     -0.28510970706306
  H   -0.86076984938664     -1.33949995812433     -1.36325734791296
  H   -0.33774669535615     -1.96234572547300      0.21190812766132
  H   -1.89477438886856     -1.15818627656524      0.04910385858778
  C   -1.11307624657675      1.40252096826594     -0.00462700720408
  H   -0.56151473453110      2.31578381962881      0.23266311533824
  H   -1.93965601312099      1.31232558273827      0.70948117624269
  H   -1.56327546124517      1.53196322163395     -0.99568168869724
