18

C	-0.411482	-0.01315	-1.460076
C	0.0	0.0	0.0
Cl	-2.476429	-0.190241	-1.358752
H	1.095554	0.0	0.0
N	-0.097657	1.160904	-2.069951
H	-0.239637	1.965257	-1.474907
H	-0.367637	1.259264	-3.034174
C	-0.009854	-1.244596	-2.219929
H	-0.415915	-2.133213	-1.745725
H	1.084133	-1.28553	-2.186534
H	-0.3477	-1.187078	-3.258235
N	-0.405331	-1.224444	0.660467
H	-1.394942	-1.201338	0.875071
H	0.128933	-1.328598	1.513523
N	-0.413337	1.27582	0.587413
H	0.181513	1.475066	1.381973
H	-1.376966	1.209442	0.896226
Br	3.579737	0.0	0.0
