18

C	-0.306629	0.041491	-1.495433
C	0.0	0.0	0.0
Cl	-2.106979	0.137528	-1.775708
H	1.105337	0.0	0.0
N	0.268457	1.272296	-2.013756
H	1.261225	1.253443	-1.775446
H	0.188213	1.279783	-3.025233
C	0.194356	-1.215216	-2.185025
H	1.271734	-1.286483	-2.00356
H	-0.292848	-2.09902	-1.776571
H	0.007667	-1.149713	-3.261159
N	-0.467771	-1.231053	0.605769
H	0.152571	-1.464492	1.371905
H	-1.384504	-1.034661	0.993575
N	-0.534824	1.189032	0.671879
H	-0.540484	1.945755	-0.005448
H	0.131054	1.450258	1.391833
Br	3.594925	0.0	0.0
