18

C	-0.458417	0.099497	-1.464525
C	0.0	0.0	0.0
Cl	-0.050756	1.755748	-2.084251
H	1.098664	0.0	0.0
N	0.267559	-0.839895	-2.297059
H	1.260891	-0.636216	-2.18562
H	0.123656	-1.743461	-1.851348
C	-1.95148	-0.097593	-1.628956
H	-2.502146	0.620465	-1.019813
H	-2.216375	0.020349	-2.680452
H	-2.208831	-1.110041	-1.30852
N	-0.39534	-1.324796	0.481388
H	-1.239005	-1.22173	1.03456
H	0.342034	-1.685886	1.074316
N	-0.589271	1.038744	0.849185
H	-0.07932	1.012771	1.72766
H	-0.376364	1.940947	0.436617
Br	3.616452	0.0	0.0
