18

C	-0.436753	-0.017837	-1.45634
C	0.0	0.0	0.0
Cl	-2.433933	-0.204177	-1.35228
H	1.095575	0.0	0.0
N	-0.110581	1.165639	-2.075562
H	-0.437176	1.262127	-3.023478
H	-0.279822	1.963942	-1.478896
C	0.003662	-1.240899	-2.215119
H	-0.376334	-2.1402	-1.738684
H	1.097652	-1.250067	-2.18613
H	-0.338805	-1.195483	-3.252695
N	-0.396621	-1.225133	0.668917
H	0.177249	-1.345772	1.49298
H	-1.373781	-1.189618	0.933118
N	-0.411572	1.272613	0.597167
H	-1.35947	1.19351	0.950416
H	0.214664	1.486453	1.364437
Br	3.585361	0.0	0.0
