18

C	-0.437165	0.008139	-1.472381
C	0.0	0.0	0.0
Cl	-0.08169	1.754677	-2.141106
H	1.093675	0.0	0.0
N	0.33226	-0.938798	-2.170108
H	1.319093	-0.876116	-1.924166
H	0.213448	-0.864332	-3.172107
C	-1.92394	-0.18221	-1.666418
H	-2.172407	-1.182644	-1.310379
H	-2.193939	-0.101022	-2.721295
H	-2.470343	0.571179	-1.10056
N	-0.453785	-1.241524	0.612524
H	-1.305235	-1.049272	1.126956
H	0.252102	-1.552709	1.268294
N	-0.560669	1.135366	0.745338
H	-0.14662	1.99117	0.384012
H	-0.192927	1.028594	1.686103
Br	3.612252	0.0	0.0
