18

C	-0.553861	0.042624	-1.433187
C	0.0	0.0	0.0
Cl	0.143244	-1.36576	-2.30777
H	1.098738	0.0	0.0
N	-2.000496	-0.102143	-1.482251
H	-2.207413	-0.99716	-1.046179
H	-2.362647	0.614033	-0.855914
C	-0.127438	1.299769	-2.168562
H	-0.648008	2.168281	-1.753263
H	-0.400066	1.215529	-3.220556
H	0.952981	1.435824	-2.077694
N	-0.488558	-1.18283	0.686539
H	0.255786	-1.581437	1.242491
H	-1.258464	-0.926103	1.29158
N	-0.499496	1.208657	0.702604
H	0.007989	2.009701	0.337625
H	-0.170085	1.117732	1.660198
Br	3.665407	0.0	0.0
