18

C	-0.270286	0.022951	-1.511754
C	0.0	0.0	0.0
Cl	-2.073174	0.178148	-1.814478
H	1.100045	0.0	0.0
N	0.35586	1.219466	-2.034104
H	1.32852	1.190846	-1.729351
H	0.3516	1.182643	-3.045958
C	0.187297	-1.260146	-2.181552
H	-0.354773	-2.122261	-1.79914
H	0.052954	-1.184501	-3.265126
H	1.250744	-1.381942	-1.954511
N	-0.493281	-1.229398	0.58584
H	-0.043461	-1.316941	1.490822
H	-1.488953	-1.11824	0.761491
N	-0.440808	1.190626	0.718076
H	-1.382044	1.417666	0.417529
H	0.141066	1.966781	0.431935
Br	3.572808	0.0	0.0
