18

C	-0.552135	-0.00884	-1.426503
C	0.0	0.0	0.0
Cl	0.039327	-1.602083	-2.226722
H	1.101472	0.0	0.0
N	-1.971404	0.023099	-1.374933
H	-2.289261	-0.719354	-0.761492
H	-2.372012	-0.091916	-2.297246
C	0.033759	1.103615	-2.265191
H	1.123245	1.039315	-2.245816
H	-0.315105	1.028254	-3.2987
H	-0.281212	2.053139	-1.831699
N	-0.553268	-1.158569	0.731478
H	-0.223439	-1.069534	1.687504
H	-0.106463	-1.991813	0.362317
N	-0.397976	1.249513	0.621512
H	0.236453	1.457391	1.382753
H	-1.346888	1.165357	0.96993
Br	3.649329	0.0	0.0
