17

C	0.0	0.0	0.0
C	-0.497635	-0.021907	-1.453492
F	1.390266	0.0	0.0
H	-1.588102	-0.124841	-1.349009
C	-0.36244	1.31734	0.603918
N	-0.542532	2.369097	1.09595
N	-0.522106	-1.116904	0.696628
H	-0.299669	-1.014666	1.682536
H	-1.559492	-0.948481	0.56828
N	0.035293	-1.264407	-2.093182
O	-0.706951	-2.242228	-2.150521
O	1.181886	-1.233226	-2.547406
C	-0.060898	1.18717	-2.25316
H	1.010844	1.359507	-2.159952
H	-0.298794	1.045938	-3.309599
H	-0.60587	2.060901	-1.895154
F	-2.743875	0.0	0.0
