17

C	0.0	0.0	0.0
C	-0.494952	-0.120901	-1.45118
F	1.388338	0.0	0.0
H	-1.584996	-0.221364	-1.344267
C	-0.360027	1.356751	0.511917
N	-0.530448	2.439022	0.935764
N	-0.522473	-1.065868	0.771182
H	-0.295435	-0.897787	1.746443
H	-1.559878	-0.905036	0.632835
N	0.046804	-1.399932	-2.005394
O	1.191485	-1.392048	-2.465245
O	-0.688384	-2.384999	-1.990906
C	-0.06216	1.035283	-2.327218
H	-0.289417	0.820299	-3.37418
H	1.007704	1.224457	-2.237516
H	-0.618915	1.926415	-2.034158
F	-2.74115	0.0	0.0
