17

C	0.0	0.0	0.0
C	-0.496109	-0.033547	-1.452294
F	1.401324	0.0	0.0
H	-1.591864	-0.061888	-1.34164
C	-0.352666	1.325558	0.592292
N	-0.508598	2.362707	1.122194
N	-0.523167	-1.108506	0.706018
H	-0.301845	-1.000436	1.690743
H	-1.561041	-0.941109	0.573458
N	-0.061656	-1.335489	-2.049187
O	1.101744	-1.427914	-2.449419
O	-0.894696	-2.236304	-2.122848
C	0.036372	1.107253	-2.292582
H	1.125121	1.144796	-2.25907
H	-0.278404	0.985824	-3.331914
H	-0.373141	2.048583	-1.921367
F	-2.746283	0.0	0.0
