14
Coordinates from ORCA-job run
  C   -0.45571597331753     -0.07435025683904      0.36712906068853
  C   -0.00527643179135      0.31245559495435     -1.02910441386106
  Br  -2.62438197728941      0.18923247583352      0.09335268182576
  H   -0.41751946991844     -0.36698996229636     -1.77119141593243
  H   -0.27785739938540      1.34083048026861     -1.25362100208793
  N   -0.19119406242561     -1.40355058883565      0.67108944402051
  H   -0.49987109874442     -1.67819165919389      1.59389585762950
  H   -0.54644590390663     -2.04483180391325     -0.02308675259039
  N   -0.00702284830532      0.80574516514102      1.34318907870125
  H   -0.21646354426706      1.77031923667081      1.13107081305606
  H   -0.32343283847822      0.57409669269847      2.27511037056917
  N   1.48665056745680      0.21628778016259     -1.11362052763102
  O   1.95393674948940     -0.86545322400510     -1.45991251328457
  O   2.12359423088321      1.22540006935391     -0.82230068110337
