14
Coordinates from ORCA-job run
  C   -0.62266079717789     -0.09561360242942      0.24647986148928
  C   -0.00188016848686      0.33968754055085     -1.07754022276761
  Br  -2.60155593059553      0.31149733308077     -0.00027107666092
  H   -0.29780760946362     -0.35255097563340     -1.86390934333852
  H   -0.26132183595957      1.36531301062612     -1.32817169134147
  N   -0.55449348665872     -1.51359537217371      0.40969907948987
  H   0.41962942881320     -1.79534889493729      0.44051244205083
  H   -1.03069063802323     -1.80830073833975      1.25303519125619
  N   -0.05017081418326      0.65498301954653      1.30378711938914
  H   -0.41981457217954      0.37998591557132      2.20470423322633
  H   -0.15852957354280      1.65533265821752      1.18507589275224
  N   1.48785504708344      0.29790719683158     -0.95991231355407
  O   2.08544945357613      1.36958841739095     -0.98983976018140
  O   2.00599149679826     -0.80888550830205     -0.82364941180988
