14
Coordinates from ORCA-job run
  C   -0.48025431751357     -0.12716877932791      0.28187136033978
  C   0.62036024231405     -0.38721413167833     -0.74996032790111
  Br  -2.17850259878790      0.34299485752866     -0.68719579552821
  H   0.27744135170810     -1.06471713704037     -1.53055241083839
  H   1.48196384358853     -0.79674756252014     -0.22300372150402
  N   -0.63310305376346     -1.33374226058085      1.03710704938363
  H   -1.34066034170502     -1.21027811816249      1.75224477891504
  H   -0.91544140205567     -2.11016759967781      0.44844513136607
  N   -0.16237039752817      1.02430054222024      1.06693744706213
  H   0.67148791924904      0.84335991210364      1.61581298744121
  H   -0.92889708448150      1.28025160613092      1.67558215174439
  N   1.07921300852615      0.86585633850528     -1.40302366380176
  O   0.48935162927501      1.22571165521720     -2.41758513246877
  O   2.02041120117441      1.44656067728197     -0.86667985420998
