14
Coordinates from ORCA-job run
  C   -0.61343664423661     -0.05449619628324      0.34665207470261
  C   -0.02583866275832      0.31157627420786     -1.02422495305066
  Br  -2.61746327046685      0.25880614150703      0.02991775442764
  H   -0.27340469468053      1.33069617084856     -1.31414882491753
  H   -0.35272581551055     -0.40055872227478     -1.77980836963094
  N   -0.51812654226398     -1.41401600061832      0.77741322325473
  H   0.46163003687194     -1.67554492030981      0.81513840708207
  H   -1.00861612728120     -2.03541496404504      0.14824264989809
  N   -0.04551251761038      0.75512164899860      1.33527041790121
  H   -0.09243451704401      1.74614341920025      1.14363626027229
  H   -0.41240069755025      0.53174511079741      2.25043763310231
  N   1.46179173881242      0.23646328463289     -0.94114264383352
  O   2.08256702785765      1.29592356487340     -0.93357351262675
  O   1.95497068586066     -0.88744481153480     -0.85181011658156
