14
Coordinates from ORCA-job run
  C   -0.61623632171088     -0.05509488281277      0.34155146652808
  C   -0.01911084882387      0.29135902819091     -1.03030718523776
  Br  -2.62701506123271      0.13023611213190     -0.02861141085623
  H   -0.38711045647063     -0.36901659416446     -1.81288660933987
  H   -0.21165176352278      1.33423400872113     -1.27574072165519
  N   -0.20913673693212     -1.33716479988406      0.72358649385106
  H   -0.58545952842327     -1.58946924940486      1.62733341031121
  H   -0.37938396605861     -2.05442404807490      0.03249702337858
  N   -0.35995860656543      0.83483813965415      1.43025465281760
  H   0.64313809711618      0.89718677663015      1.57044489678366
  H   -0.73256380015277      1.75710903796550      1.24817148557288
  N   1.45958620289082      0.10379023798992     -0.96816481252529
  O   2.09419677369474      0.92479677430276     -0.30665845227283
  O   1.93170601619131     -0.86938054124538     -1.54947023735589
