14
Coordinates from ORCA-job run
  C   -0.56167790171957      0.08634725464501      0.23975945828029
  C   0.63839499592321      0.66588797765781     -0.50966426078115
  Br  -2.19603290373608      0.33236424070787     -0.83865094830260
  H   1.47574543146257      0.75690674082466      0.18472950508340
  H   0.38361899460555      1.63170986357864     -0.93622045981628
  N   -0.38668724417889     -1.31767846917593      0.42956074164315
  H   0.55535387791698     -1.56172002753757      0.70866182251374
  H   -1.07511285885808     -1.70759545556185      1.05818814667567
  N   -0.73733586118631      0.95085917869174      1.39941803972803
  H   -0.08144606770196      0.65934427786182      2.11829895724001
  H   -1.67655397706487      0.86709766337961      1.76864082931054
  N   1.10390160812345     -0.22625748589390     -1.60417186530556
  O   1.92938086308771     -1.08678777651530     -1.29624346805481
  O   0.62845104332628     -0.05047798266263     -2.72130649821442
