14
Coordinates from ORCA-job run
  C   -0.50732445458367     -0.06861055137407      0.37631351254125
  C   0.59401307265398     -0.40482113137027     -0.63269061745645
  Br  -1.99233312125486      0.77298390799421     -0.75702342102752
  H   0.23819608240687     -1.13491080097885     -1.35521147894500
  H   1.45759273014929     -0.78708184787147     -0.08051070525628
  N   -1.11751894997305     -1.22699494332909      0.95887796485680
  H   -1.52470069021706     -1.84024140766769      0.26612654828825
  H   -0.43980957330448     -1.71703264048161      1.53148025783498
  N   -0.03826798795812      0.73828888611324      1.41846621004297
  H   0.44249213854653      1.56387538680876      1.08838299601929
  H   -0.78546288229329      0.96464455549265      2.06141609410807
  N   1.08939145814648      0.75795301518465     -1.42764751234546
  O   1.42069069744121      1.76566622802199     -0.80371145037003
  O   1.16104148024016      0.61728134345756     -2.64326839829087
