14
Coordinates from ORCA-job run
  C   -0.62477611164685     -0.09348846945998      0.24275492785173
  C   0.00648244189182      0.31721736942259     -1.08408552645773
  Br  -2.60286360365532      0.30132040997555     -0.03042787699665
  H   -0.27943987245565     -0.39170005700634     -1.85920392351229
  H   -0.25432966053648      1.33664296731207     -1.35744859373095
  N   -0.55274388282573     -1.50731614983720      0.43549594826739
  H   0.42210864046808     -1.78523910467037      0.47609366266519
  H   -1.03154313649838     -1.78648716520753      1.28262243891065
  N   -0.06514328013834      0.68116046469233      1.28982657952750
  H   -0.44374735406685      0.42427162451879      2.19240580292898
  H   -0.17661648851975      1.67830464035067      1.14878995361185
  N   1.49548058864925      0.28359958274402     -0.95214213318500
  O   2.01683142929727     -0.81819166124815     -0.78955563878591
  O   2.08930029003693      1.35690554841358     -0.99712562109477
