14
Coordinates from ORCA-job run
  C   -0.46759222274942     -0.05395063662243      0.32321064538539
  C   0.44684087793447      0.67715868827801     -0.66319947469633
  Br  -2.10580830470913     -0.68452026498508     -0.65683044804740
  H   -0.10706318282626      1.41094606802169     -1.24688040241324
  H   1.24450556308365      1.15015413631132     -0.09062444646045
  N   0.16831342403472     -1.24232645204302      0.80077976133330
  H   -0.46459894579817     -1.80238345644835      1.35693851193588
  H   0.98479897276260     -0.99395156820898      1.34950348059202
  N   -0.80722843876493      0.88578734983383      1.34814020975225
  H   -1.39855110606372      0.44544209787680      2.04358132161932
  H   -1.30657485151809      1.68511122060632      0.97300195931472
  N   1.10436073060246     -0.25853130812461     -1.61178883084669
  O   0.51033056428387     -0.51927207897900     -2.65392121009455
  O   2.19926691972793     -0.70066379551649     -1.27091107737421
