14
Coordinates from ORCA-job run
  C   -0.61317880853945     -0.04834102032837      0.34844515241451
  C   -0.02873584732880      0.28380171960686     -1.03231995850414
  Br  -2.61914140637940      0.24481258390459      0.02482660324016
  H   -0.28247212680095      1.29320289951656     -1.34963043476149
  H   -0.35173649679049     -0.45064957959145     -1.76794594644563
  N   -0.51018098769500     -1.39533281234128      0.81572680098089
  H   0.47102100752065     -1.65092036395875      0.85750453076616
  H   -0.99915439077321     -2.03586416435482      0.20479326433141
  N   -0.04895738184970      0.79044896049265      1.31421906602742
  H   -0.09898394288641      1.77581169158039      1.09628886671850
  H   -0.41236627971323      0.58973810371424      2.23592942992457
  N   1.45952575088639      0.21959946016585     -0.94866535051578
  O   2.07425535925267      1.28234532734997     -0.96980038732554
  O   1.95910555109692     -0.89865280575644     -0.82937163685103
