14
Coordinates from ORCA-job run
  C   -0.36956919702430      0.03879150777128      0.43338322669606
  C   0.62401504445744      0.59497646619110     -0.58184690909998
  Br  -2.14154592678621     -0.12165994228511     -0.62730227779649
  H   1.60118735206368      0.65750047343680     -0.09577926306736
  H   0.29948184342337      1.57759435970533     -0.90944300721413
  N   0.05048743032280     -1.16983402195111      1.00155096108142
  H   0.36578908018547     -1.83113559435790      0.30365879353030
  H   -0.66273421883749     -1.57669609916922      1.59269606969678
  N   -0.56548896292373      1.04680318796837      1.43984417406224
  H   -1.50209907758210      1.41884579722024      1.45440663819010
  H   -0.30683866550290      0.67963253702670      2.34537057327594
  N   0.80797895588895     -0.23144623155734     -1.81006123835923
  O   0.84060309644659      0.36168421810025     -2.88225044618518
  O   0.95873324586843     -1.44505665809939     -1.66422729481047
