14
Coordinates from ORCA-job run
  C   -0.68762212530167      0.00285263616621      0.21008955364177
  C   0.03116888308434      0.19779382942288     -1.11873896046566
  Br  -2.59430744685376      0.19247393364326     -0.24362673201938
  H   -0.16570449430427      1.19124346733108     -1.51909796188226
  H   -0.26936559014254     -0.56675593213307     -1.83352213037140
  N   -0.52015213720375     -1.36178277241183      0.66158108935928
  H   0.43695020034752     -1.47599844947399      0.97822634513695
  H   -1.14497917749019     -1.55483063915904      1.43526889870015
  N   -0.37963943076060      1.10129020603447      1.10000231147247
  H   0.57859907323881      0.99496093474608      1.41590136665855
  H   -0.99300360089944      1.08249979238946      1.90604412537078
  N   1.52647270460528      0.09089356211718     -1.01486932107157
  O   2.03944315527953     -0.12950714437571      0.08445308102790
  O   2.14113998640072      0.23586657570302     -2.06271166555758
