14
Coordinates from ORCA-job run
  C   -0.32450012985482     -0.21955098833903      0.42693049439451
  C   0.63925641489973     -0.31221438555081     -0.74730001939151
  Br  -2.10636553775413      0.57242130421854     -0.45836483064422
  H   0.29368021518080     -1.04735185458739     -1.46908858772192
  H   1.61907573537272     -0.58782688796274     -0.34930732540038
  N   -0.59362190681085     -1.52871805364490      0.87934204851830
  H   -1.19064602835376     -2.03215906801628      0.23734585989384
  H   -1.01195898034222     -1.53123523355820      1.80054099352131
  N   0.12803378140671      0.60364446250519      1.45695226718516
  H   -0.57413476455499      0.75015130669475      2.17021612315536
  H   0.46426874110670      1.48985459920545      1.10419453631960
  N   0.82356042911033      0.96227966813236     -1.49620053577603
  O   0.72797339682187      0.91634461728744     -2.71665651203256
  O   1.10537863377190      1.96336051361562     -0.83760451202147
