14
Coordinates from ORCA-job run
  C   -0.30931600246871      0.01158470677175      0.48962100158283
  C   0.67396311746698      0.58030957139526     -0.52327110757096
  Br  -2.14263746689915     -0.10051403839587     -0.61141585051652
  H   0.40413495389770      1.59898743770445     -0.78844490551880
  H   1.66908620222211      0.54567333252830     -0.07278636059585
  N   0.05532012494526     -1.24197069343064      0.97853459146170
  H   -0.66621944045948     -1.65627015999911      1.55385006331932
  H   0.31641801107809     -1.87108163148423      0.23093158889052
  N   -0.46742740124348      0.95521742349393      1.52672966640164
  H   -1.00927178515574      1.75445915758807      1.22728230379918
  H   -0.89576034634603      0.54630459830125      2.34706012823675
  N   0.75448449041686     -0.18244418040456     -1.80032356743115
  O   0.93817287458231     -1.39679287372064     -1.71696072190813
  O   0.67905266796328      0.45653734965204     -2.84280683015053
