14
Coordinates from ORCA-job run
  C   -0.46495761996419     -0.04746074603911      0.43075376457373
  C   0.61591416749876      0.56975295422517     -0.46116713393214
  Br  -2.13679613743114     -0.08326453480342     -0.75096356126394
  H   1.56345081499734      0.54456545390577      0.08508923046081
  H   0.34882878460156      1.58790415332579     -0.73267428228081
  N   -0.08002783488727     -1.29307873647438      0.93889688992717
  H   -0.81515763636371     -1.69098205537037      1.50829809798180
  H   0.22932046648401     -1.93033696902986      0.21782214610775
  N   -0.82956801180452      0.78454665043985      1.53951833620768
  H   -0.04267113525011      0.87123123526960      2.17250912496345
  H   -1.16686231193715      1.69181038136775      1.24790604712920
  N   0.85531610650931     -0.15328343551876     -1.74511956612790
  O   0.87984639986473      0.51747911237964     -2.77082391004419
  O   1.04236394768237     -1.36788346367769     -1.68004518370262
