14
Coordinates from ORCA-job run
  C   -0.57885609565976     -0.17611416342875      0.26540457435381
  C   0.57847306433213     -0.31671185217854     -0.73778245767576
  Br  -2.11671484898585      0.53956633860600     -0.73765286153105
  H   0.30554728771043     -1.00615217341378     -1.53197105131807
  H   1.46970473216515     -0.66188893952910     -0.20408680960250
  N   -0.90596710675313     -1.51854773670055      0.66640445209948
  H   -0.10251287678022     -1.94487885066335      1.11931892126837
  H   -1.66421755541270     -1.47607131283907      1.33899793586430
  N   -0.38674768711081      0.70169516965362      1.38943491008199
  H   -0.13279139300840      1.63510462532216      1.08792020048291
  H   0.36881292622743      0.34071260230193      1.96383985094685
  N   0.95636361894508      0.96989569941936     -1.38090794163538
  O   0.85370075425675      1.04440324908775     -2.60107517802401
  O   1.35520518007391      1.86798734436233     -0.63884454531094
