14
Coordinates from ORCA-job run
  C   -0.47316078213653     -0.17172550811085      0.38262880704096
  C   0.61090745033670     -0.30926218032700     -0.69767145231847
  Br  -2.11025913577626      0.53184212598767     -0.58771399303620
  H   0.34635024136101     -1.06519520371570     -1.43490550217348
  H   1.54925065250692     -0.56498725877323     -0.19986490348429
  N   -0.66613829872776     -1.45777375746051      0.93933265765764
  H   -1.33954105347974     -1.39968944392903      1.69404104480777
  H   -0.97717205358480     -2.13556829088343      0.25604690596384
  N   -0.23753619676110      0.73273480650073      1.46278341458019
  H   -0.02882779017184      1.66025916101560      1.11789073347605
  H   0.55267275285741      0.39114989760220      2.00038241784231
  N   0.85511098169052      0.94662871440561     -1.45608377491575
  O   1.16607113714270      1.94043469984720     -0.80043496122664
  O   0.75127209474277      0.90015223784076     -2.67743139421393
