14
Coordinates from ORCA-job run
  C   -0.63470898169902     -0.00162846720932      0.31095943686567
  C   0.05584494528799      0.28935573927156     -1.02963885231001
  Br  -2.58891533653491      0.44862226315173     -0.12934423860365
  H   -0.27906036935040     -0.41420884758801     -1.78969496261862
  H   -0.09922569911243      1.31677280547993     -1.35272403664519
  N   -0.66497353487652     -1.35451274289354      0.77150948853730
  H   -1.16328679509817     -1.95252006350513      0.12598761629520
  H   0.28906219794595     -1.68574493543452      0.87103153320866
  N   -0.06640521052527      0.78658408539639      1.31620970554128
  H   -0.50013022798868      0.61090756077060      2.21231223872681
  H   -0.02778633474541      1.77374803554381      1.10414498837801
  N   1.52656264948826      0.10829967206582     -0.85795259269110
  O   1.92943849213677     -1.04627244867251     -0.71965249220329
  O   2.22258420507184      1.11959734362320     -0.83214783248108
