14
Coordinates from ORCA-job run
  C   -0.64117786334746     -0.07807304657189      0.28643942285266
  C   0.06030110264017      0.30557533602594     -1.02467793061821
  Br  -2.61766045073365      0.05559706039263     -0.25283833944549
  H   -0.21937516416579     -0.35374898121160     -1.84386772849923
  H   -0.14178339121827      1.34585651205374     -1.27340036180239
  N   -0.23039744924393     -1.35331715107661      0.68624620977778
  H   -0.31801291153279     -2.06529872957574     -0.02534137596755
  H   -0.67381690887793     -1.62958105768439      1.55170049039769
  N   -0.50563336211235      0.80270219956383      1.40405913114261
  H   0.47966251460147      0.89320035718375      1.62941582388215
  H   -0.89030871446730      1.71591995206149      1.20247619042546
  N   1.53339153577857      0.16036727701130     -0.83823292260365
  O   2.08301739523822     -0.78994922880893     -1.38834410222936
  O   2.08379366744105      0.98974950063649     -0.11463450731247
