14
Coordinates from ORCA-job run
  C   -0.33927778106071     -0.24827110160130      0.39864381748851
  C   0.80790713467295     -0.22479307617861     -0.60166014720929
  Br  -2.07137991375530      0.03716216548086     -0.82337221433979
  H   0.75342492195854     -1.08228203454961     -1.26686181621742
  H   1.74095207780619     -0.23113155059193     -0.03274694645024
  N   -0.39960733114731     -1.53857109324284      0.96705617231894
  H   -0.76092154687663     -2.21978667280984      0.31325922346611
  H   -0.95686643761535     -1.55365449877478      1.81134087956983
  N   -0.24851042778598      0.74504664159369      1.37359464911090
  H   -0.04898787476425      1.64831653487638      0.96455391217919
  H   -1.07783553793113      0.79467848923991      1.95074951881842
  N   0.84281576691670      0.98476046597279     -1.47000157412135
  O   0.79802159528912      2.07899205894154     -0.90776817687509
  O   0.95926535429316      0.80853367164375     -2.67678729773873
