14
Coordinates from ORCA-job run
  C   -0.72576880259418      0.01592612092328      0.27761113771866
  C   0.03552431197364      0.53054288889303     -0.95479138964072
  Br  -2.65130242951151      0.37192567864180     -0.24798263143204
  H   -0.31748447694191      0.03902527070780     -1.85679265089723
  H   -0.03604374702472      1.61466774679970     -1.03171057357524
  N   -0.67417350069601     -1.39820437267013      0.51872322486326
  H   0.27254744193317     -1.67894195045603      0.75041923381552
  H   -1.01257085821507     -1.93926470375896     -0.26680137256588
  N   -0.37537395755133      0.75342633456830      1.41782808699923
  H   0.53727706749224      1.18234616531676      1.38702331285769
  H   -0.56453131472005      0.25430474115849      2.27387271881338
  N   1.47750416932822      0.18149883697068     -0.80849478172568
  O   2.16514163557806      0.91802621548382     -0.09784150400555
  O   1.87025446094944     -0.84527897257855     -1.36006281122540
