14
Coordinates from ORCA-job run
  C   -0.33636896422683     -0.23990325042099      0.40587316107849
  C   0.77259903276827     -0.25083394426291     -0.63666183635780
  Br  -2.09587228546085      0.15739022210068     -0.74379777054904
  H   1.72468881836053     -0.31655290274933     -0.10422997675396
  H   0.65034847419880     -1.08929249977552     -1.31700685771484
  N   -0.44027241117533     -1.53785733589044      0.95005017000951
  H   -0.86121923330795     -2.18573624913654      0.29809960356011
  H   -0.96301657621605     -1.54358658507086      1.81621724377027
  N   -0.15984069608813      0.72590615657412      1.39654615062963
  H   0.06924367154928      1.62715222809952      0.99864317840228
  H   -0.96359643700631      0.80318779238349      2.00595181801870
  N   0.83652258953766      0.97459248671668     -1.48085451571644
  O   0.86718256801884      2.05704728595389     -0.89537952395398
  O   0.89960144904808      0.81948659547820     -2.69445084442294
