14
Coordinates from ORCA-job run
  C   -0.49524731497800     -0.12424843832290      0.37803339678448
  C   0.61979563905833     -0.33048480501121     -0.65103121524107
  Br  -2.05996260463561      0.62144504747849     -0.71283933561127
  H   1.51880745912751     -0.65395181797603     -0.11815875871762
  H   0.32015267491976     -1.06529524543307     -1.39393585689998
  N   -0.99581210478425     -1.35025466220243      0.92665314138863
  H   -0.26971380556893     -1.79946083015261      1.47294314642297
  H   -1.35773803855339     -1.97227407995459      0.21668840452410
  N   -0.08550009695980      0.68543148751964      1.44294659830660
  H   -0.84199194737701      0.82444070612942      2.09969463778555
  H   0.31793785209162      1.56008178741130      1.13650233225307
  N   1.00371098979928      0.89595544069549     -1.41061793710944
  O   1.25335470202180      1.90774307587330     -0.75604227221452
  O   1.07320659583869      0.80187233394520     -2.63083628167151
