14
Coordinates from ORCA-job run
  C   -0.55757770950394     -0.21207086276311      0.28478440362929
  C   0.57087540890976     -0.28387152624373     -0.75771894804020
  Br  -2.17197260384706      0.40021919972074     -0.66432117478163
  H   1.49900670264143     -0.57355580172164     -0.25495261464567
  H   0.31358365354882     -0.98892606748740     -1.54332930471541
  N   -0.78432668842612     -1.57081770474732      0.70035467849668
  H   0.05959868080943     -1.94234907305810      1.12715156131715
  H   -1.52029342993347     -1.57303591918425      1.39854421534386
  N   -0.38204273707588      0.68132713788589      1.39946640747074
  H   -0.20491999851080      1.62885544970211      1.08716945518659
  H   0.41945665909034      0.37579837279236      1.94302920702852
  N   0.84733612276796      1.02301247419406     -1.41130994518533
  O   1.22510753029656      1.94173117979909     -0.68326551451472
  O   0.68716840923297      1.09468314111129     -2.62560242658987
