14
Coordinates from ORCA-job run
  C   -0.53908802235427      0.09542872047839      0.28347018245677
  C   0.60039760139879      0.65758276584002     -0.56739649657859
  Br  -2.25508267556339      0.35179772470793     -0.65222389801508
  H   0.31997957101451      1.62320502756462     -0.97826708350750
  H   1.49371078573598      0.74480281173257      0.05384581429543
  N   -0.36425413032603     -1.31187625000970      0.46259764032687
  H   -1.01606964580151     -1.69181948843288      1.13539870797909
  H   0.59080508715344     -1.55671533044283      0.69442133288782
  N   -0.60529243233000      0.96564242674082      1.44984726611050
  H   -1.50736654346909      0.88661871948289      1.90343021158103
  H   0.11201111977741      0.67512355620953      2.10797497341335
  N   0.96479710540447     -0.24779786995357     -1.68834542836715
  O   1.81356099506688     -1.10641087042605     -1.44542243505124
  O   0.39089118429282     -0.08458194349173     -2.76033078753130
