14
Coordinates from ORCA-job run
  C   -0.31192029848736     -0.26011004848021      0.41332484948201
  C   0.32262607133053     -0.16094551934110     -0.96664339280997
  Br  -1.72651684978387      1.34445288713350      0.42768311272550
  H   -0.40656898186764     -0.38441834853452     -1.74069241718131
  H   1.15425443108951     -0.86925171077892     -0.99819322440536
  N   -1.01761118484421     -1.47986867382031      0.48538567308494
  H   -1.24216316333496     -1.73126054658075      1.43927148269008
  H   -1.86508789912063     -1.45641141629590     -0.06525999382679
  N   0.60305251034883     -0.12667242647827      1.45761867880962
  H   0.15053051448403     -0.06978032597730      2.36059170827618
  H   1.21140017515855      0.66909962458016      1.31724761576831
  N   0.88767923636922      1.17875171187378     -1.29052805226460
  O   0.57932739481096      1.67423888127259     -2.36773471983032
  O   1.66199804384705      1.67317591142723     -0.47107132051829
