14
Coordinates from ORCA-job run
  C   -0.42078414204389     -0.14699882463931      0.45288432151529
  C   0.31596184076518     -0.16213146229349     -0.88924928795231
  Br  -1.79670787820864      1.35779698547373      0.25856858440874
  H   -0.36928485546205     -0.40638904607983     -1.69695483003923
  H   1.12536260320588     -0.89534015201287     -0.82501438832604
  N   -1.20857349089912     -1.32244955487414      0.68178454807274
  H   -1.90400765560790     -1.46787819986376     -0.03736273771916
  H   -0.59938662372577     -2.12759339071887      0.77167845747403
  N   0.45617340206717     -0.00225768477767      1.53335569830852
  H   1.07713244742507      0.78855916160095      1.42988360168575
  H   -0.05257935621616      0.02474677674936      2.40707020919994
  N   0.95583701229437      1.13336650543528     -1.26554314791324
  O   0.74259153294350      1.55687162578592     -2.39595936995764
  O   1.67726516346237      1.66969726021471     -0.42514165875738
