14
Coordinates from ORCA-job run
  C   -0.30381383303534     -0.28571392528625      0.40204633844378
  C   0.28992768699809     -0.09219885828602     -0.98605024093914
  Br  -1.68987005538538      1.33235975084554      0.58128981517593
  H   -0.46628968010686     -0.24580619895031     -1.75114930677251
  H   1.10791650149883     -0.80832650259954     -1.09698413951841
  N   -1.02688191650066     -1.49798952278802      0.40493666276430
  H   -1.89200573537441     -1.41981295421306     -0.11226767636304
  H   -1.22381492412190     -1.81736087390607      1.34453343357552
  N   0.64499085513141     -0.24502049243212      1.42379812865408
  H   1.26313277245704      0.54932095662225      1.32386619169963
  H   0.22112936131764     -0.24844531061936      2.34235318263308
  N   0.86712816159255      1.25970122547052     -1.22610936048666
  O   1.67648016023686      1.67815399439621     -0.39821745226108
  O   0.53197064529214      1.84113871174623     -2.25104557660549
