14
Coordinates from ORCA-job run
  C   -0.32481939582247      0.05182989071186      0.53992948546739
  C   0.13375268135750      0.38600565078269     -0.88799923220653
  Br  0.98523732617849      1.00422371762304      1.76069609567614
  H   -0.46665262880888     -0.20822242088212     -1.58087394956297
  H   0.03137222367535      1.44838475164628     -1.10205219897780
  N   -1.65144273371773      0.52629544037059      0.66848571373903
  H   -1.72211400951532      1.52642733813945      0.53526489999464
  H   -2.00994641399126      0.27714052118216      1.58271989572504
  N   -0.31757454764157     -1.31754207814268      0.94684150520766
  H   0.59743688282408     -1.72779856402466      0.81552860651418
  H   -0.99349687358062     -1.82294317329569      0.38307964978140
  N   1.55708110010952      0.04275915541425     -1.14929188791676
  O   2.29141676585089      0.93916667658987     -1.55171273029045
  O   1.89074962308203     -1.12672690611503     -0.96161585315098
