14
Coordinates from ORCA-job run
  C   -0.42109112307325     -0.00953186169105      0.47156514219797
  C   0.36788210142797      0.54005644428778     -0.72694063690914
  Br  -1.97193043851642     -1.03902430037054     -0.33378462140310
  H   -0.21670585416290      1.26395747805143     -1.29189604913596
  H   1.28420090039948      0.99605962799501     -0.34472248090670
  N   0.23944103008883     -0.91910926390105      1.35314258453482
  H   0.61121225361826     -1.70945608733034      0.84330275875495
  H   1.00188539006005     -0.42755710546751      1.80831620954548
  N   -0.83197406589610      1.10469974248863      1.24048700797085
  H   -1.43159697963035      1.73460476606903      0.72407831914595
  H   -1.31204362185473      0.78034699254142      2.07160397264014
  N   0.78193719440066     -0.50954674894114     -1.69588172656693
  O   0.44080843511920     -0.36718370956755     -2.86554010769318
  O   1.45797477801930     -1.43831597416413     -1.25473037217515
