14
Coordinates from ORCA-job run
  C   -0.54839365920715      0.00157381032080      0.36939308725504
  C   0.35209347651556      0.52175128865254     -0.76374710307789
  Br  -2.03546795437016     -0.96864781584316     -0.48490878769344
  H   1.22049103163429      1.02266131228308     -0.32432557004471
  H   -0.20532080589927      1.19586506605067     -1.40826746267410
  N   0.03273190096111     -0.90916101624740      1.32056107962824
  H   0.78088901515813     -0.43393694235336      1.81614165849352
  H   0.42890018703949     -1.71947881764244      0.85896874122478
  N   -1.09501260947650      1.17527396419765      0.99641160715143
  H   -1.68875256501875      0.88036459402104      1.76429647351369
  H   -0.34194662896446      1.74193133468884      1.37603423398498
  N   0.89382436882409     -0.56261346834880     -1.62513796370087
  O   1.61678364881008     -1.39823254936260     -1.08139684413505
  O   0.59118059399354     -0.54635076041686     -2.81402314992561
