14
Coordinates from ORCA-job run
  C   -0.43181269997331      0.00374563141803      0.46167654049786
  C   0.40859283335032      0.53159590919494     -0.71139215798847
  Br  -2.00644458343586     -0.94838641135046     -0.39247033117731
  H   -0.12996073943330      1.28723610642833     -1.28046364185272
  H   1.33516186648664      0.94121478952840     -0.30228674035096
  N   0.16685663686944     -0.94380294812834      1.34720691617562
  H   0.93759091611749     -0.49080689033036      1.82772914121190
  H   0.51757553781689     -1.74320531471534      0.83649250138915
  N   -0.81241217467722      1.12612997993771      1.23399815648908
  H   -1.37005132966166      1.78817843953725      0.71077990770653
  H   -1.32735707513644      0.81448238717548      2.04893484257206
  N   0.79854624082937     -0.52441471422009     -1.68365307933310
  O   0.49365307536916     -0.35241431621861     -2.85938320307223
  O   1.42006149547847     -1.48855264825694     -1.23816885226743
