14
Coordinates from ORCA-job run
  C   -0.63787293867435     -0.08463709822047      0.29206715780655
  C   0.04871792865025      0.33051362061978     -1.01749353654449
  Br  -2.62056414084678      0.06243647799191     -0.22154984776944
  H   -0.15567161837338      1.37668460691898     -1.23799150567376
  H   -0.24114312341055     -0.30857905878719     -1.84905467666406
  N   -0.22321353856246     -1.36913231715861      0.65633255020325
  H   -0.31887718817242     -2.06351657306776     -0.07144727979294
  H   -0.65737182143999     -1.66651180902176      1.51948553656725
  N   -0.48946479274254      0.76896663115353      1.42884230292958
  H   0.49823937185132      0.85321133420550      1.64584946116565
  H   -0.87556883798932      1.68701059572598      1.25375110010279
  N   1.52362520055627      0.18011464732501     -0.85177035443360
  O   2.08327838706728      0.99156882322638     -0.11507485592871
  O   2.06588711208665     -0.75712988091129     -1.43094605196806
