14
Coordinates from ORCA-job run
  C   -0.63863550152228     -0.09083575953214      0.28958582458756
  C   0.04921926264581      0.33648912039000     -1.01535058469803
  Br  -2.62004218221599      0.04510808659360     -0.22826335556744
  H   -0.16169314533040      1.38247188100667     -1.23057576315948
  H   -0.23331597150749     -0.29989344295760     -1.85150824802529
  N   -0.21580524090223     -1.37464403405481      0.64754301954158
  H   -0.64936815384177     -1.67945526285875      1.50839279851322
  H   -0.30568423760864     -2.06527986810333     -0.08451556104685
  N   -0.49891517376143      0.75738186176988      1.43175178833236
  H   -0.89218290023578      1.67319731750485      1.26088672426700
  H   0.48778781102811      0.84875171035499      1.65052928999612
  N   1.52474644342564      0.19524718239749     -0.84607439696061
  O   2.07550196744149     -0.73337681088686     -1.43107739273953
  O   2.07638702238495      1.00483801837602     -0.10132414304061
