15

C	0.0	0.0	0.0
C	-0.330646	0.00182	-1.551413
Cl	1.842096	0.0	0.0
H	0.508538	0.506651	-2.04093
N	-0.543827	1.095165	0.718631
H	-1.554556	0.861472	0.796433
H	-0.500888	1.91012	0.114023
C	-0.375776	-1.257375	0.658315
N	-0.573099	-2.274293	1.212951
N	-1.531798	0.769372	-1.799251
H	-1.825723	0.623525	-2.760488
H	-2.302434	0.423586	-1.146431
C	-0.321294	-1.378892	-2.078826
N	-0.347421	-2.455755	-2.55115
H	-3.124407	0.0	0.0
