15

C	0.0	0.0	0.0
C	-0.512962	-0.014288	-1.447683
Cl	1.796291	0.0	0.0
H	-1.618943	-0.079468	-1.234288
N	-0.531575	1.070195	0.781132
H	-1.566771	0.887372	0.717225
H	-0.341948	1.942157	0.29554
C	-0.363598	-1.288843	0.623283
N	-0.486827	-2.357409	1.094704
N	-0.053309	-1.163722	-2.199386
H	-0.674546	-1.336065	-2.978209
H	0.884714	-1.016531	-2.55105
C	-0.226773	1.276199	-2.085181
N	0.038764	2.278532	-2.642443
H	-2.872493	0.0	0.0
