15

C	0.0	0.0	0.0
C	-0.528922	-0.045825	-1.429388
Cl	1.792006	0.0	0.0
H	-1.63771	-0.08198	-1.22062
N	-0.555574	1.154218	0.621775
H	-0.323423	1.150319	1.610705
H	-1.594049	0.966041	0.535826
C	-0.342609	-1.279694	0.67737
N	-0.502002	-2.246505	1.327832
N	-0.102139	-1.245466	-2.124248
H	0.829853	-1.123538	-2.501998
H	-0.739268	-1.433504	-2.888029
C	-0.202204	1.197277	-2.134189
N	0.065852	2.119232	-2.815038
H	-2.902676	0.0	0.0
