15

C	0.0	0.0	0.0
C	-0.571818	-0.030197	-1.430505
Cl	1.78628	0.0	0.0
H	-1.673738	0.062447	-1.177953
N	-0.512703	1.091425	0.780071
H	-0.305707	1.954396	0.283526
H	-1.544613	0.934652	0.739405
C	-0.381625	-1.271406	0.650807
N	-0.572732	-2.311834	1.16144
N	-0.256859	-1.275971	-2.129365
H	-1.048654	-1.896588	-1.991787
H	-0.169205	-1.107223	-3.123568
C	-0.138744	1.144726	-2.166122
N	0.172446	2.105585	-2.769765
H	-2.922497	0.0	0.0
