15

C	0.0	0.0	0.0
C	-0.313501	0.039928	-1.543351
Cl	1.786878	0.0	0.0
H	0.40813	0.772614	-1.928012
N	-0.546148	1.159237	0.631156
H	-0.342721	1.111007	1.62653
H	-1.572221	1.05869	0.525515
C	-0.388697	-1.283619	0.619592
N	-0.613879	-2.291128	1.182333
N	-1.653921	0.455596	-1.876378
H	-2.361674	0.181146	-1.11702
H	-1.940035	0.024604	-2.749003
C	0.075428	-1.266262	-2.121317
N	0.335007	-2.282698	-2.651042
H	-3.199176	0.0	0.0
