14
Coordinates from ORCA-job run
  C   0.55769252136058     -0.18180850665382     -0.31572374287112
  C   -0.49675474917020      0.30382343304799      0.39276581736081
  N   1.91225412843600     -0.12351422378713      0.17101817423670
  O   2.76317499384948     -0.73275673099192     -0.46905198011912
  O   2.11673959962075      0.52331734390886      1.20409580331560
  N   0.44299882299701     -0.88305047660620     -1.59281981881529
  O   0.81882143016413     -0.25923806897711     -2.57867762667894
  O   0.02625091124228     -2.03651238114457     -1.55303678451109
  N   -0.50077891436660      0.99350831509192      1.54210901249100
  H   0.36947032643852      1.05612201893486      2.04794320211909
  H   -1.37973780860621      1.03445406741103      2.03561557929222
  N   -1.86854797344438      0.13612898654906     -0.16443133715326
  O   -1.98085657472816      0.02191352698386     -1.37864115862558
  O   -2.78072671379319      0.14861269623316      0.65783485995898
