14
Coordinates from ORCA-job run
  C   0.56775895517756     -0.16857455805250     -0.30462064842402
  C   -0.63018536948051      0.02359937930025      0.30981876100668
  N   1.33961440042001     -1.37427239721142     -0.14093798094891
  O   2.47317492234289     -1.38013872031441     -0.60975081263763
  O   0.81562056285930     -2.30321054179364      0.48330147502003
  N   1.24514073315111      0.83119692602776     -1.12759990437107
  O   1.24184231206639      0.61912264077440     -2.33471390602846
  O   1.78594853428116      1.75872113710299     -0.53345968660467
  N   -1.35417473856601     -0.83331866968274      1.04375625006017
  H   -2.07080046794966     -0.42657370036137      1.62596454560225
  H   -0.91183921894150     -1.69812848347438      1.31513306670403
  N   -1.32190541679417      1.33142099316136      0.13103960261096
  O   -1.07018806217339      1.97644067284071     -0.87916758845441
  O   -2.10900714639318      1.64171532168297      1.02123682646503
