14
Coordinates from ORCA-job run
  C   0.56595773742403     -0.27227993356792     -0.22174986752852
  C   -0.53279012946481      0.25906309973162      0.37779095744720
  N   1.89160809177774     -0.13646429546146      0.32659274000517
  O   2.82704145609945     -0.51209815759609     -0.37237920411210
  O   1.99117341974678      0.36080968965257      1.45353409229091
  N   0.55290625594652     -0.95485558934432     -1.51383793401479
  O   0.43273219293265     -0.24723341785959     -2.50918808017673
  O   0.70975739438356     -2.16986703622080     -1.47662950007652
  N   -0.64068603867627      0.86553025185973      1.56866033327340
  H   -1.47141202750069      1.42010296614245      1.71161910230646
  H   0.21615079615259      1.10606013847512      2.04330485398413
  N   -1.85133360105114      0.12428088652018     -0.30358622816523
  O   -2.68947138277043      0.97258448270860     -0.00997098977606
  O   -2.00163416499998     -0.81563308504008     -1.07416027545732
