14
Coordinates from ORCA-job run
  C   0.55978796485265     -0.17366657530682     -0.31697079329023
  C   -0.62368518784163      0.02854478626628      0.32159730893794
  N   1.32093090138170     -1.38852151417863     -0.17379940005986
  O   0.79137488311747     -2.32068579743394      0.44094242648110
  O   2.44632540345764     -1.40427730766728     -0.66161451117450
  N   1.23519600389937      0.82706367398245     -1.14020507959278
  O   1.78576043669387      1.74894287237454     -0.54617326653838
  O   1.22185310413974      0.62054169616682     -2.34828774514326
  N   -1.34561145848363     -0.82463764714413      1.06173843292663
  H   -0.91041339675594     -1.69790394460654      1.31712776517558
  H   -2.04627476911185     -0.41338177670771      1.65996513690349
  N   -1.30269611694574      1.34576924951168      0.16393125348134
  O   -1.06739524654719      1.99103641172667     -0.84998998882767
  O   -2.06615252185645      1.66117587301660      1.07273846072060
