14
Coordinates from ORCA-job run
  C   0.55570606143134     -0.18539680276977     -0.31850963549830
  C   -0.62050280685810      0.03787275857079      0.32557264261998
  N   1.31323111182730     -1.39984886022392     -0.15325843053646
  O   0.78412042106401     -2.31466095794888      0.48730939211842
  O   2.43525351038160     -1.43119208694770     -0.64785072631348
  N   1.22714057433929      0.79348416706308     -1.17067061488907
  O   1.77939632457334      1.73156494837058     -0.60420591528573
  O   1.20792028578611      0.55487244572460     -2.37283146044581
  N   -1.34275067772702     -0.79375037375073      1.09069104825579
  H   -0.90797385354122     -1.66172167505746      1.36454813324102
  H   -2.02784436644849     -0.36032428892081      1.69155380484365
  N   -1.29225547873872      1.35530495471182      0.14326831609801
  O   -1.07799807986636      1.96535522107402     -0.89680798961496
  O   -2.03044302622310      1.70544055010437      1.06019143540696
