14
Coordinates from ORCA-job run
  C   0.55592316382952     -0.22929462116630     -0.28759916650795
  C   -0.62593454833904      0.08637997281178      0.30634640147453
  N   1.27392803072285      0.64372396747407     -1.21392296560713
  O   1.85155364651855      1.60989331953827     -0.72524800489605
  O   1.26427164448506      0.29667700854806     -2.38937680133020
  N   1.27603072682048     -1.44031975957168      0.01269327686423
  O   0.71093696876618     -2.27322429209857      0.72990589592002
  O   2.40476655450193     -1.55063678922031     -0.45485692740929
  N   -1.38256249351048     -0.64755085276823      1.13454330618695
  H   -0.97843177606837     -1.49608471485500      1.50047387862977
  H   -2.07583286880005     -0.14451757958657      1.66774515871903
  N   -1.25939915111492      1.39613453028952     -0.01760416916732
  O   -2.02256761609028      1.84191879050091      0.83513029655797
  O   -0.99068228172144      1.90790102010403     -1.09723017943457
