14
Coordinates from ORCA-job run
  C   0.53183690869698     -0.24070307729377     -0.31946339243156
  C   -0.60441384032696      0.10398561961831      0.34402019729213
  N   1.22721683125005     -1.47918292261982     -0.07593424345309
  O   2.31820637065780     -1.62312247773948     -0.61807718054895
  O   0.68278254438035     -2.29918710994299      0.67125856999305
  N   1.22375873390237      0.61605879577714     -1.28014551664575
  O   1.11710900467770      0.29193213332833     -2.45729005622867
  O   1.87924596786653      1.54429304616195     -0.81722562814442
  N   -1.33460683924050     -0.61723286765014      1.20622769837207
  H   -0.93623609204448     -1.48135661538249      1.54039417073002
  H   -1.98510846361746     -0.10143409847685      1.77954833184531
  N   -1.21347166876574      1.43701806318914      0.07158515274187
  O   -0.96923196872838      1.96668626632308     -1.00525259086385
  O   -1.93408748870830      1.88324524470755      0.96035448734184
