14
Coordinates from ORCA-job run
  C   0.54736626766651     -0.19887766172069     -0.32218965378642
  C   -0.48538900831653      0.32517673101617      0.39095328535226
  N   1.91673474974450     -0.11362017085065      0.11795143118898
  O   2.75002145206973     -0.74745330992830     -0.52128082980007
  O   2.15073002854750      0.57917303781836      1.11419653678071
  N   0.39590738359539     -0.96644637154014     -1.55663867063597
  O   0.72899931307634     -0.39114518528109     -2.58630756401743
  O   -0.00372953162404     -2.12084282984138     -1.44177324280958
  N   -0.45478837759821      1.07423274417339      1.50215898708746
  H   0.42993180744587      1.16036836724180      1.97851996858391
  H   -1.31870388498359      1.14098042079973      2.01895170506801
  N   -1.87370730443005      0.12744492110004     -0.11382698337800
  O   -2.76105077359821      0.19526443161901      0.73250416529577
  O   -2.02232212159521     -0.06425512460625     -1.31421913492962
