14
Coordinates from ORCA-job run
  C   0.56490113493169     -0.21469450681232     -0.27927940738643
  C   -0.63508983510997      0.07416441257743      0.29170133318711
  N   1.31277899548875      0.69806980985336     -1.14129374147184
  O   1.32770164344120      0.41371982070379     -2.33340948431600
  O   1.88776490498400      1.63056423809216     -0.58847865354376
  N   1.27126358422342     -1.44386361391031     -0.02082676202816
  O   0.68386011071503     -2.30847621716788      0.63831604251721
  O   2.41126976849885     -1.53680098792870     -0.46424943252992
  N   -1.41942192745383     -0.69952276316549      1.05585738576462
  H   -1.02664549040262     -1.56538906177725      1.39239744843234
  H   -2.12697983032275     -0.22107359108033      1.59303837307606
  N   -1.25508460636852      1.40133053211349      0.01625832074057
  O   -0.94327423014060      1.97254554264137     -1.02122016570532
  O   -2.05204422248464      1.80042638586068      0.86118874326352
