14
Coordinates from ORCA-job run
  C   0.60795367742141     -0.17598074019867     -0.20918405003014
  C   -0.59902695127684      0.10446488543999      0.35118758607001
  N   1.28806150382475      0.68309296085666     -1.17602048831912
  O   2.27761943051803      1.27471701990638     -0.75991676232091
  O   0.83364197411678      0.69760540197626     -2.31584081798460
  N   1.30876795015176     -1.41097755242477      0.03435797391191
  O   2.30880782617371     -1.62933840069075     -0.64162564620845
  O   0.84471399474884     -2.16619909184401      0.89549915714013
  N   -1.28937914991636     -0.58616087537705      1.26960890343971
  H   -2.26781293540602     -0.35624373030468      1.35763548279353
  H   -0.96546563636208     -1.51593244265787      1.48837288674894
  N   -1.27615566504608      1.38014189695164     -0.01602195125621
  O   -0.57405543525731      2.31165261443197     -0.38918964484067
  O   -2.49767058369059      1.38815805393491      0.11113737085587
