14
Coordinates from ORCA-job run
  C   0.74495583940751     -0.34265621158174     -0.28778979272537
  C   -0.30573902327393      0.36333539235084      0.48796565961668
  N   0.83247509072435     -1.54200084366025     -1.07038548292919
  O   -0.19394219713021     -2.21317709661349     -1.10090814383582
  O   1.90905472834102     -1.77317130116536     -1.61592994032827
  N   1.63575263311189      0.63132309064256     -0.30456498491718
  O   0.52517562018219      1.49825827130374      0.70451245366052
  O   2.67786923812334      1.01152820197708     -0.68235400974944
  N   -0.87474605930859     -0.27678317948553      1.59430775707943
  H   -1.66110282862836      0.25623593252646      1.94655749530055
  H   -0.18086876605434     -0.41393067513471      2.31778053892776
  N   -1.44205628352277      0.80418744202114     -0.44294407249692
  O   -1.19204563480979      0.81501494822928     -1.64260545021325
  O   -2.47478235716234      1.18083602858999      0.09635797261049
