14
Coordinates from ORCA-job run
  C   0.60671091228657     -0.17930697460072     -0.20969145051773
  C   -0.59826377247865      0.10885935942986      0.35080470199644
  N   1.28625334327477      0.66794000493250     -1.18707432381230
  O   0.82986860441360      0.66941223274770     -2.32627855276257
  O   2.27729121161543      1.26324674587342     -0.78002055754510
  N   1.30760705684949     -1.41171761265446      0.04728831291811
  O   2.30468563569293     -1.63944840238699     -0.62994343121546
  O   0.84535604465574     -2.15583590194840      0.91893806189559
  N   -1.28662760364622     -0.56970017113572      1.27963611346497
  H   -2.26446545818609     -0.33760914312212      1.36848036990214
  H   -0.96332630417213     -1.49681193564340      1.51008442259756
  N   -1.27526851664931      1.38134166153465     -0.02885933014133
  O   -0.57351741114333      2.30740842435731     -0.41564642048765
  O   -2.49630374251279      1.39222171261636      0.10228208370735
