14
Coordinates from ORCA-job run
  C   0.56287682760544     -0.19311470078259     -0.29967440560930
  C   -0.54600377233221      0.10241307568681      0.42975339126617
  N   1.16471384155833     -1.50219556680090     -0.30132097529608
  O   0.72477711998800     -2.32967661881942      0.50427284428954
  O   2.06161788803833     -1.70441599848820     -1.11333355751643
  N   1.21769746610368      0.73526635891307     -1.21870303587283
  O   0.65016943750490      0.94625011850600     -2.28608074792228
  O   2.29761670118466      1.18034450951704     -0.84728737168528
  N   -1.19841389138357     -0.65065574502343      1.32689004485794
  H   -2.13789973143159     -0.35960787671720      1.55219965406368
  H   -0.94322042352574     -1.62475775537198      1.38441640988810
  N   -1.13450336233429      1.46613970256584      0.31030162827078
  O   -0.38950014101122      2.38215780057841     -0.01500980186235
  O   -2.33092795996474      1.55285269623654      0.57357592312834
