14
Coordinates from ORCA-job run
  C   0.59305514365841     -0.18771424516418     -0.23936540469670
  C   -0.57679321083379      0.12034960765521      0.38184045901665
  N   1.22290247396025      0.63557861672004     -1.26917686604792
  O   0.70448106731872      0.61899895602225     -2.38132256586040
  O   2.23919045437464      1.23021067791828     -0.92883366064183
  N   1.29719153392638     -1.42166909304603      0.00013613105803
  O   2.25351888049608     -1.66989745494260     -0.72687054387395
  O   0.87901022755793     -2.14614967076103      0.90976239560109
  N   -1.21735988173762     -0.53596141948937      1.35952218594045
  H   -2.18681326018395     -0.29332393953614      1.49822903964379
  H   -0.88839228164376     -1.46134833156936      1.58882847859194
  N   -1.26472869198646      1.39107874036663      0.01691458000434
  O   -2.47621609889172      1.41507263928559      0.21681360208488
  O   -0.57904635601510      2.30377491654071     -0.42647783082038
