14
Coordinates from ORCA-job run
  C   0.57968277614787     -0.08841024010105     -0.31727047072553
  C   -0.52468534879883      0.19671227276010      0.42333179496185
  N   1.90519956537337     -0.12157279325013      0.24664490464400
  O   2.80601668744454     -0.55027310159912     -0.46707704268424
  O   2.03593819016917      0.27062752665642      1.41126824629362
  N   0.54978323679686     -0.48298075329735     -1.72392742842566
  O   0.16064099953923     -1.62070217057838     -1.96914990936367
  O   0.96003935072051      0.35298270965822     -2.52087551937689
  N   -0.61041055778964      0.60291147213308      1.69817490077933
  H   0.23025742433449      0.55796012909692      2.25374704694935
  H   -1.51335390345547      0.50298490418499      2.13725325737639
  N   -1.85964893009905      0.13595470920040     -0.23599154771719
  O   -1.90708342293911      0.31452273383650     -1.44653316073211
  O   -2.81137606744393     -0.07071739870058      0.51240492802075
