14
Coordinates from ORCA-job run
  C   0.59528303389399     -0.11506591827286     -0.27740961769378
  C   -0.54839649300666      0.24096568202387      0.36623921321061
  N   0.63859617077198     -0.73303189764841     -1.60079033409824
  O   0.29773625717411     -1.90982489992760     -1.67114974735856
  O   1.05479775907188     -0.02154807315991     -2.50793660038464
  N   1.89619971924829      0.00008504229791      0.33130441026229
  O   2.84128367609292     -0.50040188826223     -0.26946462062636
  O   1.96348004442362      0.58197351029830      1.41950064033989
  N   -0.70295651311048      0.84511100334373      1.55326552132100
  H   0.11461550699115      0.92538460490806      2.13857567170338
  H   -1.61937996665598      0.77748060807036      1.97006052946656
  N   -1.85117829257699      0.01817046412615     -0.32187822273693
  O   -2.82552242942438     -0.10805565233677      0.41508660266051
  O   -1.85355847289346     -0.00024258546060     -1.54640344606572
