14
Coordinates from ORCA-job run
  C   0.61609399426886     -0.04379605921208     -0.25019816109851
  C   -0.58861353854333      0.17032801826071      0.34302266303646
  N   0.79021207244971     -0.63072667184263     -1.57693819463951
  O   0.59775739149222     -1.83872863924625     -1.67498700364805
  O   1.15571096426267      0.14020381999620     -2.45689397863744
  N   1.86666600282231      0.21551656091922      0.41689819545959
  O   1.81739678375512      0.78470195520549      1.51278551473653
  O   2.88948357007889     -0.16163558492441     -0.14542342991302
  N   -0.86425396909516      0.73656926554406      1.52664079575535
  H   -1.78438024542595      0.55912901453939      1.90086338634555
  H   -0.08942231087083      0.90326029551458      2.15046566013221
  N   -1.82495638167721     -0.19403504379913     -0.40469430716376
  O   -2.80964723280501     -0.44081930401256      0.28661434187984
  O   -1.77104710071231     -0.19896762694260     -1.62815548224524
