14
Coordinates from ORCA-job run
  C   0.61253044059969     -0.13000693051415     -0.22787144661579
  C   -0.57318281441636      0.13700578119408      0.38185391040707
  N   0.74673493398633     -0.87026281472854     -1.48070416209763
  O   0.41895191424322     -0.28211321461442     -2.50660713599678
  O   1.21798262108871     -1.99769292518378     -1.38536023266143
  N   1.87024215532436      0.36923000033223      0.26694742468088
  O   2.85592123805811      0.20575481026674     -0.44460960930601
  O   1.86243814671800      0.93756138582210      1.36431366110880
  N   -0.80872729137097      0.76274116121809      1.54413561639385
  H   -0.03186515547883      1.23942622257561      1.97618453562189
  H   -1.74967237171385      1.09819132102955      1.68604646105631
  N   -1.82623068455777     -0.36766301810478     -0.24638974546580
  O   -1.74893609678610     -1.36660697528185     -0.95063182567060
  O   -2.84518703569453      0.26343519598911      0.02169254854525
