14
Coordinates from ORCA-job run
  C   0.55036055784014     -0.22144293662276     -0.30361069317556
  C   -0.62245996295371      0.08158573719907      0.31456727370207
  N   1.23229549062800     -1.47450254681693     -0.10220065222259
  O   2.35659043523736     -1.58245865955585     -0.58084093840194
  O   0.64251771759430     -2.34317045084990      0.54967586580400
  N   1.29185629266859      0.69737864848127     -1.16458686846305
  O   1.26994790567261      0.44034840890761     -2.36281526261770
  O   1.89816598844175      1.60686372279095     -0.60675517540810
  N   -1.40049123211366     -0.69157733087460      1.08509829341529
  H   -1.02273424815710     -1.57865088967029      1.38114779944781
  H   -2.07967496441878     -0.21222494159680      1.65677229223240
  N   -1.21604191203006      1.43086501317006      0.09491672077268
  O   -1.96447575585618      1.83220565835128      0.98209216356713
  O   -0.93385631255325      2.01578056708689     -0.94346081865243
