14
Coordinates from ORCA-job run
  C   0.52440904944624     -0.23443147716694     -0.33769262137606
  C   -0.60225533368177      0.09564019094243      0.34843987316567
  N   1.25141660012810      0.67663878819685     -1.21905485071801
  O   1.91746549303262      1.55324762419678     -0.67709779790932
  O   1.15776979059778      0.44525552639177     -2.41899845053298
  N   1.17377585733232     -1.51252139046771     -0.19431666887804
  O   2.26704497249195     -1.64787434775716     -0.73391186994894
  O   0.58998240682621     -2.37377507140481      0.47244864186797
  N   -1.36538217548906     -0.66640528979600      1.14477775292561
  H   -1.00175059878604     -1.56991910971450      1.40668653581208
  H   -1.99321980812556     -0.17401848787907      1.76235051510877
  N   -1.15994767449212      1.46803474866425      0.18491751190700
  O   -1.84616037489622      1.87664039402169      1.11783856221988
  O   -0.91314820438444      2.06348790177241     -0.85638713364361
