14
Coordinates from ORCA-job run
  C   0.60866270952955     -0.02375137861033     -0.26981608680610
  C   -0.57900612236358      0.14186292609147      0.37159746591178
  N   0.74563937950000     -0.50220834977269     -1.64377643159676
  O   0.55383702332497     -1.69942688861578     -1.83246155206082
  O   1.08416237989886      0.33820379548355     -2.46930321122112
  N   1.87770141248357      0.17955689145799      0.38153184015244
  O   2.88363049207768     -0.14972964404915     -0.23841884052791
  O   1.86034339456573      0.65657349155509      1.52146640284524
  N   -0.81969490263744      0.60977045613756      1.60461850951265
  H   -0.02724911040163      0.72726271629985      2.21735340982792
  H   -1.73091124970757      0.40787304096702      1.98786825767602
  N   -1.83706561527157     -0.15962943251064     -0.36825346500375
  O   -2.80576331874101     -0.45024715139146      0.32846155118648
  O   -1.81428647225756     -0.07611047304248     -1.58986784989606
