14
Coordinates from ORCA-job run
  C   0.57164490938222     -0.21345880028708     -0.26769964225501
  C   -0.51935336821779      0.21572059152084      0.42064945746931
  N   1.91639750354273      0.14070931580124      0.11056781659145
  O   2.81376159867751     -0.15590722665597     -0.67131395922571
  O   2.06609345235333      0.72992208152210      1.18642204653779
  N   0.51422208153000     -0.99330514980389     -1.50174408796337
  O   0.85344870612664     -2.16729365098589     -1.40636891656853
  O   0.17660241950780     -0.39372267447831     -2.51789889532717
  N   -0.58393408233280      0.89424338989614      1.57564260198345
  H   -1.46143377614770      1.35259083311272      1.77127898827132
  H   0.27716262009140      1.28311775285332      1.92892056754805
  N   -1.87080846256537     -0.14503670345673     -0.09247067794732
  O   -2.78029030076690      0.61557672264364      0.22799403558643
  O   -1.97251330118107     -1.16415648168212     -0.76397933470069
