14
Coordinates from ORCA-job run
  C   0.54288107978093     -0.23303789547765     -0.30874682929137
  C   -0.61409579582273      0.09223574128494      0.32758653319098
  N   1.25100239048579      0.64724264449153     -1.23510851417627
  O   1.20172748055884      0.32741283550290     -2.41737938034291
  O   1.86010134534167      1.59150335207389     -0.74180980979709
  N   1.24307357482833     -1.46791447568649     -0.06226933722404
  O   0.67948058777485     -2.30761556972219      0.64796179881385
  O   2.35538699795729     -1.58982436431368     -0.56492873053701
  N   -1.36294819727630     -0.64667802300228      1.15841935486634
  H   -0.96828570483875     -1.51369471822969      1.48962331853723
  H   -2.02783027879950     -0.14284605524177      1.72592156884003
  N   -1.22704495142617      1.42309642278094      0.05565194998187
  O   -1.95060377354546      1.86535243722271      0.94400741518586
  O   -0.98384475501879      1.95376766831684     -1.02092933804748
