14
Coordinates from ORCA-job run
  C   0.54291994527054     -0.24278486228017     -0.30085834253214
  C   -0.61775386485730      0.10291638935444      0.31747962805048
  N   1.21409523569623     -1.49262094125875     -0.04911399129939
  O   2.33126971906148     -1.63517982354073     -0.53530765278939
  O   0.62296111873739     -2.32348150105727      0.64908386821158
  N   1.28455930276842      0.62771516922186     -1.21063566527311
  O   1.90555459504492      1.55548077320936     -0.70114403025569
  O   1.24705495691787      0.31658496570383     -2.39553224727159
  N   -1.39612222024214     -0.62502868992229      1.13097862007748
  H   -1.02255484524576     -1.50008889988921      1.46568586175541
  H   -2.05831055146858     -0.10980489928363      1.69143133580403
  N   -1.19863438901569      1.44752662780809      0.04234630361598
  O   -0.92432383211822      1.97946941756118     -1.02612223629103
  O   -1.92971517054917      1.89929627437330      0.91970854819740
