14
Coordinates from ORCA-job run
  C   0.59192340031546     -0.16095475716731     -0.26107394316327
  C   -0.54127403895834      0.29502532851624      0.33607565549981
  N   1.89388870878104     -0.03020131633198      0.34221922978086
  O   1.97625691304262      0.65029176068091      1.37048765851571
  O   2.82209453625714     -0.62452062020768     -0.19610262431959
  N   0.61778468289477     -0.90701008137853     -1.51711620163468
  O   1.06721860244905     -0.30493427917800     -2.48555668408420
  O   0.23599326950263     -2.07255133325834     -1.47394486255517
  N   -0.67951898508643      1.01912734415921      1.45641792955040
  H   -1.59822640760705      1.01901111522614      1.87388841842704
  H   0.13791623325381      1.12796974250399      2.03737551595864
  N   -1.84830746574139      0.04855919570432     -0.33546115166641
  O   -1.84799591900605     -0.08193687119125     -1.55314810158457
  O   -2.82775353009725      0.02012477192227      0.40493916127540
