14
Coordinates from ORCA-job run
  C   0.51805854594949     -0.24051842598716     -0.34314884013385
  C   -0.59591637004120      0.10256960121550      0.35729580616528
  N   1.23477771375430      0.65738116074646     -1.24611815083892
  O   1.91144538602746      1.53840949852816     -0.72478051905106
  O   1.12097410765431      0.41328018358759     -2.44183996256486
  N   1.16286496593852     -1.52072983761533     -0.19731729810956
  O   2.24656871015207     -1.66755936580025     -0.75298149678533
  O   0.58469131125417     -2.37256603021715      0.48630567208846
  N   -1.34993040795588     -0.64708889787918      1.17383974164438
  H   -1.96555332775810     -0.14575919298444      1.79645590698175
  H   -0.98730827489895     -1.55040978746775      1.43792659974076
  N   -1.14905257840313      1.47586248451073      0.18801755374551
  O   -0.91716484272333      2.05843423112102     -0.86396080501070
  O   -1.81645493894974      1.89869437824179      1.12830579212814
