14
Coordinates from ORCA-job run
  C   0.55066546656742     -0.22676010130181     -0.29960654218135
  C   -0.61926027883693      0.08467075867372      0.31964570889343
  N   1.25526226032841      0.65684958075858     -1.22569360606522
  O   1.22414099693863      0.32665834785334     -2.40565133267708
  O   1.84414231386386      1.61442940647241     -0.73348466355200
  N   1.26767159296552     -1.44797851993825     -0.03432981729054
  O   2.38729510911289     -1.55660606809196     -0.52362853577940
  O   0.70979762377771     -2.29020172152067      0.67746740176194
  N   -1.36616756416240     -0.65925525895516      1.14795257199242
  H   -2.04582269059058     -0.16108174890492      1.70284671032675
  H   -0.96048889152394     -1.51638940446537      1.49149722840000
  N   -1.25061108268244      1.40296049128610      0.02881579656734
  O   -1.00160468515564      1.92917104176098     -1.04866236112414
  O   -1.99302017060252      1.84053319637300      0.90383144072785
