14
Coordinates from ORCA-job run
  C   0.58821802625889     -0.19832924377453     -0.24014660508143
  C   -0.57536079741511      0.13031138980432      0.38171194829747
  N   1.23240872494660      0.61464822027126     -1.26950373955926
  O   0.71511474347137      0.60619367938605     -2.38229641909215
  O   2.25743010530598      1.19308540445529     -0.92744517950097
  N   1.27573991159163     -1.44076098540760      0.00387971330636
  O   0.84713679785775     -2.15643619889557      0.91572394955997
  O   2.22890622639219     -1.70464799339400     -0.72176851581164
  N   -1.22493080290536     -0.51232855895564      1.36311102381764
  H   -2.19278992699017     -0.25987728361721      1.49572953644362
  H   -0.91003167148007     -1.44302253160300      1.59130201599340
  N   -1.24339444456946      1.40953057705098      0.01190647505887
  O   -2.45573549101500      1.44996619430972      0.20462352200077
  O   -0.54271140144925      2.31266733036997     -0.42782772543266
