14
Coordinates from ORCA-job run
  C   0.51003201087383     -0.24873709688413     -0.34933574113886
  C   -0.59051705241032      0.11234388129905      0.36318888291215
  N   1.23845036039981      0.64077233220564     -1.25122483907610
  O   1.10998068015217      0.40842804825107     -2.44780836940165
  O   1.93944303806065      1.50183543940208     -0.72866690334407
  N   1.12825535432919     -1.54376182589770     -0.21924000075935
  O   0.53787576447913     -2.38816165641453      0.46312824231362
  O   2.20419370643405     -1.70906641281218     -0.78469698460274
  N   -1.35379654527173     -0.62772698650922      1.17989147663648
  H   -1.00831608061782     -1.54055592785349      1.43402959437408
  H   -1.95296668166060     -0.11823245708111      1.81187805842182
  N   -1.11551714143030      1.49849725415803      0.20961555426632
  O   -1.76614416363062      1.92766438671001      1.15876423216402
  O   -0.87997324970744      2.08470102142649     -0.83952320276572
