14
Coordinates from ORCA-job run
  C   0.62851498354209     -0.13754830136522     -0.17288134037122
  C   -0.63068385621287      0.04975903093779      0.30526949061440
  N   1.36852823881973      0.84709516298022     -0.95907076966983
  O   2.30035263088075      1.39737002490840     -0.38362157602399
  O   1.01808706123859      0.99691944309799     -2.12552801634570
  N   1.33929028662710     -1.38159711641763     -0.02034691768461
  O   2.40062300037556     -1.49702671315112     -0.62444508211552
  O   0.82217658396241     -2.24628409241389      0.69527871485794
  N   -1.38027951518525     -0.76197285226829      1.06446078612849
  H   -1.05093014590041     -1.70619872600496      1.19559763936816
  H   -2.36881190407315     -0.56144232651525      1.08852883175500
  N   -1.30859105315747      1.34970250589889      0.03735531075505
  O   -0.60298933005496      2.33240785445723     -0.15281340903902
  O   -2.53628698086212      1.32081610585583      0.05221633777085
