14
Coordinates from ORCA-job run
  C   0.59774082293273     -0.09406457779899     -0.27899137150288
  C   -0.55770204576059      0.22252651591449      0.36443278431982
  N   0.66337190818769     -0.74228520055106     -1.58701047568496
  O   1.02992704197942     -0.03157408091614     -2.51589788069926
  O   0.39013609722676     -1.93800930351494     -1.62421123104206
  N   1.89573784173818      0.10605996596678      0.31343108956342
  O   1.94172030662394      0.72062944404163      1.38457053455382
  O   2.86054006061641     -0.36186411424579     -0.28235491570370
  N   -0.73316659056466      0.85065441686584      1.53580024432017
  H   0.08327251224609      0.99262620323395      2.11070500385871
  H   -1.64172494251245      0.74955844849393      1.96282510598945
  N   -1.85288673858971     -0.08807504479802     -0.30363314198472
  O   -2.81403814266547     -0.23802855321874      0.44610576393134
  O   -1.86392813145835     -0.14815411947295     -1.52677150991915
