14
Coordinates from ORCA-job run
  C   0.51518757951717     -0.24154105615769     -0.34544685225666
  C   -0.59836602154308      0.10813705422477      0.35281161918229
  N   1.11566869580680     -1.54747758276420     -0.24463758425467
  O   2.19988459215876     -1.70798026880207     -0.79567676673275
  O   0.50315800978561     -2.40593177907205      0.39958228182556
  N   1.27716444984540      0.66741004199015     -1.19921519368124
  O   1.16342186384022      0.48645206765518     -2.40607753051404
  O   1.98901103826845      1.48962756372098     -0.63098348030231
  N   -1.38765348937348     -0.65147578041169      1.12542445297469
  H   -1.05678666903477     -1.57539440888437      1.35795751376084
  H   -2.00186282518526     -0.15841754366745      1.75595200366373
  N   -1.10580030427761      1.50466114941816      0.23495241612864
  O   -1.79246426426792      1.90103739075336      1.17287670922471
  O   -0.82056265554028      2.13189315199691     -0.77751958901878
