14
Coordinates from ORCA-job run
  C   0.61733367771045     -0.03808574714627     -0.24706728727639
  C   -0.59138544251102      0.16032116952694      0.34354900339455
  N   0.80175375422496     -0.58728380468444     -1.58830795846654
  O   1.16813232306528      0.20975095311711     -2.44446412830556
  O   0.61717152828381     -1.79317323309595     -1.72084048063019
  N   1.86334557326708      0.20273362088220      0.43583202132770
  O   2.88981519413239     -0.15806234762641     -0.13066159037246
  O   1.80680565986269      0.74079162122354      1.54680973873133
  N   -0.87407867942612      0.69304403805108      1.54079868032242
  H   -1.79786306746891      0.50987818350905      1.90277193430164
  H   -0.10298671550628      0.84466798624277      2.17298364012463
  N   -1.82309175324043     -0.18294713635349     -0.42189255958989
  O   -1.75880656620406     -0.16467052547066     -1.64467460111065
  O   -2.81514548618981     -0.43696477817546      0.25616358754941
