14
Coordinates from ORCA-job run
  C   0.55399324141131     -0.22448551777453     -0.29391787491727
  C   -0.62492448568985      0.08257546649439      0.31016107719314
  N   1.27366420973980      0.66482031348077     -1.20311108255312
  O   1.86333743098542      1.61339970127811     -0.69457903334361
  O   1.25298901890796      0.34694647133652     -2.38658466137616
  N   1.26777354629522     -1.44716959810335     -0.02621065274905
  O   2.39551192781298     -1.55072218269378     -0.49789846313316
  O   0.70407946706921     -2.29065486724836      0.67955714519782
  N   -1.38352705739738     -0.66798037530925      1.12140521383319
  H   -2.07423729012851     -0.17524815145831      1.66748676848929
  H   -0.98353280324608     -1.52780940072150      1.46471146170638
  N   -1.25142396367035      1.40339845526477      0.02009174414638
  O   -0.97226259038303      1.94629252537721     -1.04172125228525
  O   -2.02144065170668      1.82563716007729      0.87860960979143
