14
Coordinates from ORCA-job run
  C   0.60578826348829     -0.17664597912679     -0.21681869080092
  C   -0.60015205340588      0.08790182364308      0.35318883992004
  N   1.34422720377287      0.76471776601915     -1.05582146934220
  O   2.35708499381589      1.24223209950052     -0.55734712388489
  O   0.90851952806517      0.95360260800860     -2.18741064975414
  N   1.23948390925232     -1.46748921845875     -0.12875834060484
  O   2.23934311519370     -1.64795863006864     -0.81600069843938
  O   0.72177490801199     -2.30302659676006      0.62033788175773
  N   -1.34425968879779     -0.68055447456446      1.16140717868654
  H   -2.31266756452501     -0.41479991957774      1.25954568493983
  H   -1.07160193950759     -1.64658272022098      1.25993247324229
  N   -1.20678906953321      1.43303343792519      0.14539802502483
  O   -2.42990046079687      1.48434078956934      0.24393627216470
  O   -0.45185114503388      2.37022901411153     -0.08158938290959
