14
Coordinates from ORCA-job run
  C   0.49062089515162     -0.27312665297526     -0.35865482360341
  C   -0.55911065089857      0.13633626295363      0.40277894196389
  N   1.05480063252106      0.49305900071870     -1.46784705985361
  O   1.73359916547339      1.47178033535531     -1.17257059306169
  O   0.82916900157696      0.05271363184440     -2.58916147497985
  N   1.21949602906410     -1.48593774597541     -0.08778914296146
  O   0.76826257282413     -2.23634200406132      0.78435388257692
  O   2.24453397689176     -1.67856889830217     -0.73353589724489
  N   -1.17704990263240     -0.49888667006096      1.40866471204946
  H   -1.75011809784795      0.07250018684865      2.01119226400848
  H   -0.73724256893614     -1.33262397255207      1.76742745563327
  N   -1.20442365370136      1.44140653744684      0.08430210729886
  O   -1.79084261929768      1.98485209839460      1.01652466004231
  O   -1.11969478018893      1.85383789036506     -1.06568503186827
