14
Coordinates from ORCA-job run
  C   0.60465750103734     -0.16967403163949     -0.22374229252155
  C   -0.60178754318586      0.07748192990417      0.35308517151404
  N   1.34282528137685      0.79271905672374     -1.03854055732451
  O   0.91428152396678      1.00122143662032     -2.16935471690388
  O   2.34892866994512      1.26650548535086     -0.52306217401144
  N   1.24631389661621     -1.45814883614228     -0.15828109463317
  O   0.73185008314610     -2.31131242167512      0.57290937371006
  O   2.24975748972975     -1.61881431265442     -0.84525266361493
  N   -1.34198698753301     -0.71084788806555      1.14522409484065
  H   -2.31120436387016     -0.45146905995437      1.25144008818966
  H   -1.06326633765927     -1.67657569669770      1.22780848743446
  N   -1.21539426909841      1.42347614945230      0.17205378782151
  O   -2.43827481473162      1.46757713837600      0.27679595278302
  O   -0.46570012973983      2.36786105040155     -0.04208345728391
