14
Coordinates from ORCA-job run
  C   0.57686608783816     -0.15929563176154     -0.29286905440143
  C   -0.55886999395554      0.06465400076544      0.42057677430371
  N   1.22353352638649     -1.44618416183594     -0.33855440093644
  O   2.14315778137051     -1.58154669647558     -1.13896388740358
  O   0.79700478341436     -2.32264970177897      0.42107229753665
  N   1.21782167415686      0.82968792303998     -1.15664642559018
  O   0.66572918230240      1.06761322812869     -2.22639868665632
  O   2.27372018867728      1.29433888587661     -0.74249885778250
  N   -1.20322270244502     -0.74939918556038      1.26904017527611
  H   -2.15743373439096     -0.50197104399132      1.48425131768309
  H   -0.91387433990703     -1.71539608963862      1.29038728303349
  N   -1.19237038890059      1.41117041814148      0.34674701361826
  O   -2.39712890519000      1.44406165205526      0.58287836764365
  O   -0.47293315935693      2.36591640303490      0.08097808367550
