14
Coordinates from ORCA-job run
  C   0.53701852363535     -0.22992802123894     -0.31876880473050
  C   -0.49845339459662      0.18027392250827      0.46205966326963
  N   0.98069459767481      0.45147432889666     -1.53304273027032
  O   2.03679330763459      1.06695504637740     -1.44368471894835
  O   0.28312188825739      0.30572999832744     -2.53193492872285
  N   1.26453521565963     -1.44773671231406     -0.06568231434813
  O   1.00626227975059     -2.05754116747159      0.97766328529891
  O   2.07911721111482     -1.79821037529597     -0.91337010282938
  N   -0.95549826408754     -0.34401616098124      1.60790292219207
  H   -0.59846695345276     -1.24753301020500      1.87856269474133
  H   -1.87965915726616     -0.05611781055223      1.89238647428701
  N   -1.23320381675899      1.41981348907677      0.08043256425985
  O   -2.37965547760114      1.51148033979330      0.51125647903979
  O   -0.64260595996398      2.24535613307922     -0.60478048323906
