14
Coordinates from ORCA-job run
  C   0.54861254082664     -0.22717093954804     -0.30234867463359
  C   -0.61378980495179      0.08516662058849      0.33062668006525
  N   1.20841365215048      0.62808467006438     -1.28646393127394
  O   1.78684263522093      1.62027796249047     -0.85408197372330
  O   1.15541925952070      0.24287289816365     -2.44877927972492
  N   1.30279303088762     -1.41650680951851      0.00185608722721
  O   2.41259895815089     -1.52100065579013     -0.51020567689604
  O   0.78427440275346     -2.23703390423959      0.76676323440840
  N   -1.32141108811640     -0.63687306678931      1.21106115255039
  H   -2.00010719778162     -0.12986190987983      1.75905469468087
  H   -0.88594841850532     -1.46668909418726      1.58393002579591
  N   -1.28505516760114      1.37236055787420     -0.00586325724281
  O   -2.01957610501135      1.83109505696861      0.86500774326668
  O   -1.07306669754311      1.85427861380286     -1.11155682450010
