14
Coordinates from ORCA-job run
  C   0.62568909096417     -0.14835187539312     -0.17452470736077
  C   -0.62674004597170      0.06598975595794      0.30986452812566
  N   1.35953360035748      0.79699198332849     -1.01285095148079
  O   0.99485347816444      0.89675429440628     -2.18030109103317
  O   2.30074912711016      1.36803726400193     -0.47401854517391
  N   1.33425842544879     -1.38664142480223      0.02680371145711
  O   2.38728086597866     -1.53419045727333     -0.58482841117821
  O   0.82337060074620     -2.21524975514573      0.78813316644989
  N   -1.36966791178333     -0.70675842453057      1.11496310393149
  H   -1.04161467826414     -1.64503468200250      1.28611223375105
  H   -2.35727718620997     -0.50209079756010      1.14184755347001
  N   -1.30322432525089      1.35489893702765     -0.00925219238501
  O   -0.59643706882811      2.32534348483481     -0.25108421332649
  O   -2.53077397246177      1.33130169715049      0.02013581475315
