14
Coordinates from ORCA-job run
  C   0.55047534845408     -0.21481234019916     -0.30926155047368
  C   -0.61613748632818      0.07282816833815      0.32789479851555
  N   1.23503673577112      0.69323133106384     -1.22707106512435
  O   1.81765326831909      1.64898466672430     -0.72405058223599
  O   1.19580454270358      0.38331046090760     -2.41227944443035
  N   1.28479023506510     -1.43112914940670     -0.07061056054813
  O   0.74552685285477     -2.28949673837943      0.63634967191139
  O   2.39897499540623     -1.52064062673813     -0.57586674761956
  N   -1.34188486669081     -0.69269086402059      1.15446632428487
  H   -2.03101775672842     -0.21636028134336      1.71648149263714
  H   -0.92439805592048     -1.55109709082123      1.47972233329793
  N   -1.26891058073026      1.38622578258461      0.06267915961525
  O   -1.03367318894169      1.93399495687510     -1.00710039834286
  O   -2.01324004323414      1.79765172441500      0.94864656851280
