14
Coordinates from ORCA-job run
  C   0.52123238396276     -0.24097183436049     -0.33787895907564
  C   -0.59726810864283      0.10327564831891      0.35469131074055
  N   1.23208339112940      0.64850662655662     -1.25382845820686
  O   1.12163863095258      0.38480738991112     -2.44569092777015
  O   1.90299020194903      1.54134468684783     -0.74540394039398
  N   1.17527012388082     -1.51406455539028     -0.17255852878657
  O   2.26122338222537     -1.66067170767299     -0.72384547325280
  O   0.60300205232273     -2.35963795641221      0.52367910772822
  N   -1.34709620547218     -0.64015262587067      1.18073271217072
  H   -0.97799364926670     -1.53652286993333      1.45916160982048
  H   -1.96819334773542     -0.13462604956624      1.79448004849031
  N   -1.16105557780505      1.46964102538825      0.16407119344789
  O   -1.83418767837069      1.90079734400937      1.09640377807360
  O   -0.93164559912982      2.03827487817412     -0.89601347298577
