14
Coordinates from ORCA-job run
  C   0.62662302722554     -0.14127423237913     -0.17639779515388
  C   -0.62235022961488      0.06987762059293      0.31919571263704
  N   1.32239532708727      0.76835825010522     -1.08417228707431
  O   2.25522553507416      1.39671416508220     -0.59706302355844
  O   0.93991454549492      0.78269944505647     -2.24995489647901
  N   1.36474563914790     -1.35358463818887      0.07309710183566
  O   2.40909297273001     -1.51048115239773     -0.55104603113391
  O   0.88689735238029     -2.15192302292917      0.88635468750257
  N   -1.33057511469306     -0.67498038093718      1.17982706442164
  H   -2.32108849953668     -0.48748178163239      1.22057293848449
  H   -0.97842752116554     -1.59555622653952      1.39356859695536
  N   -1.33514668146591      1.32471191543337     -0.05386534276731
  O   -0.65700831243898      2.29053561229687     -0.38108856629455
  O   -2.56029804022505      1.28138442643693      0.01997184062466
