14
Coordinates from ORCA-job run
  C   0.62012153372784     -0.15237920299018     -0.18859960480633
  C   -0.61665282888707      0.07871863127495      0.32781793983001
  N   1.31744647323962      0.75022270503563     -1.10214152957114
  O   0.92078415538893      0.77314789092043     -2.26312098623809
  O   2.26438972619784      1.36486670357730     -0.62493265584627
  N   1.34605262409804     -1.37338936492177      0.05302445526873
  O   2.38123359303411     -1.54326700991839     -0.58289742367087
  O   0.86738695512677     -2.16605939612211      0.87139200268482
  N   -1.32339283211345     -0.65606421350130      1.19819163151456
  H   -2.31044691323881     -0.45444640732441      1.25298354995511
  H   -0.98194046240767     -1.58197543289248      1.40615939075635
  N   -1.31607856709196      1.34401655814862     -0.03475420744782
  O   -0.62822875183803      2.30060454456048     -0.36881708966052
  O   -2.54067470523616      1.31800399415321      0.05469452723144
