15

C	-0.371308	-0.152794	-1.457773
C	0.0	0.0	0.0
F	-0.025997	-1.381582	-1.917623
H	1.10153	0.0	0.0
N	-1.89375	-0.044475	-1.644732
O	-2.359723	1.084688	-1.763128
O	-2.527122	-1.091463	-1.572416
C	0.24592	0.885611	-2.2906
N	0.734374	1.659454	-3.025717
C	-0.539216	-1.089381	0.795448
N	-0.973387	-1.922673	1.504476
N	-0.34609	1.332397	0.462089
H	0.428211	1.672182	1.017996
H	-1.202329	1.363372	0.998412
F	2.478888	0.0	0.0
