15

C	-0.246251	0.081142	-1.499871
C	0.0	0.0	0.0
F	0.198767	-1.030891	-2.127
H	1.096587	0.0	0.0
N	-1.751349	0.171077	-1.810454
O	-2.283506	1.247939	-1.542879
O	-2.315158	-0.83711	-2.214029
C	0.373555	1.280616	-2.079419
N	0.840139	2.236054	-2.576414
C	-0.600417	-1.213901	0.525937
N	-1.075963	-2.199035	0.95778
N	-0.356786	1.180748	0.757147
H	-1.164721	1.666721	0.393839
H	0.451225	1.791112	0.768572
F	2.480115	0.0	0.0
