15

C	-0.516837	-0.015915	-1.418061
C	0.0	0.0	0.0
F	0.159963	0.879624	-2.187064
H	1.107555	0.0	0.0
N	-0.301024	-1.366875	-2.104799
O	-0.995771	-1.58083	-3.097059
O	0.588178	-2.084442	-1.668318
C	-1.956501	0.291151	-1.494648
N	-3.102674	0.547252	-1.462415
C	-0.549668	-1.113408	0.75366
N	-1.022902	-1.973203	1.403721
N	-0.338249	1.310665	0.561074
H	-1.102706	1.26107	1.222546
H	0.496493	1.641666	1.031361
F	2.485009	0.0	0.0
