15

C	-0.415059	-0.003016	-1.442106
C	0.0	0.0	0.0
Br	0.172589	-1.629836	-2.341945
H	1.093182	0.0	0.0
H	-0.373406	-0.924471	0.45165
N	-1.953223	0.035736	-1.542186
O	-2.558794	-0.944965	-1.135883
O	-2.463793	1.089225	-1.911611
C	0.108783	1.133242	-2.193631
N	0.527575	2.050495	-2.797243
C	-0.50092	1.236069	0.737507
H	-0.125433	2.14618	0.26239
H	-0.087989	1.212225	1.748611
H	-1.593404	1.306299	0.812793
F	2.584222	0.0	0.0
