15

C	-0.250657	-0.008424	-1.454631
C	0.0	0.0	0.0
Br	-2.198339	0.176909	-2.002652
H	1.096758	0.0	0.0
H	-0.367897	0.941015	0.413058
N	0.415002	1.204177	-2.115648
O	1.021478	1.011854	-3.16213
O	0.259245	2.276234	-1.553073
C	0.213751	-1.219733	-2.11705
N	0.570958	-2.23124	-2.596846
C	-0.522783	-1.222528	0.727776
H	-0.265832	-1.135405	1.787385
H	-1.609659	-1.348673	0.643091
H	-0.032476	-2.125836	0.354998
F	2.539203	0.0	0.0
