15

C	-0.468533	0.063956	-1.440813
C	0.0	0.0	0.0
Br	0.420993	1.510512	-2.394595
H	1.092044	0.0	0.0
H	-0.349985	0.928339	0.466452
N	-0.108948	-1.258059	-2.13779
O	1.056475	-1.45442	-2.430657
O	-1.04047	-2.052219	-2.267689
C	-1.911358	0.2656	-1.593788
N	-3.068497	0.478217	-1.623075
C	-0.531218	-1.224074	0.735509
H	-0.073482	-2.134101	0.33982
H	-1.621556	-1.337574	0.707163
H	-0.217987	-1.147794	1.779791
F	2.595787	0.0	0.0
