15

C	-0.42663	0.005565	-1.43892
C	0.0	0.0	0.0
Br	0.168549	-1.607213	-2.357653
H	1.093155	0.0	0.0
H	-0.370281	-0.928228	0.445962
N	-1.966489	0.027247	-1.528273
O	-2.556062	-0.951425	-1.090166
O	-2.494937	1.062827	-1.928264
C	0.078909	1.155287	-2.18307
N	0.485172	2.082751	-2.779613
C	-0.503689	1.227457	0.748456
H	-0.13779	2.143972	0.278041
H	-0.083479	1.199923	1.756762
H	-1.595667	1.289565	0.83288
F	2.586231	0.0	0.0
