15

C	-0.424922	0.018301	-1.446534
C	0.0	0.0	0.0
Br	0.373611	-1.43214	-2.468238
H	1.092999	0.0	0.0
H	-0.344739	0.948823	0.429887
N	-1.961487	-0.111004	-1.522296
O	-2.460686	-1.220218	-1.655261
O	-2.573882	0.933271	-1.304049
C	-0.074184	1.268886	-2.111509
N	0.19891	2.276376	-2.652336
C	-0.527635	-1.185714	0.789875
H	-0.250686	-2.125492	0.307826
H	-0.046156	-1.172552	1.770629
H	-1.614369	-1.180127	0.936871
F	2.586318	0.0	0.0
