15

C	-0.413394	-0.010053	-1.443189
C	0.0	0.0	0.0
Br	0.174651	-1.642128	-2.332579
H	1.093165	0.0	0.0
H	-0.375157	-0.921538	0.455815
N	-1.951543	0.032405	-1.546775
O	-2.560554	-0.948355	-1.142478
O	-2.458343	1.089583	-1.916489
C	0.114813	1.121695	-2.198249
N	0.537379	2.035609	-2.804015
C	-0.500499	1.241068	0.729212
H	-0.091214	1.221353	1.74189
H	-0.120642	2.147409	0.250623
H	-1.592664	1.314508	0.800375
F	2.584472	0.0	0.0
