16
Coordinates from ORCA-job run
  C   0.44406338710126      0.23306124811521      0.42089468273286
  C   -0.97250365895625      0.32552035445212     -0.11340125378613
  F   0.41235976991208     -0.24671378682365      1.70120662308515
  H   -0.94022668189113      0.82390011886799     -1.08431199355102
  H   -1.52737231596173      0.97477343667676      0.57216718656034
  C   1.42254002003239     -0.58384126333086     -0.38673633504588
  H   1.11463000132286     -1.62936593016924     -0.37440088284966
  H   2.41435952913919     -0.51198649489035      0.06374309085689
  H   1.46738643238678     -0.22504247475932     -1.41378641753850
  N   0.98429568587490      1.65745845483290      0.50578188509910
  O   1.13069482978013      2.22231151323962     -0.57513199604713
  O   1.21733607319282      2.12752636016000      1.61059032643235
  C   -1.65407808640289     -1.03508133350737     -0.21238095723860
  H   -2.70450435398650     -0.90637240315111     -0.47970950423435
  H   -1.61251019795842     -1.56208542812839      0.74195529941693
  H   -1.19547043358549     -1.66406237158429     -0.97747975389233
