16
Coordinates from ORCA-job run
  C   0.60091048635241      0.10644460332223      0.56088670575277
  C   -0.82435482160506     -0.40225466771041      0.65374494687108
  F   1.12996214868477      0.13501208692260      1.82762962337798
  H   -0.76325804944049     -1.44207509773921      0.98939805381230
  H   -1.30343813331672      0.16979771749585      1.45331871114736
  C   1.53805751312713     -0.65833612283540     -0.33488166696552
  H   1.18226845704679     -0.68862472195101     -1.36152375674664
  H   2.52382310022288     -0.19211650674340     -0.32084782358104
  H   1.62312364683873     -1.67456715578708      0.05435922335421
  N   0.51920085309830      1.56466636614208      0.11924686946556
  O   0.74573650912330      1.80763191654814     -1.06396762481212
  O   0.16595149838750      2.37313660683377      0.96930300521992
  C   -1.62277542931011     -0.29314047203371     -0.64072548266953
  H   -2.61988574183298     -0.71203112933329     -0.49431753585475
  H   -1.74414366983599      0.74542710740223     -0.95301519805734
  H   -1.15117836754047     -0.83897053053340     -1.45960805031426
