19

C	0.0	0.0	0.0
C	-0.282542	-0.065654	-1.541274
F	1.364812	0.0	0.0
H	0.286426	-0.934061	-1.870564
N	-0.614038	1.169459	0.590125
O	-1.849698	1.305976	0.140609
O	-0.168785	1.543108	1.711041
C	-0.459678	-1.229211	0.727758
H	-1.55261	-1.246504	0.762457
H	-0.065535	-2.125313	0.244782
H	-0.057388	-1.156757	1.742788
N	0.486926	1.077907	-2.139752
O	1.540658	0.810581	-2.722608
O	0.02077	2.210022	-2.022019
C	-1.673498	-0.095497	-2.128077
H	-2.095323	0.902411	-2.164494
H	-2.351417	-0.673773	-1.488396
H	-1.640577	-0.541295	-3.127074
H	-3.142743	0.0	0.0
