19

C	0.0	0.0	0.0
C	-0.214115	0.100322	-1.548831
F	1.378983	0.0	0.0
H	0.516635	-0.647296	-1.887207
C	-0.267083	1.197758	0.916826
H	-1.320942	1.333329	1.133822
H	0.26784	0.996671	1.847895
H	0.139782	2.105808	0.462866
N	-0.729805	-1.170038	0.514027
O	-0.727836	-2.198822	-0.261247
O	-0.717487	-1.311121	1.776412
C	0.204595	1.46525	-2.075595
H	0.245855	1.439367	-3.169154
H	-0.537877	2.213267	-1.787969
H	1.18718	1.760288	-1.707367
N	-1.534354	-0.207182	-2.09955
H	-1.774305	-1.116449	-1.704503
H	-1.38076	-0.356108	-3.097766
H	-2.026677	0.0	0.0
