19

C	0.0	0.0	0.0
C	-0.393442	-0.029279	-1.495865
F	1.372126	0.0	0.0
H	0.319999	-0.742927	-1.924125
C	-0.586798	1.086938	0.841879
H	-0.301598	2.054707	0.428408
H	-1.680169	0.971094	0.811918
H	-0.226901	1.008337	1.867195
N	-0.295884	-1.363081	0.645799
O	-0.304398	-2.34973	-0.087624
O	-0.369958	-1.404306	1.870339
C	-0.107874	1.345198	-2.102791
H	0.867277	1.741285	-1.803125
H	-0.890837	2.050951	-1.818002
H	-0.135131	1.245444	-3.18937
N	-1.726686	-0.451785	-1.855844
H	-2.458204	-0.098782	-1.193054
H	-1.777582	-1.458412	-1.757309
H	-3.586555	0.0	0.0
