19

C	0.0	0.0	0.0
C	-0.444364	-0.12142	-1.474909
F	1.379544	0.0	0.0
H	0.310893	-0.787683	-1.908412
C	-0.578077	1.120429	0.803391
H	-0.215842	1.077958	1.830683
H	-1.67167	1.015814	0.787889
H	-0.286521	2.070589	0.354016
N	-0.288377	-1.341028	0.697265
O	-0.010027	-2.353457	0.056131
O	-0.681103	-1.334366	1.85934
C	-0.341583	1.243291	-2.151995
H	0.608046	1.745617	-1.938394
H	-0.43339	1.094634	-3.228699
H	-1.170988	1.879264	-1.833701
N	-1.74795	-0.687399	-1.732579
H	-2.501294	-0.291399	-1.120006
H	-1.727972	-1.677748	-1.519666
H	-3.685206	0.0	0.0
