19

C	0.0	0.0	0.0
C	-0.214986	0.124893	-1.547553
F	1.375246	0.0	0.0
H	0.518237	-0.613045	-1.900072
C	-0.28485	1.167396	0.945664
H	0.016783	2.105519	0.473543
H	-1.327907	1.219188	1.235481
H	0.331097	1.004217	1.833326
N	-0.672074	-1.207372	0.500195
O	-0.655702	-2.214612	-0.291399
O	-0.645176	-1.362507	1.759608
C	0.204408	1.504101	-2.04404
H	0.264662	1.498038	-3.138113
H	-0.550806	2.239931	-1.759502
H	1.179158	1.800109	-1.651965
N	-1.532701	-0.171467	-2.120738
H	-1.349266	-0.405537	-3.098021
H	-1.833219	-1.035211	-1.676946
H	-2.095696	0.0	0.0
