15
Coordinates from ORCA-job run
  C   1.01030739293000     -0.71290875987635      0.33488289328499
  C   -0.28591100515826      0.09688800602478      0.46311564148127
  Cl  1.06332984493254     -2.07629556466249      1.49834331493848
  H   -0.35175874642105      0.43236857732140      1.50459826522155
  H   1.06514352642073     -1.16217412441442     -0.66138254699830
  C   2.19644369686845      0.11530982946927      0.54031981751150
  N   3.13202073049177      0.80713704272084      0.69888741874378
  C   -1.50001136072595     -0.76646978330355      0.13387282029195
  H   -1.58241591174121     -1.62979043493854      0.79437100974442
  H   -2.41364621633355     -0.17645551584373      0.23460659847134
  H   -1.44696616215015     -1.12548433232639     -0.89898247208965
  C   -0.22391019316157      1.31688252450198     -0.45580081926672
  H   -0.09682183396655      1.01200161911424     -1.49947339287428
  H   -1.15836250614835      1.87824300754705     -0.38673692957480
  H   0.59355874416314      1.99074790866590     -0.19362161888552
