15
Coordinates from ORCA-job run
  C   1.01522087523998     -0.74572983157181      0.31741907950926
  C   -0.21939880029340     -0.01692022716908     -0.23071865486987
  Cl  1.00305558625684     -0.86532922258107      2.10673381381137
  H   -0.07656450135681     -0.02293034580217     -1.32003910064011
  H   1.02373859560680     -1.77615554872274     -0.04747262058615
  C   2.25250658375472     -0.09585011012920     -0.10898140030863
  N   3.23908574883563      0.41666067984477     -0.48721916211861
  C   -0.29462907506004      1.43176973694633      0.23775324187581
  H   -1.13606665728807      1.93295219261153     -0.24596328317306
  H   -0.44612347335648      1.48568273617295      1.31765446899401
  H   0.61387324428753      1.98518180368710     -0.01095727570416
  C   -1.49616347068172     -0.78900316297796      0.08673122350616
  H   -1.43522684560485     -1.82585912658374     -0.25561057308807
  H   -2.34739671149454     -0.32043743723601     -0.41226046614767
  H   -1.69591109884558     -0.79403213648891      1.15993070893972
