15
Coordinates from ORCA-job run
  C   1.01000610268997     -0.73674384231936      0.20113395535976
  C   -0.22696504796758      0.11911694424722      0.50008453763021
  Cl  1.21500138428355     -2.05594517234214      1.39797172943257
  H   -0.11394377300510      0.49912182778584      1.52205344863736
  H   0.89252260148463     -1.22478758314441     -0.77124260973767
  C   2.23476086981847      0.05993462918612      0.17827535118000
  N   3.20093799338204      0.72711000300220      0.15633352701208
  C   -1.50043687341271     -0.71649922735883      0.41103877814522
  H   -2.36965678644113     -0.09260362482149      0.63061873986953
  H   -1.62540248287781     -1.11934086612986     -0.59919400390884
  H   -1.49711869457353     -1.54871294070581      1.11512628223469
  C   -0.28411915231784      1.29775147393064     -0.47165022037491
  H   -0.33813991893697      0.94609847125551     -1.50694836462399
  H   0.58289341736986      1.95380402344001     -0.37713897253657
  H   -1.17933963949583      1.89269588397435     -0.27746217831941
