15
Coordinates from ORCA-job run
  C   1.00955286127609     -0.70864617300335      0.35143466643821
  C   -0.29186205937057      0.09561326668499      0.45953085197405
  Cl  1.05245258821586     -2.06848425131239      1.51934292290340
  H   -0.37552367500945      0.43011754299938      1.50006065669351
  H   1.08001090242413     -1.16059499073230     -0.64268585036433
  C   2.18965988964855      0.12489360143252      0.56947557081075
  N   3.12073527700453      0.82063783481384      0.73803571147429
  C   -1.49655311650039     -0.77331219767506      0.11078818124621
  H   -2.41460485851001     -0.18786216092058      0.19750725432358
  H   -1.42556935802052     -1.13139174731262     -0.92134528856990
  H   -1.58500988195225     -1.63746109366872      0.76945500161756
  C   -0.22058877592749      1.31627538302535     -0.45780811709717
  H   -0.06984000774045      1.01255894089748     -1.49879798504371
  H   -1.16040264453064      1.87070203784504     -0.40810497594808
  H   0.58654285899260      1.99595400692644     -0.17888860045836
