11
Coordinates from ORCA-job run
  C   -0.95976759549843     -0.20407116584691      0.26577115509689
  C   0.52918443386827     -0.46274890057399      0.44646383109601
  F   -1.62433766355636     -1.32381163048619      0.72771725942430
  H   0.74395587049504     -0.63357089686352      1.50275915018078
  H   -1.27901844650981      0.65605948493696      0.85382845879511
  H   0.86013847438005     -1.31105345718484     -0.14897974198439
  C   -1.29172127640812      0.01634547127357     -1.14835164430943
  N   -1.53726374233527      0.18799735212853     -2.28281990269364
  N   1.32088337765046      0.72792394500689      0.02141255438743
  O   0.84471717126894      1.82797460074338      0.29708671926328
  O   2.39322939664523      0.51895519686613     -0.53288783925634
