11
Coordinates from ORCA-job run
  C   -0.82302015200421     -0.59833010552068     -0.02590755537366
  C   0.68776798273277     -0.44109664511106     -0.11478460961550
  F   -1.14251891283152     -1.76940581281128     -0.68774186366651
  H   1.17526932952994     -1.30386155156922      0.34274561713400
  H   -1.14828142420644     -0.68646954425953      1.01031590117326
  H   1.01652504011082     -0.33502512875958     -1.14690734348856
  C   -1.51561620874596      0.52905918417385     -0.66369678567412
  N   -2.05346279321015      1.43189348642194     -1.18576667645594
  N   1.14761613262346      0.76737655574261      0.63047062656132
  O   0.45336242578332      1.13467716502305      1.57688865462539
  O   2.20235858021797      1.27118239666992      0.26538403478032
