11
Coordinates from ORCA-job run
  C   -0.63440536646221     -0.75580779449334     -0.21743471532766
  C   0.32148369575047     -0.09960095856401      0.75637630909043
  F   0.08865619092040     -1.46598267270643     -1.15082816239061
  H   -0.21147597206406      0.51772746829520      1.48268415561248
  H   -1.24461453389457     -1.47169792974982      0.34402945531146
  H   0.90756572363554     -0.85549145079188      1.27693962030646
  C   -1.54696975770439      0.18308589636656     -0.88460102694908
  N   -2.35243403541654      0.88827419398548     -1.36427926365438
  N   1.31364119617028      0.79297878104606      0.07458071675350
  O   2.37938994277984      0.94484832694788      0.66075415306982
  O   0.97916291628523      1.31966613966431     -0.98022124182242
