11
Coordinates from ORCA-job run
  C   -0.62592298393745     -0.37436283158040     -0.49624088495018
  C   0.25894881694530      0.32116307939579      0.51604215042823
  F   -0.64119753280853      0.36913866397588     -1.65808698314486
  H   0.26226850572550     -0.21160329201845      1.46875413095732
  H   -0.22714992368572     -1.36244326322687     -0.73347214768749
  H   -0.03723424100877      1.35914189879760      0.65457298996832
  C   -1.99048661971636     -0.49233795615104      0.03451714578951
  N   -3.07003156412690     -0.58908157873139      0.48403253655341
  N   1.67277109425569      0.32941981306390      0.02188178811912
  O   2.29949730957768      1.37435861528898      0.15189382183124
  O   2.09953713877957     -0.72339314881400     -0.44289454786462
