11
Coordinates from ORCA-job run
  C   -0.72323608781662     -0.65123928600485     -0.27048780769619
  C   0.43020924943754     -0.29462193838624      0.64322275189392
  F   -0.22436295665180     -1.14254829558174     -1.45713172059683
  H   1.02648377467711     -1.17907361632573      0.86224416153531
  H   -1.29260251195896     -1.45550147930638      0.20811338195261
  H   0.07608715213105      0.15080885326888      1.57538749574664
  C   -1.64915839967487      0.46062602594254     -0.52713015668288
  N   -2.45920020555970      1.29556676054800     -0.67829090442940
  N   1.37130950202676      0.69254269119906      0.02193793352157
  O   2.52775537469123      0.64819121883176      0.42586779488865
  O   0.91571510869825      1.47624906581470     -0.80273293013340
