11
Coordinates from ORCA-job run
  C   -0.71837119562817     -0.66361699720996     -0.25260530766704
  C   0.43523116494623     -0.27630693768548      0.64832148887146
  F   -0.21940996771630     -1.17896983722816     -1.42900522517912
  H   0.08098176437641      0.18662927275640      1.57185291430975
  H   -1.27977215885869     -1.46076143481288      0.24686698508725
  H   1.03990841663795     -1.15057215601646      0.88460296837702
  C   -1.65405395208454      0.43439893849431     -0.53241996857886
  N   -2.47085092191507      1.25942665685475     -0.70078647451515
  N   1.36543376667056      0.70481280723590      0.00136743907327
  O   2.52256309562968      0.68220631475640      0.40520425317594
  O   0.90133998794194      1.46275337285518     -0.84239907295451
