11
Coordinates from ORCA-job run
  C   -0.73087102380401     -0.66044823330578     -0.22369046639787
  C   0.44952273643647     -0.27062986138873      0.64078952979529
  F   -0.26755525026200     -1.19764526491201     -1.40488060346321
  H   1.05231788550788     -1.14704132020036      0.87398788073606
  H   -1.28602506978722     -1.44490398834998      0.30213921937232
  H   0.12386302230612      0.20896506442917      1.56632661874619
  C   -1.66381607495260      0.44199134227912     -0.49505120367259
  N   -2.47800264002479      1.27151991884232     -0.65359926256818
  N   1.37098254060649      0.69187553063233     -0.04501628297873
  O   2.53837001253521      0.66396459336958      0.32771958340477
  O   0.89121386143845      1.44235221860435     -0.88672501297405
