17

C	-0.564899	-0.012686	-1.408539
C	0.0	0.0	0.0
F	-0.156281	-1.1203	-2.099202
H	1.094689	0.0	0.0
N	-1.975914	0.035777	-1.397673
H	-2.33702	0.232863	-2.322347
H	-2.230093	0.757517	-0.728712
N	-0.015589	1.156449	-2.261442
O	0.662007	2.025099	-1.729536
O	-0.361082	1.144757	-3.444742
N	-0.402583	-1.211876	0.699632
H	0.379643	-1.852411	0.653659
H	-1.20744	-1.636389	0.259065
N	-0.569834	1.173757	0.688095
H	0.143488	1.895548	0.669054
H	-0.673171	0.87635	1.650496
H	2.90519	0.0	0.0
