17

C	-0.563903	0.002256	-1.40793
C	0.0	0.0	0.0
F	-0.155981	-1.096611	-2.11226
H	1.094696	0.0	0.0
N	-1.975807	0.050502	-1.397069
H	-2.231791	0.763431	-0.719801
H	-2.336159	0.257371	-2.320071
N	-0.012933	1.179059	-2.248051
O	0.670319	2.037491	-1.703468
O	-0.362998	1.186525	-3.431564
N	-0.398919	-1.221706	0.682962
H	-1.192888	-1.652994	0.22809
H	0.391386	-1.854193	0.647018
N	-0.570915	1.164189	0.7023
H	-0.676766	0.854436	1.660416
H	0.141292	1.88655	0.692527
H	2.904431	0.0	0.0
