17

C	-0.686717	-0.044671	-1.353259
C	0.0	0.0	0.0
F	-0.097502	-1.015382	-2.13661
H	1.095447	0.0	0.0
N	-2.083027	-0.251108	-1.292765
H	-2.570529	0.59928	-1.540158
H	-2.318494	-0.560033	-0.358468
N	-0.405657	1.266365	-2.100615
O	-1.339389	2.049071	-2.280387
O	0.744798	1.435952	-2.472429
N	-0.461973	-1.205388	0.728662
H	-0.207971	-2.006425	0.152805
H	0.164556	-1.267192	1.528356
N	-0.419578	1.20957	0.681723
H	-1.164756	0.998763	1.334206
H	0.381197	1.562869	1.19433
H	2.871917	0.0	0.0
