17

C	-0.566271	0.002427	-1.407049
C	0.0	0.0	0.0
F	-0.153269	-1.09339	-2.113288
H	1.094613	0.0	0.0
N	-1.977698	0.044665	-1.394993
H	-2.235393	0.75548	-0.716193
H	-2.33996	0.253066	-2.317394
N	-0.020804	1.182727	-2.247407
O	-0.374812	1.188202	-3.428601
O	0.662831	2.042929	-1.707003
N	-0.399307	-1.221125	0.685312
H	-1.188767	-1.659148	0.226457
H	0.395493	-1.849776	0.653988
N	-0.570262	1.165731	0.701472
H	0.144861	1.886559	0.696948
H	-0.681767	0.854692	1.659662
H	2.902827	0.0	0.0
