17

C	-0.624763	0.008795	-1.375053
C	0.0	0.0	0.0
F	-2.022426	0.009771	-1.185033
H	1.090317	0.0	0.0
N	-0.205273	1.076817	-2.167484
H	-0.085471	1.875269	-1.556655
H	-0.857386	1.266253	-2.916085
N	-0.34788	-1.28629	-2.134269
O	-1.29563	-1.848428	-2.681232
O	0.819914	-1.633153	-2.183261
N	-0.442524	-1.205114	0.672793
H	-1.39094	-1.11369	1.01805
H	0.189899	-1.395103	1.440479
N	-0.345837	1.290868	0.609411
H	0.371925	1.500273	1.295251
H	-1.248017	1.246329	1.069
H	2.875705	0.0	0.0
