17

C	-0.30258	0.021823	-1.493391
C	0.0	0.0	0.0
F	-0.222124	1.310019	-1.966329
H	1.105699	0.0	0.0
N	0.537082	-0.810721	-2.271973
H	1.483963	-0.654608	-1.909259
H	0.287979	-1.769838	-2.059366
N	-1.763015	-0.383283	-1.726995
O	-2.606403	0.392232	-1.272314
O	-2.014372	-1.44329	-2.289136
N	-0.422782	-1.30967	0.496848
H	0.332925	-1.655809	1.079126
H	-1.222754	-1.161512	1.10449
N	-0.490667	1.121552	0.776024
H	0.26607	1.789535	0.862391
H	-1.262809	1.571431	0.302141
H	2.838579	0.0	0.0
