15

C	0.0	0.0	0.0
C	-0.172785	0.301501	-1.511278
F	1.420442	0.0	0.0
H	0.348713	1.244445	-1.701453
H	0.411566	-0.471408	-2.024357
C	-0.569681	1.053149	0.906088
H	-0.274651	0.854428	1.940701
H	-0.204566	2.041469	0.621135
H	-1.661803	1.011376	0.819297
N	-0.491155	-1.277788	0.320081
H	-0.665366	-1.426622	1.300239
H	0.037534	-2.026086	-0.100584
C	-1.46317	0.368766	-2.192868
N	-2.320521	0.486642	-2.985658
Br	-4.229798	0.0	0.0
