15

C	0.0	0.0	0.0
C	-0.195627	0.170119	-1.531796
F	1.396132	0.0	0.0
H	0.265048	-0.728381	-1.953149
H	0.454597	1.007597	-1.799221
C	-0.439013	1.190177	0.825393
H	-0.078627	1.056214	1.851264
H	-0.019533	2.11868	0.429348
H	-1.529594	1.236049	0.825183
N	-0.497643	-1.269542	0.426102
H	-1.50284	-1.256058	0.228119
H	-0.420166	-1.32353	1.437485
C	-1.450617	0.390963	-2.25324
N	-2.220566	0.618251	-3.110556
Br	-3.792555	0.0	0.0
