15

C	0.0	0.0	0.0
C	-0.478366	0.141344	-1.442597
F	1.417307	0.0	0.0
H	-0.133011	1.092427	-1.859023
H	-1.578117	0.12757	-1.410834
C	-0.481739	1.156278	0.841409
H	-0.126965	1.031558	1.868485
H	-0.082063	2.09551	0.453149
H	-1.574896	1.166769	0.827108
N	-0.461693	-1.231726	0.52215
H	-0.041961	-2.019744	0.046588
H	-0.308808	-1.300118	1.517879
C	0.020606	-0.945521	-2.281059
N	0.408388	-1.830112	-2.948372
Br	-4.031353	0.0	0.0
