15

C	0.0	0.0	0.0
C	-0.436022	0.184131	-1.463352
F	1.395222	0.0	0.0
H	-1.532301	0.227765	-1.46883
H	-0.117096	-0.692357	-2.037781
C	-0.440225	1.15815	0.869054
H	-0.093623	0.96912	1.886649
H	0.006202	2.085147	0.503891
H	-1.528203	1.234812	0.857333
N	-0.464994	-1.234376	0.558981
H	-0.328189	-1.986671	-0.108731
H	-1.472238	-1.139558	0.699821
C	0.129807	1.375361	-2.090434
N	0.581883	2.32967	-2.603504
Br	-3.828649	0.0	0.0
