17
Coordinates from ORCA-job run
  C   0.47214613083131     -0.39555208080427     -0.53733843175829
  C   -0.73960475816260      0.51740789437735     -0.25469174803881
  Br  0.26645161882456     -1.21618442488248     -2.28837895049049
  H   -0.92270216351013      1.10761338298601     -1.15828507676321
  C   0.69669738307928     -1.45265950962905      0.51274052379338
  H   0.81532505467880     -0.96671935184338      1.48281437317902
  H   1.58712372903147     -2.03581714116802      0.28937127231444
  H   -0.16831994799422     -2.11503095593668      0.52653135338352
  N   1.70509310868702      0.49209712816869     -0.66269585714385
  O   2.77558429437487      0.05053504485955     -0.26316008339357
  O   1.53893581037527      1.59387876847129     -1.18314314835827
  N   -0.40393988392931      1.33431603791342      0.91389193081735
  H   0.19296585676699      2.10688157508594      0.64118289820785
  H   -1.25990826260401      1.72691168940256      1.28707069303394
  N   -1.89093345985426     -0.31763224850071     -0.01654758436311
  H   -2.74534125594386      0.17034801941403     -0.24642327866423
  H   -1.92157325465117     -0.59939382791426      0.95606111424431
