17
Coordinates from ORCA-job run
  C   0.43785534939461     -0.40663821331303     -0.52170203846700
  C   -0.65704165883999      0.61780716059116     -0.17076805100031
  Br  0.02404247156729     -1.26004132477901     -2.23260531353013
  H   -0.70531056668945      1.32195039680182     -1.00819151617085
  C   0.66227082386613     -1.45357772124497      0.53734274039114
  H   1.44451536267851     -2.14796907602001      0.23688325581219
  H   -0.27037088741677     -1.99055337322208      0.70367411030703
  H   0.97152311887836     -0.96249967210969      1.46079737055321
  N   1.70846617848457      0.40044299635755     -0.76346226925075
  O   2.73292245672249      0.01788374653366     -0.21122348434099
  O   1.61014421491542      1.37832861202965     -1.49492868524521
  N   -0.19644708891234      1.33275515241884      1.00043139414824
  H   -0.59347505077826      0.91671959100039      1.83378694510985
  H   -0.43898112562341      2.31218858664212      0.96021528377015
  N   -1.90637692861884     -0.08336826051450      0.09646237797976
  H   -2.20423582635519     -0.60138213664789     -0.72291919852899
  H   -2.62150084327314      0.60695353547597      0.29620707846268
