17
Coordinates from ORCA-job run
  C   0.31442749779979     -0.55584089805098     -0.30792028808402
  C   -0.52435719851675      0.59407561066884      0.27823710638332
  Br  -0.83738414445945     -1.90391221553688     -1.08661147157756
  H   0.20044642728790      1.25203589598523      0.77589982210351
  C   1.23486760057408     -1.19017032866979      0.71681549548119
  H   1.80875289780677     -1.99774378875727      0.26111202590557
  H   0.63198309938875     -1.57536982198593      1.53658883240004
  H   1.92149966899970     -0.42968952751700      1.10103928334146
  N   1.22374066275223     -0.00406076342352     -1.40535394150657
  O   1.64362858890138     -0.76664397921141     -2.26204081704298
  O   1.55570774718661      1.17536867684051     -1.27411520834226
  N   -1.37632149591871      0.04633711832872      1.30770546742183
  H   -2.17924029942382     -0.40044484358419      0.87946464542982
  H   -1.69943031115005      0.78329896162039      1.92123270715835
  N   -1.27037359885414      1.26409329339342     -0.77804330624127
  H   -1.98957194430421      1.83748157684578     -0.35503177221306
  H   -0.65837519807008      1.87318503305408     -1.30797858061737
