17
Coordinates from ORCA-job run
  C   0.37123444780891     -0.51742213701044     -0.36573983706709
  C   -0.49765295752570      0.61662594163375      0.21586022279651
  Br  -0.69818144953748     -1.70274653813397     -1.46070453122216
  H   0.21415902478321      1.26938659415520      0.73453876633669
  C   1.07052353375592     -1.32392497063642      0.70839200757392
  H   0.31551063892896     -1.83215027261983      1.30704092348908
  H   1.73121422106544     -2.06838744240620      0.26110732274580
  H   1.66178048207100     -0.65676337013019      1.33895187478771
  N   1.43139580617900      0.16939559440668     -1.22299948740716
  O   1.48565106552150     -0.02214933592845     -2.42626999801897
  O   2.17580653356134      0.90425276730036     -0.57542886119525
  N   -1.46597895426013      0.03742942351800      1.14579866718371
  H   -1.17810591444984      0.17546061050793      2.10590621557202
  H   -2.36752905251907      0.47548764567247      1.01797256413908
  N   -1.04925815970934      1.37891958948633     -0.87236108523434
  H   -1.75424544874918      0.84832501905022     -1.36955482606008
  H   -1.44732381692454      2.24826088113457     -0.54250993841946
