17
Coordinates from ORCA-job run
  C   0.37673478638174     -0.51927016201010     -0.30136771320270
  C   -0.48175648145111      0.62390108788478      0.25953591694096
  Br  -0.75420818002127     -1.78510887534436     -1.25379409051336
  H   0.22934951248110      1.27827746380657      0.77238614487930
  C   1.17876152289282     -1.25344232123682      0.75202665967079
  H   1.80454062469557     -0.53560372463034      1.28483688409427
  H   1.81376052644145     -2.01057650597466      0.28827504195016
  H   0.49572194733404     -1.72416140486345      1.45546338959736
  N   1.35366205648340      0.13149695165650     -1.28037685291795
  O   1.34405938860976     -0.16519338314725     -2.46297467920300
  O   2.10946341955149      0.93535090637846     -0.74096007891172
  N   -1.37419917172563      0.08607400301964      1.27288209552432
  H   -1.77360149708006      0.84509563259817      1.81126319503184
  H   -2.13350331075200     -0.42256997856305      0.83408089735565
  N   -1.02403614747090      1.38373778484323     -0.85038822442089
  H   -1.76247890810982      0.86776294225694     -1.31444905851236
  H   -1.40027008826058      2.26522958332575     -0.52543952736269
