14

C	-0.525224	-0.007902	-1.398993
C	0.0	0.0	0.0
F	-0.288622	1.172661	-2.051627
H	1.09279	0.0	0.0
H	-0.353957	0.914154	0.484124
C	-0.023912	-1.126408	-2.208552
N	0.391259	-2.006544	-2.866001
N	-2.070175	-0.111522	-1.396425
O	-2.608769	-0.688177	-2.336738
O	-2.65184	0.467671	-0.484961
N	-0.458263	-1.237426	0.630576
H	-1.145085	-1.047102	1.347298
H	0.351016	-1.675155	1.058453
H	2.830805	0.0	0.0
