14

C	-0.615998	0.077658	-1.37135
C	0.0	0.0	0.0
F	-1.966122	0.331804	-1.291028
H	1.090382	0.0	0.0
H	-0.31115	0.922783	0.510795
C	-0.023738	1.103691	-2.238209
N	0.450589	1.943579	-2.906953
N	-0.479893	-1.266577	-2.08296
O	-1.488886	-1.945093	-2.198445
O	0.649903	-1.542838	-2.458712
N	-0.433625	-1.225602	0.652858
H	0.371877	-1.600776	1.142576
H	-1.178118	-1.065436	1.314774
H	2.818286	0.0	0.0
