14

C	-0.554077	0.087312	-1.393636
C	0.0	0.0	0.0
F	-1.930278	0.071762	-1.402118
H	1.090663	0.0	0.0
H	-0.362554	-0.94409	0.424349
C	-0.122362	1.274112	-2.142109
N	0.10911	2.231434	-2.779975
N	-0.116805	-1.157654	-2.160617
O	0.92663	-1.083692	-2.793464
O	-0.819752	-2.151363	-2.012082
N	-0.411119	1.196567	0.724277
H	0.411826	1.547701	1.202038
H	-1.129336	0.996035	1.404364
H	2.806543	0.0	0.0
