14

C	-0.508478	0.029954	-1.424614
C	0.0	0.0	0.0
F	-0.05079	-1.020439	-2.142846
H	1.099816	0.0	0.0
H	-0.352734	0.901605	0.505293
C	-1.980699	0.053158	-1.507896
N	-3.154739	0.080817	-1.533309
N	-0.027962	1.309524	-2.117805
O	-0.397621	2.350424	-1.584774
O	0.651703	1.199298	-3.123809
N	-0.491119	-1.233421	0.612322
H	0.323798	-1.802985	0.825556
H	-0.961109	-1.030786	1.484007
H	2.835266	0.0	0.0
