14

C	-0.439608	0.021454	-1.460268
C	0.0	0.0	0.0
F	-0.000718	-1.076413	-2.124768
H	1.094899	0.0	0.0
H	-0.368293	0.912606	0.473116
C	-1.904614	0.091868	-1.612329
N	-3.079161	0.096379	-1.655029
N	0.123882	1.253087	-2.162665
O	-0.265685	2.322644	-1.704561
O	0.877173	1.080948	-3.102819
N	-0.452424	-1.181183	0.707633
H	0.135661	-1.959776	0.439679
H	-1.424669	-1.413393	0.527472
H	2.837151	0.0	0.0
