14

C	-0.590101	-0.000557	-1.394832
C	0.0	0.0	0.0
F	-0.224379	-1.126817	-2.07011
H	1.091218	0.0	0.0
H	-0.326027	-0.945774	0.451177
C	-2.061825	0.073374	-1.376836
N	-3.232078	0.032472	-1.286592
N	-0.086923	1.190085	-2.211462
O	0.946615	1.021473	-2.838491
O	-0.75866	2.216371	-2.15078
N	-0.449382	1.183495	0.718529
H	0.376286	1.640067	1.088456
H	-1.057249	0.947363	1.487294
H	2.818812	0.0	0.0
