14

C	-0.515597	-0.010878	-1.402764
C	0.0	0.0	0.0
F	-0.267653	1.166335	-2.060127
H	1.092778	0.0	0.0
H	-0.355181	0.915092	0.481327
C	-0.012148	-1.135628	-2.201693
N	0.397396	-2.022085	-2.852944
N	-2.061222	-0.109679	-1.416589
O	-2.65249	0.439627	-0.493427
O	-2.590801	-0.652254	-2.382337
N	-0.461065	-1.236415	0.626762
H	-1.158794	-1.049964	1.33333
H	0.343106	-1.672868	1.06438
H	2.8286	0.0	0.0
