14

C	-0.618902	0.064787	-1.368696
C	0.0	0.0	0.0
F	-1.971957	0.312565	-1.290207
H	1.090378	0.0	0.0
H	-0.308886	0.92751	0.502974
C	-0.028595	1.088233	-2.242464
N	0.438078	1.921591	-2.924092
N	-0.478652	-1.282968	-2.075115
O	-1.485519	-1.967623	-2.184143
O	0.651331	-1.55932	-2.451926
N	-0.429856	-1.220058	0.667522
H	-1.16954	-1.051468	1.331503
H	0.379938	-1.587256	1.1564
H	2.808386	0.0	0.0
