15

C	0.0	0.0	0.0
C	-0.298364	-0.008616	-1.516888
F	1.407603	0.0	0.0
H	0.180723	-0.894765	-1.94709
H	-0.334801	-0.95743	0.406074
N	-0.537165	1.044031	0.788484
H	-1.530247	0.822197	0.914287
H	-0.484054	1.909899	0.266117
N	0.562041	1.112019	-2.149247
O	0.403271	2.262764	-1.74608
O	1.322634	0.798717	-3.066716
N	-1.640909	0.18795	-1.873743
H	-2.340776	0.154615	-1.063965
H	-1.934951	-0.464603	-2.586915
H	-3.319818	0.0	0.0
