15

C	0.0	0.0	0.0
C	-0.452641	-0.035909	-1.44719
F	1.41005	0.0	0.0
H	-1.553164	-0.172055	-1.366075
H	-0.317798	-0.921203	0.484513
N	-0.492827	1.108666	0.732041
H	-0.538499	1.903841	0.10191
H	-1.472439	0.864419	0.940152
N	0.121385	-1.291913	-2.092113
O	0.684728	-1.183654	-3.185714
O	-0.020078	-2.354732	-1.491608
N	-0.095021	1.148991	-2.149705
H	-0.504755	1.153622	-3.074186
H	0.912112	1.192946	-2.247496
H	-3.040792	0.0	0.0
