15

C	0.0	0.0	0.0
C	-0.426586	-0.101844	-1.461941
F	1.40488	0.0	0.0
H	-0.025231	-1.034478	-1.875707
H	-0.308717	-0.909099	0.519955
N	-0.536393	1.117473	0.64719
H	-0.344202	1.143323	1.634919
H	-0.318946	1.979726	0.172002
N	0.455299	0.928519	-2.246781
O	0.39962	2.114469	-1.923693
O	1.112008	0.499563	-3.198112
N	-1.780269	0.14421	-1.682177
H	-2.478731	0.171379	-0.853695
H	-2.171077	-0.468149	-2.385074
H	-3.713911	0.0	0.0
