15

C	0.0	0.0	0.0
C	-0.474405	-0.107523	-1.447603
F	1.381854	0.0	0.0
H	-1.567463	-0.239453	-1.375762
H	-0.296779	-0.911659	0.532756
N	-0.546516	1.203147	0.539529
H	-1.57714	1.021985	0.450991
H	-0.355089	1.213764	1.537389
N	0.106993	-1.36707	-2.006499
O	-0.318771	-2.424052	-1.54022
O	0.994003	-1.286722	-2.855633
N	-0.119747	0.999336	-2.294792
H	0.875764	1.167657	-2.188278
H	-0.594932	1.802764	-1.897335
H	-3.008193	0.0	0.0
