15

C	0.0	0.0	0.0
C	-0.453083	0.017429	-1.45182
F	1.418212	0.0	0.0
H	-1.553662	-0.101065	-1.369333
H	-0.319834	-0.939317	0.45058
N	-0.519728	1.085577	0.747612
H	-0.449381	1.911587	0.159327
H	-1.532206	0.860399	0.789651
N	0.083502	-1.225651	-2.142011
O	0.798967	-1.087065	-3.140552
O	-0.239451	-2.311606	-1.662981
N	-0.078559	1.218983	-2.116255
H	0.91685	1.215724	-2.295686
H	-0.562625	1.299241	-3.000011
H	-3.022238	0.0	0.0
