14

C	0.0	0.0	0.0
C	-0.319807	-0.086015	-1.518555
Br	1.933622	0.0	0.0
H	0.437198	-0.733422	-1.964902
H	-1.298525	-0.548362	-1.623125
C	-0.471626	1.1977	0.669031
N	-0.549685	2.257115	1.186637
N	-0.485522	-1.220772	0.710902
O	-0.569171	-1.177049	1.943861
O	-0.470383	-2.262858	0.036524
N	-0.205461	1.250639	-2.090765
H	-0.164163	1.168685	-3.099538
H	-1.047774	1.766202	-1.855702
H	-2.094285	0.0	0.0
