16

C	-0.453446	0.058424	-1.477344
C	0.0	0.0	0.0
Cl	0.202285	-1.475902	-2.255768
H	1.095388	0.0	0.0
N	-1.875191	0.128649	-1.564433
H	-2.162872	0.185117	-2.534774
H	-2.300972	-0.695808	-1.151819
C	0.21246	1.23009	-2.175005
H	-0.009664	1.199764	-3.244827
H	1.294036	1.173618	-2.026532
H	-0.172518	2.16438	-1.756762
C	-0.527591	-1.182539	0.675395
N	-0.991953	-2.134059	1.184295
C	-0.454233	1.203613	0.699698
N	-0.803011	2.178045	1.254868
Cl	3.213011	0.0	0.0
