16

C	-0.350617	-0.043002	-1.509907
C	0.0	0.0	0.0
Cl	0.056579	1.643959	-2.169054
H	1.09731	0.0	0.0
N	0.462326	-1.055858	-2.066671
H	1.440246	-0.917292	-1.808994
H	0.372273	-1.092389	-3.074015
C	-1.821211	-0.26338	-1.800054
H	-2.425559	0.519167	-1.337919
H	-2.120045	-1.239936	-1.412892
H	-1.993629	-0.239475	-2.878997
C	-0.461431	-1.231044	0.643806
N	-0.861668	-2.205571	1.16392
C	-0.552232	1.152932	0.69982
N	-1.029119	2.054598	1.282234
Cl	3.201873	0.0	0.0
