16

C	-0.445377	0.008276	-1.483909
C	0.0	0.0	0.0
Cl	-0.006521	-1.585091	-2.1817
H	1.096289	0.0	0.0
N	-1.890404	0.115563	-1.557555
H	-2.177678	0.038523	-2.526377
H	-2.164667	1.034313	-1.221954
C	0.341226	1.076272	-2.231806
H	1.413351	0.927923	-2.084967
H	0.065224	2.064099	-1.850223
H	0.098782	1.030868	-3.296266
C	-0.527473	-1.142293	0.740411
N	-0.934043	-2.059555	1.349817
C	-0.454918	1.24344	0.623813
N	-0.838363	2.264326	1.061079
Cl	3.219806	0.0	0.0
