16

C	-0.350734	0.023446	-1.498376
C	0.0	0.0	0.0
Cl	-2.147765	0.101321	-1.712514
H	1.097682	0.0	0.0
N	0.20387	1.25133	-2.010992
H	0.038018	1.310972	-3.008263
H	1.207334	1.241239	-1.838751
C	0.14598	-1.247427	-2.172089
H	-0.052662	-1.187559	-3.245125
H	-0.346538	-2.137055	-1.775551
H	1.224025	-1.321047	-2.0008
C	-0.475673	-1.209124	0.665081
N	-0.852423	-2.18902	1.191648
C	-0.485808	1.187433	0.698992
N	-0.87848	2.116602	1.299848
Cl	3.193336	0.0	0.0
