16

C	-0.390958	-0.045017	-1.491409
C	0.0	0.0	0.0
Cl	-2.242442	-0.373851	-1.581718
H	1.097381	0.0	0.0
N	-0.05478	1.179897	-2.095748
H	-0.528693	1.970532	-1.677687
H	-0.218393	1.161511	-3.092976
C	0.303484	-1.203343	-2.175083
H	-0.005178	-2.152156	-1.736149
H	1.38049	-1.068412	-2.041791
H	0.049059	-1.215187	-3.238065
C	-0.447953	-1.187049	0.723639
N	-0.787418	-2.152478	1.299452
C	-0.495338	1.212468	0.643296
N	-0.873584	2.215741	1.123283
Cl	3.20296	0.0	0.0
