12

C	0.0	0.0	0.0
C	-0.520591	0.088264	-1.421368
Cl	1.753105	0.0	0.0
H	-1.618103	0.003295	-1.365371
H	-0.385146	0.783994	0.646373
H	-0.109254	-0.737718	-2.004634
N	-0.418949	-1.305892	0.635568
O	-0.549329	-1.291447	1.852196
O	-0.508822	-2.282095	-0.09864
C	-0.139408	1.359484	-2.022598
N	0.1761	2.383926	-2.501301
Br	-3.564818	0.0	0.0
