12

C	0.0	0.0	0.0
C	-0.558769	-0.083122	-1.404515
Cl	1.760056	0.0	0.0
H	-1.658476	-0.11259	-1.297319
H	-0.370577	0.859374	0.55276
H	-0.211185	-1.001449	-1.881155
N	-0.41649	-1.21294	0.801585
O	-0.511322	-2.276383	0.201285
O	-0.545482	-1.039419	2.006183
C	-0.158771	1.074752	-2.192267
N	0.164601	2.000915	-2.837653
Br	-3.630688	0.0	0.0
