12

C	0.0	0.0	0.0
C	-0.266716	-0.040969	-1.514208
Cl	1.762528	0.0	0.0
H	0.038411	0.946442	-1.87732
H	-0.419273	0.834994	0.547662
H	0.456592	-0.749439	-1.921088
N	-0.397812	-1.264635	0.708706
O	-0.468482	-2.282378	0.031512
O	-0.50492	-1.185518	1.924543
C	-1.516406	-0.390124	-2.188785
N	-2.146163	-0.715149	-3.12977
Br	-3.25539	0.0	0.0
