13

C	-0.441172	0.11482	-1.454312
C	0.0	0.0	0.0
F	-0.071507	1.31392	-1.955972
H	1.096784	0.0	0.0
H	-1.514669	-0.021016	-1.612075
N	0.221611	-0.973133	-2.275812
O	-0.277108	-2.085644	-2.109921
O	1.147461	-0.682799	-3.014055
C	-0.481314	-1.207205	0.642482
N	-0.841904	-2.169556	1.215155
C	-0.450264	1.170458	0.729328
N	-0.759274	2.134021	1.328346
H	2.468342	0.0	0.0
