13

C	-0.398748	0.015041	-1.471958
C	0.0	0.0	0.0
F	-0.202761	1.244096	-2.001159
H	1.096857	0.0	0.0
H	-1.429384	-0.297063	-1.663506
N	0.45091	-0.978654	-2.250989
O	1.068337	-0.578571	-3.223781
O	0.359419	-2.136049	-1.859146
C	-0.49184	-1.166688	0.706853
N	-0.834427	-2.108486	1.323361
C	-0.466199	1.210295	0.648014
N	-0.792405	2.204384	1.186478
H	2.457739	0.0	0.0
