17
Coordinates from ORCA-job run
  C   0.61907879216648      0.43393637381362     -0.51879294616481
  C   -0.62256137117211     -0.41823347089772     -0.23088793406464
  Br  0.06899544513703      1.82198689561987     -1.87051164124724
  H   -0.87771330056778     -0.89931958381294     -1.17817002333828
  N   1.09394353920593      1.27203980489188      0.67537878034033
  O   2.29848894067863      1.27704744444469      0.89220918525384
  O   0.24191776038919      1.89943106152183      1.28277822199461
  N   1.67065891706265     -0.38430197488474     -0.92052377992305
  H   1.45944554763651     -0.91528642065496     -1.75424074296360
  H   2.55385908456708      0.10193911698811     -0.99207125884754
  C   -1.85786209315514      0.20793784517689      0.38818625426357
  H   -2.65511067023477     -0.53916792489292      0.38107966009138
  H   -2.18163851520789      1.06971598981715     -0.19326513256925
  H   -1.66660585149749      0.52208402296022      1.41023654765036
  N   -0.15907535504397     -1.54319008345204      0.65531876532174
  O   0.26765940150480     -1.22322305586850      1.75999190986100
  O   -0.25348027146915     -2.68339604077044      0.21128413434156
