17
Coordinates from ORCA-job run
  C   0.55414636443821      0.63323153049977     -0.17665728643564
  C   -0.44294755009079     -0.50351384856101      0.05277137775679
  Br  -0.04310403481180      2.33331491172892      0.49871562268560
  H   -0.05385026528493     -1.37723189050585     -0.47464753739224
  N   1.89704736450324      0.24759462843239      0.51974772157681
  O   2.22760759666143     -0.91464841122886      0.28862310969855
  O   2.55392711125134      1.08655313602420      1.10780759955004
  N   0.76783834407541      0.75060800026530     -1.58153917264912
  H   1.21682766543858     -0.08684347164967     -1.93828247311507
  H   1.32558780228645      1.56623028022738     -1.80453331673928
  C   -1.85354291024388     -0.19113240397737     -0.41515987039382
  H   -1.81376325657123      0.21708588312025     -1.42446335714345
  H   -2.44196346952032     -1.10824732675996     -0.41468257604473
  H   -2.32911086020111      0.53530220662084      0.24382691751286
  N   -0.49578926898410     -0.94757416721903      1.48816330716733
  O   -1.12794307137853     -1.97891020429382      1.69104266344570
  O   0.06003243843202     -0.26181885272347      2.34126727051966
