17
Coordinates from ORCA-job run
  C   0.60143448692981      0.55251302562034     -0.10012088035422
  C   -0.37487873569241     -0.59289354692876      0.16811640288356
  Br  -0.10044506398643      2.22381785349340      0.70008934771042
  H   0.19567362755156     -1.51370128939551      0.02379919762390
  N   1.98903322461659      0.25412554064523      0.51765862597851
  O   2.30847470446044     -0.92431006166161      0.55688995692410
  O   2.69207533831677      1.21345747508109      0.79439083226133
  N   0.87736949866724      0.66183583531467     -1.48385479015077
  H   0.04804120863421      0.91583478567116     -2.00493666754358
  H   1.58839212815546      1.36742539229356     -1.64640961377781
  C   -1.60348384789916     -0.56646639582389     -0.71464664134328
  H   -2.13014910608440      0.38579684573659     -0.63564537861712
  H   -1.31348795854801     -0.75302666556436     -1.74947441837853
  H   -2.28783716641658     -1.35649602954831     -0.41215858485345
  N   -0.74738310618288     -0.60739376282023      1.63262752167741
  O   -1.91984178960975     -0.81151242471436      1.92794180870181
  O   0.17501255708754     -0.45000657739900      2.42573328125772
