17
Coordinates from ORCA-job run
  C   0.72836213501331      0.17632666848957     -0.59838315650790
  C   -0.72074480706255     -0.22438393892645     -0.29016826200497
  Br  1.14966454859892     -0.01326798014501     -2.49157336726608
  H   -1.36018857379533      0.18901527839959     -1.06768424813277
  N   0.75428295396873      1.73186250519876     -0.36333594515013
  O   -0.10858606775661      2.39497974876315     -0.92176723298733
  O   1.62869745275896      2.14741370215224      0.38710793054401
  N   1.66862468449846     -0.52135026413832      0.15443655436546
  H   2.60697783208162     -0.16617674622022      0.03260530748726
  H   1.42933647928383     -0.58568471794542      1.13413114594282
  C   -1.19415845771723      0.20334243116325      1.08976530289539
  H   -1.24206581961763      1.29081271675844      1.14868929106087
  H   -0.55892947418147     -0.18002155255676      1.88725746602305
  H   -2.20009230194896     -0.18563354493965      1.25692118774797
  N   -0.83106064521101     -1.71717841027029     -0.42048540817153
  O   -0.52855691442167     -2.38794305219249      0.56325763980477
  O   -1.22156302449139     -2.15111284359039     -1.50077420565089
