17
Coordinates from ORCA-job run
  C   0.66897777539169      0.43621840267912     -0.60495974988273
  C   -0.63248310123707     -0.34315791657699     -0.29482503712810
  Br  0.23312815334692      1.68361402468122     -2.05197325741570
  H   -0.92054052091665     -0.82042179523613     -1.23354876424154
  N   1.08127664730727      1.26803817537838      0.62239297390276
  O   0.36018841309868      2.20839460957985      0.91967929432724
  O   2.07640214054704      0.89189993162464      1.23086327884199
  N   1.77810319311216     -0.34939324188169     -0.98098923597610
  H   1.52894694726573     -1.08370074388734     -1.62874952109288
  H   2.28382017426460     -0.70008801159397     -0.17830674896508
  C   -1.80086478183435      0.39401278768092      0.32682457873783
  H   -2.64953526477330     -0.29044845402745      0.39647585371701
  H   -1.55486511058669      0.75452231124435      1.32290090246184
  H   -2.08471133001763      1.24056844657709     -0.29646853545452
  N   -0.23041921573655     -1.48351298789302      0.59674883502783
  O   0.03705928863270     -1.20349307739216      1.76368322771131
  O   -0.17648340786453     -2.60305246095680      0.09125190542884
