17
Coordinates from ORCA-job run
  C   0.66404945663343      0.31642983097307     -0.54654147586397
  C   -0.67842333019634     -0.33883552610272     -0.20117732383486
  Br  0.28694117394550      1.69848824904986     -1.96283029712555
  H   -1.01392610457608     -0.82643995588520     -1.11962802458213
  N   1.27319059456705      1.13904237123072      0.59575892553425
  O   0.52740520647010      1.90531877547172      1.18321003006442
  O   2.47198613090467      0.99112856749840      0.79370841388979
  N   1.58416585577075     -0.65979745663616     -0.91770935739016
  H   1.28673788745511     -1.19319558413612     -1.72317948877830
  H   2.52479700736672     -0.30502462241096     -1.02297109843748
  C   -1.80421929412161      0.48350938860615      0.39690199624868
  H   -2.01592725608420      1.35122882915629     -0.22586929406998
  H   -1.55329854979995      0.81964522555427      1.39883829594125
  H   -2.69717489484016     -0.14480388300984      0.43752704131306
  N   -0.36042786291107     -1.47120290175545      0.73803018320360
  O   0.13315966971001     -1.15932257509936      1.81684003171795
  O   -0.62903569029390     -2.60716873250463      0.35909144216941
