17
Coordinates from ORCA-job run
  C   0.64505750341249      0.54191660542167     -0.15697835826946
  C   -0.38115029913493     -0.56600683331427      0.11227958511172
  Br  0.24775635018106      2.25298474097929      0.77299796608932
  H   0.05747626590755     -1.46862548468232     -0.31724790350394
  N   2.01687774054461      0.13995426710552      0.39693793120663
  O   2.01703674307903     -0.53355174684454      1.41765331206197
  O   2.99806025818607      0.54968106696044     -0.20913569899024
  N   0.79646684322365      0.68519704470682     -1.55256184403827
  H   0.01317612847925      1.18399365686541     -1.95343804588577
  H   1.65510487729398      1.18532185792669     -1.75551852492335
  C   -1.73849506519391     -0.26896486419894     -0.50326723549403
  H   -2.42915556430266     -1.07560701366165     -0.25026113618474
  H   -1.66481996865807     -0.22704308875593     -1.59005658088603
  H   -2.13996989846224      0.66736358825477     -0.11490451903740
  N   -0.61374458515482     -0.92035331626534      1.55538816049126
  O   -0.37845441825901     -2.08378684443158      1.86703531048790
  O   -1.10122291114206     -0.06147363606604      2.28107758176440
