17
Coordinates from ORCA-job run
  C   0.60435679057903      0.56327244980491     -0.24331219024003
  C   -0.50351466515453     -0.44820547707421      0.09167150036259
  Br  0.35087882547452      2.28414405880947      0.58026672325154
  H   -0.22913617369535     -1.36998126271034     -0.42979900653773
  N   1.93093566071390     -0.06574875548617      0.32455459128018
  O   2.34430108532266      0.27169898778481      1.42093081298498
  O   2.41108627740152     -0.92246444570294     -0.41247924274722
  N   0.66443191596628      0.71773495543031     -1.65027140954968
  H   1.00331280063162     -0.14092210676344     -2.07151913627793
  H   1.27394927076069      1.48355731502749     -1.90971622481194
  C   -1.89216801367629      0.01698588522406     -0.28374912639045
  H   -2.60505190213170     -0.79258249760387     -0.11463174725568
  H   -2.18780078894329      0.87184513933622      0.32053343272140
  H   -1.90467881646101      0.29301491236473     -1.33733419559241
  N   -0.44061817960778     -0.82324426888655      1.54717135262532
  O   0.25430531223067     -1.80002756252161      1.82584665762428
  O   -1.07558939941097     -0.13707732703286      2.34183720855276
