17
Coordinates from ORCA-job run
  C   0.68786021359449      0.35446225188255     -0.49102367457223
  C   -0.64253807563255     -0.37040128963162     -0.25581708610953
  Br  0.35340414167676      1.72884956252578     -1.92537662507171
  H   -0.88030022931531     -0.86558315590940     -1.20035271582813
  N   1.16275087869221      1.19631127980393      0.70038597554901
  O   2.34793336414901      1.10627433931893      0.99242581211677
  O   0.33511219776005      1.91933743697498      1.23023874943726
  N   1.68277168844386     -0.57058106921055     -0.79316474331080
  H   1.47716340511314     -1.11262582728886     -1.62118501453541
  H   2.60965522307061     -0.16844595632891     -0.82233173893094
  C   -1.85195907636806      0.38918980720414      0.25597319688678
  H   -2.71256654926189     -0.28308689895763      0.22167399315426
  H   -2.05684836756807      1.25164017953349     -0.37630095483747
  H   -1.69814161794461      0.72729413296916      1.27670265298969
  N   -0.34208668038857     -1.49384252910160      0.69960842231116
  O   0.04778198752181     -1.16730064674068      1.81592615678253
  O   -0.52099250354290     -2.63849161704375      0.29461759396872
