17
Coordinates from ORCA-job run
  C   0.60849492169183      0.36340782602912     -0.61811160733771
  C   -0.66324324415746     -0.39538596990946     -0.17470730914887
  Br  0.17147135524258      1.97931322571262     -1.62292004694347
  H   -0.85307722178684     -1.10967956217583     -0.98253875877963
  N   1.33127312159239      0.92483316376075      0.65086613549160
  O   2.54675847616026      1.02779048248242      0.57228939339651
  O   0.62837305159688      1.24705456232663      1.60081819449499
  N   1.44730149964257     -0.42839622934680     -1.42097636073979
  H   1.70865216670633     -1.26227292763900     -0.90673690449010
  H   2.27859796430707      0.08284082553573     -1.69100475897148
  C   -1.91932573964144      0.39237607667158      0.13069237150720
  H   -2.68897571648528     -0.29142527563463      0.48473075943001
  H   -2.27785193778781      0.87163678369474     -0.77833534358717
  H   -1.73629077312728      1.14528625786739      0.89380772277783
  N   -0.28928292379314     -1.28113671923626      1.00734797223409
  O   0.82242564244398     -1.80927155866244      0.96454850236552
  O   -1.11630064260464     -1.45697096147654      1.88923003830050
