17
Coordinates from ORCA-job run
  C   0.56746456430322      0.55408809708120     -0.27297467487819
  C   -0.45028693772284     -0.48181515539624      0.23098022308356
  Br  -0.12523013715887      2.34703011851088     -0.16154220584695
  H   0.09649149017328     -1.42415661159990      0.33377304264413
  N   1.84292533412148      0.44193588774817      0.64192233968998
  O   2.20570931661582      1.37661468980988      1.33211223792927
  O   2.40062100931675     -0.64537137873859      0.52149891473893
  N   0.91239152897394      0.26080253022158     -1.61862541282813
  H   1.39904975124687     -0.62918868290503     -1.65800953282042
  H   1.49787449179347      0.98686883536833     -2.01366548576379
  C   -1.65911978830341     -0.63177059207307     -0.66338979269850
  H   -2.33864319762443     -1.37065220441347     -0.23728276702077
  H   -2.19355286306056      0.31120649074126     -0.76148322031225
  H   -1.33889672357378     -0.96338660923103     -1.64962050307345
  N   -0.85002803750644     -0.13044266303951      1.64145343272321
  O   0.03388922939642     -0.23676129802154      2.48957045129177
  O   -2.00265903099089      0.23499854593706      1.84528295314157
