17
Coordinates from ORCA-job run
  C   0.70179415728599      0.20530141449014     -0.61920027170987
  C   -0.72517854049219     -0.23735487207018     -0.26836696341434
  Br  1.06329355313210      0.05681062983487     -2.52843828798992
  H   -1.40206269707879      0.17298872579755     -1.01518309068077
  N   0.69839294847244      1.75712385841427     -0.36035276081638
  O   1.59171696093394      2.18369732263851      0.36099465970693
  O   -0.20249565185547      2.40633752105538     -0.87332642859674
  N   1.68410543993277     -0.48042211070371      0.08970630911229
  H   1.48145324550765     -0.56379046075063      1.07620455915986
  H   2.60931803949496     -0.10230361187233     -0.06015573495865
  C   -1.15977316850231      0.15337332541637      1.13509244931789
  H   -1.22722745123079      1.23819303069914      1.21817004663885
  H   -0.49043785805830     -0.23329072219750      1.90249965529162
  H   -2.15156312833635     -0.25944095302533      1.32770479151784
  N   -0.80251322245385     -1.73014454071687     -0.42297028841650
  O   -0.45220911218022     -2.41087650082414      0.53778273876073
  O   -1.21461351457154     -2.15420205618554     -1.49916138292284
