17
Coordinates from ORCA-job run
  C   0.76565755337345      0.28790388104911     -0.35952573192331
  C   -0.68870846689518     -0.18109811482818     -0.32814387856284
  Br  1.48142187109276     -0.10550770642027     -2.21078105492406
  H   -1.22981494874173      0.31620782807315     -1.12890056143111
  N   0.79586866998367      1.82259388246995     -0.32783176012037
  O   -0.20034318590612      2.41665608769159     -0.71966584983939
  O   1.83677917517596      2.32651767258625      0.06872111897298
  N   1.54106656182224     -0.16780861610840      0.69475640135896
  H   2.48330553822667      0.19846975275756      0.67384390713510
  H   1.51120122305387     -1.17641643094897      0.77004208954766
  C   -1.35494285998396      0.02978739302081      1.02170558727057
  H   -2.38880294127229     -0.31865715098189      0.97054455062650
  H   -1.36503299704625      1.09224933993166      1.26513819175561
  H   -0.82565812897957     -0.51039915246349      1.80480292102068
  N   -0.75620307345120     -1.64338039085709     -0.66163186515527
  O   -1.54905323460690     -1.97644915221694     -1.53473437777464
  O   -0.05574075584546     -2.40966912275487      0.00066031204299
