17
Coordinates from ORCA-job run
  C   0.53475096190048      0.71573381231107     -0.07763996014978
  C   -0.29948832791006     -0.56493949758196      0.13964508855714
  Br  -0.38371711847998      2.24796125593540      0.64105463321530
  H   0.37818288770887     -1.40077567685037     -0.05766801382729
  N   1.89823438709203      0.52085877251938      0.62636318123720
  O   2.52614346748797     -0.42590302636202      0.16144264477296
  O   2.26165308992071      1.28481080312127      1.49897519990813
  N   0.89279346394305      0.98679690310096     -1.43551000673427
  H   1.31596414909678      0.17098382662266     -1.86320611884708
  H   0.10035909063368      1.31105756374074     -1.97188622451530
  C   -1.53716831782400     -0.64242173918362     -0.72509076438691
  H   -1.24906553791158     -0.69068910651959     -1.77592702225107
  H   -2.19252973669382      0.21228566835556     -0.56193897744610
  H   -2.09594208079879     -1.54715597648404     -0.48700116007902
  N   -0.64215234870768     -0.69587273821357      1.60000301367097
  O   -1.82374241004355     -0.68080167748036      1.92864941402576
  O   0.31772438058596     -0.80092916703148      2.36073507284934
