17
Coordinates from ORCA-job run
  C   0.70037342828584      0.33953766342860     -0.48320692026533
  C   -0.64214509756393     -0.36682888751419     -0.26158996059134
  Br  0.40476613006363      1.69793291923487     -1.94309296826086
  H   -0.87000861778776     -0.87164449104193     -1.20336674968218
  N   1.16500649988406      1.19403562494198      0.70262633926271
  O   2.34583196551586      1.09959232960352      1.01094190963298
  O   0.33649842304091      1.93093404829440      1.21147765156451
  N   1.68949561065144     -0.59995773235185     -0.75596652125176
  H   2.62058749353795     -0.20766346898780     -0.78280897981348
  H   1.48716654392531     -1.15768904566110     -1.57430786269034
  C   -1.85082864112601      0.41335504302439      0.22080576858800
  H   -2.03269230127422      1.27275692380899     -0.42249815846971
  H   -2.71964313099745     -0.24766792702543      0.17670926786732
  H   -1.71063945942285      0.75867191359404      1.24104001919243
  N   -0.37096373736513     -1.48123926655809      0.71319485580803
  O   0.00200387098768     -1.14523560540297      1.83235686644921
  O   -0.55480898035530     -2.62889004138742      0.31868544265972
