17
Coordinates from ORCA-job run
  C   0.64796064726951      0.49532116758413     -0.27421974463992
  C   -0.53033848946632     -0.40950964294243      0.12078926315255
  Br  0.42783980523100      2.32592087411289      0.27796748177737
  H   -0.26675250982615     -1.41010928628644     -0.23448933282971
  N   1.90147694182431     -0.09907526458101      0.46896183048808
  O   2.37284559174732     -1.08163899693752     -0.09690207735213
  O   2.27257987598438      0.38556324615261      1.52438632515599
  N   0.80740664145651      0.44232975928413     -1.68116237697189
  H   1.47162020833743      1.13615528689218     -2.00165108055681
  H   1.12722304530972     -0.48197464618229     -1.95130723337944
  C   -1.86364222969001      0.04678785704695     -0.42654484086742
  H   -2.15400933099939      0.99970499866498      0.01039987619323
  H   -1.79060018978758      0.14880919270073     -1.50844573721604
  H   -2.62851864729294     -0.69398521246576     -0.18491109392644
  N   -0.58818805956744     -0.55936834527035      1.61655778217801
  O   0.05283886368087     -1.49601192035405      2.09254332661986
  O   -1.25874216421116      0.25208093258123      2.24702763217473
