12
Coordinates from ORCA-job run
  C   1.05254596116252      0.28446548059577      0.15191718546925
  C   -0.22916757066336      0.09765074358431      0.55477869555378
  H   1.80690888960894      0.60818027695889      0.86363580810298
  N   1.48197334985712      0.17727855731382     -1.15049197931739
  H   0.91537444207258     -0.37910210741741     -1.77063271481803
  H   2.47043248604932      0.04505662983185     -1.28106383864279
  C   -1.31847023639030     -0.31706041742830     -0.40249781433993
  H   -1.15905922473931     -1.33511158721191     -0.77553605948604
  H   -1.35549714597836      0.35777086548907     -1.26364859385440
  H   -2.29397044790635     -0.29377767315161      0.08219938413394
  C   -0.54303140302570      0.29850177989095      1.92928086410947
  N   -0.82903910004709      0.45414745154457      3.06105906308916
