12
Coordinates from ORCA-job run
  C   0.77733234251743     -0.00118604601463     -0.61247722632224
  C   -0.33895017575505      0.03542831455634      0.15970869038805
  H   0.66858856850802      0.02066578049548     -1.69427577559874
  N   2.07587439999357      0.02652722418244     -0.16495908500864
  H   2.21462419870223     -0.18108900604798      0.81345031336322
  H   2.76302549396267     -0.38778366732338     -0.77180322515964
  C   -1.73349425978977      0.12186847953512     -0.39968810260039
  H   -2.34759575386823     -0.71828204796452     -0.06498366272206
  H   -1.70259531953516      0.10928667967871     -1.49146560321851
  H   -2.23156220614785      1.04318384341690     -0.08539803202964
  C   -0.16701125605548     -0.00953357029278      1.57485714501492
  N   0.02176396746762     -0.06008598422170      2.73703456389369
