12
Coordinates from ORCA-job run
  C   1.08748205478753     -0.04785430446250      0.16649197782053
  C   -0.20372165833436      0.04856729259862      0.57119407674647
  H   1.88863787945867     -0.08645843316424      0.89913023491309
  N   1.49487910004549     -0.01805937572028     -1.14696093382312
  H   0.80904700651654     -0.26954042578247     -1.84077296874607
  H   2.41134927395913     -0.38781825009081     -1.33432187552425
  C   -1.34638883406041      0.13970105615667     -0.40909482667550
  H   -2.28582231707629      0.34264360340692      0.10438516316025
  H   -1.47092946196476     -0.79479938771075     -0.96794518591823
  H   -1.17663251917109      0.94596979225825     -1.12981859299457
  C   -0.47615225550088      0.06008350958652      1.96887211281435
  N   -0.72974826865958      0.06656492292408      3.11884081822704
