12
Coordinates from ORCA-job run
  C   0.76066191342757     -0.20254745343556     -0.60115890264086
  C   -0.33738582413929      0.04316372087749      0.15859175779814
  H   0.64018567470602     -0.32704913359681     -1.67469702401195
  N   2.03897443509999     -0.40550104115672     -0.13974606218382
  H   2.22112408017172     -0.11294625818066      0.80950689595967
  H   2.78148464301188     -0.18763906140321     -0.78262391764755
  C   -1.73100184460415      0.13915850970907     -0.40118164993780
  H   -2.18045728849759      1.11134377274872     -0.18272407401691
  H   -1.71113107095543      0.00801683616904     -1.48525212765631
  H   -2.38263821305661     -0.63010547408103      0.02160792203317
  C   -0.14896465780116      0.21147219878112      1.56229171607154
  N   0.04914815263704      0.35263338356855      2.71538546623268
