12
Coordinates from ORCA-job run
  C   1.01276323755352     -0.41731048353321      0.11463679848248
  C   -0.26726058501914     -0.20053848996323      0.50809520221807
  H   1.69423560901961     -0.97159598780894      0.75373785967855
  N   1.52232780545370     -0.05131716721991     -1.10967181876265
  H   2.52454167553373      0.00753643029773     -1.17112049483272
  H   1.04584296520235      0.69342470734157     -1.59265971981392
  C   -1.26032681808157      0.53104312336375     -0.36019927331436
  H   -0.99385382586600      1.58786943545965     -0.47420266423229
  H   -1.30500277279580      0.08305520943772     -1.35811200700765
  H   -2.26048608833123      0.48898911873132      0.07003010511035
  C   -0.67548224641238     -0.68323261484338      1.78437317665257
  N   -1.03929895625679     -1.06792328126306      2.83609283582157
