12
Coordinates from ORCA-job run
  C   1.04733729200853     -0.31194910174324      0.13690884919052
  C   -0.24978085464636     -0.19927892636687      0.51798315988494
  H   1.77592021987009     -0.76347009465613      0.80429495402888
  N   1.52533617055439      0.03542667764649     -1.10558636412235
  H   2.51707873672631      0.19049416847968     -1.16933746083178
  H   0.98004814518099      0.70000557140403     -1.63113002959544
  C   -1.30270344159704      0.38981866877407     -0.38721601970789
  H   -2.29666944671908      0.27863516069437      0.04508602738875
  H   -1.30220472923784     -0.11137936259859     -1.36058204944574
  H   -1.13357726491812      1.45944183959840     -0.55612458350421
  C   -0.61598232670232     -0.65265030910601      1.81745451322932
  N   -0.94480250051955     -1.01609429212621      2.88824900348500
