12
Coordinates from ORCA-job run
  C   0.78104203651421     -0.21703153764656     -0.56885085234787
  C   -0.34227523694776      0.03870758103894      0.14959196043643
  H   0.68608014386289     -0.45193017611961     -1.62641627793248
  N   2.06017081978176     -0.30464161706935     -0.07409388030476
  H   2.20849144988710      0.08510644612026      0.84568922628088
  H   2.80013842005310     -0.10323705244174     -0.72504372273343
  C   -1.72869103851765      0.00212549492611     -0.43440048378324
  H   -2.23350781851412      0.96486846912567     -0.31982055733907
  H   -1.68221188700733     -0.23430944804221     -1.49971393292489
  H   -2.34595429591916     -0.75627267928359      0.05470670451525
  C   -0.18718103255956      0.35572784235053      1.53164222592476
  N   -0.01410156063348      0.62088667704154      2.66670959020843
