12
Coordinates from ORCA-job run
  C   1.06863975708436      0.16845867995213      0.20678091660486
  C   -0.23440224694895      0.03798843164586      0.56056226998841
  H   1.82924042684835      0.32284233091905      0.96681743554568
  N   1.52072182989058      0.20790986592523     -1.09226648949579
  H   0.92506447715329     -0.20840577000331     -1.79030987274556
  H   2.49659598958044      0.00381019085196     -1.22567609413788
  C   -1.32778363956629     -0.14250927807993     -0.46284588193718
  H   -1.23927489498544     -1.10561666749926     -0.97815648195575
  H   -1.28816969463944      0.65018883005612     -1.21687353027642
  H   -2.31088598129462     -0.10932837565149      0.00557264541546
  C   -0.56821911417027      0.07572362173807      1.94443555158495
  N   -0.87152690895199      0.09993814014558      3.08195953140922
