12
Coordinates from ORCA-job run
  C   0.91813112426765      0.24452831087459     -0.27994540631909
  C   -0.36166177666153     -0.00156544573695      0.10104630689895
  H   1.14820469579381      1.18624586320531     -0.77285658497397
  N   2.00913163079952     -0.55105273358214     -0.02472881220196
  H   2.77507218456496     -0.47329705810026     -0.67218053294360
  H   1.81132455190091     -1.49885946719159      0.26229588218091
  C   -1.49233928040003      0.96956911583279     -0.10666308442793
  H   -2.29122682265968      0.52513994273362     -0.70606092276697
  H   -1.92750844447349      1.28360397105692      0.84589131500419
  H   -1.13288043639902      1.86100831752974     -0.62529420742691
  C   -0.63639616255474     -1.24985282424358      0.73432138557259
  N   -0.82184990196849     -2.29546750358824      1.24517462329261
