12
Coordinates from ORCA-job run
  C   0.78148911603977     -0.06232031916607     -0.60531471329421
  C   -0.33867171625758      0.04938853447416      0.15353391743890
  H   0.67945729934332     -0.13995410844857     -1.68528387808806
  N   2.07867925686361      0.00450607049132     -0.15556848329959
  H   2.21025715493721     -0.11371488984556      0.83881122648149
  H   2.76275111392989     -0.47792099135992     -0.71362785698134
  C   -1.72966271316345      0.09317280371100     -0.41939486474390
  H   -2.35247132643988     -0.70688995875573     -0.01130513017370
  H   -2.22159228977633      1.04335977262120     -0.19472832160283
  H   -1.69424351292382     -0.02157406380889     -1.50483336626455
  C   -0.17598511368005      0.13605551439863      1.56811812748066
  N   0.00099273112729      0.19589163568843      2.73159334304715
