12
Coordinates from ORCA-job run
  C   1.06163851519882     -0.22640425443714      0.18648985459427
  C   -0.25393630728827     -0.19903349372319      0.51606139147076
  H   1.78509850185311     -0.67447122086509      0.86164179550115
  N   1.59375223191478      0.36275899783489     -0.93742374193870
  H   2.49683670133772      0.02614366721298     -1.22556846419905
  H   0.96183291016381      0.52267937771348     -1.70594066180896
  C   -1.28950147820124      0.44321556115222     -0.37302419302911
  H   -2.26169718070612      0.47292713741864      0.11789854045832
  H   -1.00591369108048      1.47181536166255     -0.61821531046854
  H   -1.41024250237420     -0.10878278899543     -1.31202156470613
  C   -0.65801783847825     -0.79921363801226      1.74273584969582
  N   -1.01984986233968     -1.29163470696166      2.74936650443018
