12
Coordinates from ORCA-job run
  C   1.04582679097790     -0.33015047259085      0.10307370194602
  C   -0.22417745174642     -0.15177223378906      0.54503129071238
  H   1.77951665734206     -0.82545757864347      0.73271023735767
  N   1.52867206243485      0.15633661724982     -1.09011441379954
  H   2.36238731495699     -0.28434231012801     -1.44040434815003
  H   0.84765704812879      0.35135437226047     -1.80676150444373
  C   -1.26631365823208      0.56208131734896     -0.27933382687389
  H   -2.18160842516321      0.71144157968933      0.29247075180190
  H   -1.52722521584295     -0.00839836610604     -1.17793106539139
  H   -0.90389385343648      1.54553742725532     -0.59563831677882
  C   -0.57247536096522     -0.65768265295870      1.82982417170495
  N   -0.88836590845422     -1.06894769958776      2.88707332191447
