12
Coordinates from ORCA-job run
  C   1.03741404032022     -0.36906508498590      0.00683815944688
  C   -0.24348747187023     -0.32797405954047      0.45138945376931
  H   1.76504895120606     -1.01127369809133      0.49490023792000
  N   1.49505774434852      0.29659260231645     -1.10700167700992
  H   2.49026893981631      0.43210539127036     -1.16148404437906
  H   0.96383165231395      1.09959333047423     -1.40396919825479
  C   -1.29604042704565      0.52110598327429     -0.21659737082594
  H   -1.33781926989771      0.31179712508221     -1.29033719923772
  H   -1.09176999416449      1.59010382693698     -0.08749341404964
  H   -2.28235379592623      0.32214697650910      0.20124820727378
  C   -0.59301608838804     -1.11396157333385      1.58635270448620
  N   -0.90813428071272     -1.75117081991208      2.52515414086091
