12
Coordinates from ORCA-job run
  C   0.99462337180691     -0.47178338155020     -0.03603971857805
  C   -0.26269156853405     -0.31594583811767      0.44857340041915
  H   1.66616239335098     -1.19967515244997      0.41029669144330
  N   1.48711477974568      0.18000597891671     -1.14316044239171
  H   1.03146990518694      1.04100495582425     -1.40074747656645
  H   2.48905172491980      0.21728896147359     -1.22387976197182
  C   -1.24156115665285      0.65669846166906     -0.16042928634738
  H   -1.33659069867170      0.48699792204817     -1.23783126756878
  H   -0.92475628275142      1.69451626835220     -0.00696442992825
  H   -2.23026032722936      0.54567194682420      0.28365722146909
  C   -0.65918030153584     -1.10036404629681      1.56905810401331
  N   -1.01138183963509     -1.73341607669353      2.49746696600757
