10
Coordinates from ORCA-job run
  C   0.48821396388452     -0.53240559175059      0.18089723146672
  C   -0.45292468120695      0.59679853505351     -0.26154985771672
  Br  -0.04408173637782     -1.23703165757639      1.91679258281365
  H   -0.45859809354476      1.38763631963260      0.49255233126550
  H   0.43190725562830     -1.37252200031908     -0.51397880681448
  H   -0.07512790524326      1.02555957492043     -1.19566824541425
  C   1.86074893659288     -0.04820643780091      0.24732382267780
  N   2.95884500448453      0.36848389538121      0.27452823263694
  C   -1.81243254108384      0.10790787775017     -0.47539347527028
  N   -2.89755020313359     -0.29622051529095     -0.66350381564488
