10
Coordinates from ORCA-job run
  C   0.47616026053660     -0.55591395503401      0.14743103892483
  C   -0.44076098933547      0.61596105558467     -0.23009624364218
  Br  -0.00606199910869     -1.27876717399864      1.89041802026808
  H   -0.38183659429079      1.39062635651572      0.53840617080927
  H   0.35962089275127     -1.37822227055692     -0.56105161597162
  H   -0.08904464945039      1.04962597305065     -1.17210570047137
  C   1.86643375501351     -0.12030061657241      0.16366546984554
  N   2.97665926542096      0.26336301025683      0.15132483413310
  C   -1.82667786964186      0.18444232904851     -0.39075965902023
  N   -2.93549207189516     -0.16981470829441     -0.53723231487582
