10
Coordinates from ORCA-job run
  C   0.63670301417387     -0.38674814891394     -0.03658237199492
  C   -0.61926184993475      0.49389182816391      0.02106464086093
  Br  0.27654951159019     -2.15436054505376      0.69856781774685
  H   -0.96933524570933      0.56720115146102      1.05369780252634
  H   0.94442905061470     -0.54930339642859     -1.07129769612985
  H   -0.35977084750709      1.50215155641179     -0.31827707187956
  C   1.72510040440919      0.23904508609980      0.70288983850612
  N   2.58321891907792      0.77941495976941      1.29578163230664
  C   -1.68558991273309     -0.03607373133598     -0.82445740577874
  N   -2.53204304398162     -0.45521876017366     -1.52038718616381
