10
Coordinates from ORCA-job run
  C   0.54428411235532     -0.49004594112075      0.14626355838199
  C   -0.52089484224825      0.54833307244276     -0.23269726205488
  Br  0.24845222910826     -1.15854764645927      1.95153237888182
  H   -0.27611608582864      0.96164223491440     -1.21678387743925
  H   0.48228037555398     -1.36028390235729     -0.50993805855582
  H   -0.50702848005566      1.36897501893604      0.48874204354910
  C   1.87430227533562      0.09733029406150      0.05151930699318
  N   2.92992032901714      0.60187426263192     -0.05362276791908
  C   -1.85504519110687     -0.04366975979622     -0.28227982972252
  N   -2.92215472213089     -0.52760763325307     -0.34173549211454
