10
Coordinates from ORCA-job run
  C   0.57226353830998     -0.65378791565585      0.13080735667953
  C   -0.73885707734527     -0.19104664806875     -0.51594798837779
  Br  0.27586348058641     -1.19820719311990      1.97732180208043
  H   -1.46743212682893     -1.00409476294615     -0.46489962963345
  H   0.93331558924583     -1.54421605059837     -0.38783897036654
  H   -0.54874114350950      0.02903334878561     -1.57186562836014
  C   1.59517643678127      0.38214045014152      0.07582300540101
  N   2.40762731127811      1.22679394865876     -0.00600066241700
  C   -1.29172111321991      0.99744128058563      0.12827575133028
  N   -1.73749489529799      1.95694354221749      0.63532496366367
