10
Coordinates from ORCA-job run
  C   0.62474103843947     -0.54977372827408     -0.00263364498971
  C   -0.86428949189150     -0.20328944000038     -0.14265505602800
  Br  0.80060556591174     -2.34379717610115      0.74027825794653
  H   -1.33478751827510     -0.19350177814724      0.84350573239504
  H   1.10246253785556     -0.58126898555956     -0.98346132800700
  H   -1.35584078206855     -0.97239739988951     -0.74325137939460
  C   1.32351720548100      0.40453214509765      0.84745551963057
  N   1.87174590738500      1.19146060208262      1.52610136529309
  C   -1.02848242036249      1.10041017400666     -0.78443643079107
  N   -1.14067204247507      2.14762558678499     -1.30190303605482
