10
Coordinates from ORCA-job run
  C   0.57744400925631     -0.64963994533742      0.12365236407275
  C   -0.71620552720262     -0.17956052345425     -0.55242161256825
  Br  0.22146710747664     -1.27581498513829      1.93348063010054
  H   -1.43276916803881     -1.00467594892216     -0.56260518828335
  H   0.97169708644957     -1.51223418085689     -0.41738466823961
  H   -0.49043643722742      0.08706484093673     -1.59045440311706
  C   1.58499149739206      0.40223049444955      0.15097457989574
  N   2.38762045902194      1.26003621167321      0.14211682813093
  C   -1.31153332939980      0.97264508828545      0.11917752663898
  N   -1.79227569772785      1.89994894836410      0.65346394336929
