16

C	-0.526069	-0.036959	-1.43838
C	0.0	0.0	0.0
Cl	0.193155	-1.335232	-2.394712
H	1.094452	0.0	0.0
H	-1.609044	-0.171858	-1.452298
N	-0.319872	1.283039	-2.138177
O	-1.307354	2.023644	-2.144689
O	0.784448	1.552556	-2.584602
N	-0.414415	-1.196909	0.724629
H	0.193894	-1.965233	0.471418
H	-1.369883	-1.454085	0.500592
C	-0.501088	1.24368	0.720079
H	-0.161039	1.174609	1.753367
H	-0.091513	2.156653	0.284776
H	-1.595284	1.311008	0.711156
Cl	3.443442	0.0	0.0
