16

C	-0.438463	-0.057784	-1.462652
C	0.0	0.0	0.0
Cl	0.335184	1.16186	-2.466174
H	1.094325	0.0	0.0
H	-0.226598	-1.043899	-1.864732
N	-1.939066	0.098574	-1.53914
O	-2.586077	-0.939882	-1.413046
O	-2.420268	1.224075	-1.629998
N	-0.411034	-1.248021	0.638301
H	0.302782	-1.510273	1.303035
H	-1.291082	-1.142721	1.128139
C	-0.475434	1.258441	0.715659
H	-1.561776	1.25784	0.859919
H	0.007278	1.295547	1.694588
H	-0.201258	2.162983	0.169827
Cl	3.389108	0.0	0.0
