18

C	-0.370065	-0.064144	-1.504545
C	0.0	0.0	0.0
Cl	-0.009886	1.510096	-2.323962
H	1.096913	0.0	0.0
C	0.455453	-1.139118	-2.204932
H	1.505589	-0.951194	-1.955822
H	0.296421	-1.110613	-3.284822
H	0.170492	-2.124684	-1.831947
C	-1.80936	-0.294943	-1.673637
N	-2.959806	-0.526676	-1.757048
N	-0.378733	-1.23461	0.683125
H	0.343612	-1.928907	0.542062
H	-1.274688	-1.600083	0.378089
C	-0.582255	1.190876	0.733777
H	-1.679346	1.175537	0.721002
H	-0.23435	2.136371	0.317162
H	-0.252051	1.12466	1.771426
H	2.937411	0.0	0.0
