18

C	-0.320772	0.017414	-1.497421
C	0.0	0.0	0.0
Cl	-2.145992	0.130617	-1.794647
H	1.098218	0.0	0.0
C	0.370425	1.156221	-2.224489
H	0.257143	1.061441	-3.306218
H	1.430679	1.110694	-1.940895
H	-0.050967	2.110222	-1.907997
C	0.061396	-1.265102	-2.093297
N	0.346918	-2.295387	-2.58102
N	-0.459764	-1.189155	0.698656
H	0.153875	-1.962877	0.467017
H	-1.405318	-1.42986	0.419346
C	-0.457908	1.251759	0.72806
H	-1.547392	1.358427	0.727145
H	-0.007036	2.153665	0.309067
H	-0.116361	1.156591	1.759777
H	2.864546	0.0	0.0
