18

C	-0.473434	0.037268	-1.472456
C	0.0	0.0	0.0
Cl	0.125718	-1.435321	-2.339371
H	1.095669	0.0	0.0
C	-1.991858	0.068006	-1.643741
H	-2.443426	-0.79451	-1.148994
H	-2.256921	0.03185	-2.701919
H	-2.39673	0.983653	-1.207817
C	0.087361	1.200514	-2.165742
N	0.43976	2.18114	-2.709509
N	-0.381591	-1.207935	0.716722
H	0.344766	-1.899818	0.559444
H	-1.263181	-1.594053	0.400555
C	-0.485603	1.230976	0.753656
H	0.059803	1.255952	1.698896
H	-1.557118	1.183603	0.979372
H	-0.269032	2.158346	0.215496
H	2.874004	0.0	0.0
