12
Coordinates from ORCA-job run
  C   -0.47308510811643      0.14884037266625     -0.40298007437053
  C   0.97941276703912      0.44716682726830     -0.00957466866389
  Cl  -0.58248458124359     -0.48522269938274     -2.03116987718351
  H   1.38535247416530      1.18073637494778     -0.71051599780391
  H   0.98399086655659      0.88001000480825      0.99404808439466
  N   -1.00087753009602     -0.89087119394586      0.63018688260447
  O   -1.04770413829391     -0.44534774012201      1.76866242111279
  O   -1.27123001701312     -2.01196198900217      0.24621853819969
  C   -1.29209642986947      1.34605641015018     -0.25968662116191
  N   -1.92006609853030      2.33455048941701     -0.15887134024157
  C   1.79187116108195     -0.76529458038333     -0.02996264019196
  N   2.44591663431987     -1.73966227642167     -0.03535470669433
