12
Coordinates from ORCA-job run
  C   -0.54981031695761      0.08035833127601     -0.38686246317274
  C   0.91663306621483     -0.25257782789189     -0.64696308073829
  Cl  -1.51436861889567     -0.35364246676261     -1.80651201425526
  H   1.25336085022811      0.33222967479189     -1.50700421904807
  H   0.99574362527588     -1.31351686789351     -0.89013858351863
  N   -1.07517783870175     -0.78361346711840      0.78166423838440
  O   -0.56862456077077     -1.89000462129521      0.89136017795802
  O   -1.97862246893178     -0.30174836652213      1.44726406916333
  C   -0.74810461736478      1.48234165271852     -0.05017924875764
  N   -0.85346676798016      2.62994935762960      0.18185133778272
  C   1.73565991767824      0.05664560045209      0.52168446560673
  N   2.38477773020546      0.31457900061564      1.46483532059544
