12
Coordinates from ORCA-job run
  C   -0.50215478043864      0.11991520804792     -0.37673418131249
  C   0.97346417872862      0.44631306996828     -0.11266136794218
  Cl  -0.72583485370181     -0.62844753122858     -1.94371839201375
  H   1.32304925527650      1.12909260781836     -0.89099364352997
  H   1.04889780212973      0.94852288500267      0.85517845295720
  N   -0.94686074051358     -0.84459705993585      0.76322238079565
  O   -1.23674091517890     -1.99054901156348      0.48016966046285
  O   -0.91381404997122     -0.31943629956193      1.86769082814604
  C   -1.31617058286876      1.32319095205065     -0.25922030476249
  N   -1.93995918208591      2.31655667494854     -0.18294936951634
  C   1.78869609643710     -0.76439084766174     -0.10698074711409
  N   2.44642777218686     -1.73617064788484     -0.09200331617043
