12
Coordinates from ORCA-job run
  C   -0.47201355023273      0.09618149248884     -0.27586523615751
  C   0.94958579661991     -0.38515021992158      0.04556362354455
  Cl  -0.72743813588075      0.21301599233170     -2.00375371171278
  H   1.03703132600176     -0.50548707748682      1.12891566774166
  H   1.09822440073667     -1.35750012214704     -0.43442040171837
  N   -1.40943958620581     -0.98087514156457      0.34685984712367
  O   -1.39765491885685     -0.98077619559325      1.57019902933134
  O   -2.00743578570046     -1.73327328576567     -0.39895486452378
  C   -0.77919546980592      1.36142593779212      0.37707951900692
  N   -1.00244672750064      2.39315851663763      0.89445149973280
  C   1.94973761417495      0.56100368499045     -0.43395221097625
  N   2.76004503664989      1.31927641823820     -0.81512276139227
