12
Coordinates from ORCA-job run
  C   -0.49922176889975      0.14388696477976     -0.37294078508699
  C   0.98614350073645      0.41754442461715     -0.10385229595306
  Cl  -0.74840164759003     -0.55836292179316     -1.95723288369373
  H   1.35557471443374      1.10808540290594     -0.86606345528997
  H   1.07767634585934      0.89387180292878      0.87564383511918
  N   -0.97293107661439     -0.83332168672346      0.74394247340241
  O   -0.92188633227609     -0.33659844590467      1.86085893997859
  O   -1.29991308250120     -1.96208239299511      0.43367517837632
  C   -1.27381373082173      1.36965605611728     -0.22446870848660
  N   -1.86447282623120      2.38081305348664     -0.12306770520204
  C   1.76494016840756     -0.81660104038478     -0.12875349666004
  N   2.39630573549730     -1.80589121703437     -0.13774109650408
