12
Coordinates from ORCA-job run
  C   -0.53453980032446      0.08468821780967     -0.41260493694812
  C   0.92916208128673     -0.30450706583578     -0.60355479188708
  Cl  -1.45939989133427     -0.37061305472503     -1.85128888578753
  H   1.31986741772146      0.23945095830078     -1.46755576781976
  H   0.98047175052445     -1.37509316360953     -0.80863644746657
  N   -1.12473636295753     -0.72091938250288      0.76703441187421
  O   -1.98498356160078     -0.16412637176183      1.43115354184652
  O   -0.70038594627855     -1.85973398662254      0.88983203813107
  C   -0.69726095042078      1.50379149939088     -0.13399225671310
  N   -0.76916855405021      2.66180653143746      0.05559835388880
  C   1.71080504344375      0.01749013239141      0.58709367851923
  N   2.33116877399018      0.28776568572739      1.54592106236232
