12
Coordinates from ORCA-job run
  C   -0.46404436639388      0.25073847829537     -0.36158705808613
  C   1.01008234998013      0.37269815119524      0.04585975887124
  Cl  -0.63448619950144     -0.07812604170744     -2.07272257576483
  H   1.05461700881453      0.62329176639029      1.10886118031819
  H   1.46273083108418      1.18631971563717     -0.52627013098461
  N   -1.05641077969119     -0.91497464255034      0.48538481205404
  O   -1.41291818265881     -1.92860397683801     -0.08278412673884
  O   -1.05981084789333     -0.67495300606237      1.68503787407612
  C   -1.19265471427391      1.45826725421231      0.00677148652055
  N   -1.74667429044694      2.45480380743295      0.29250282454495
  C   1.73028472661806     -0.87300724390797     -0.19899758993045
  N   2.31028446436260     -1.87645426209719     -0.38305645488023
