12
Coordinates from ORCA-job run
  C   -0.45749231754711      0.10445348260684     -0.21511611132032
  C   0.95511564681515     -0.43573891463892      0.00669707788041
  Cl  -0.80346563300740      0.26879142652928     -1.94102103010021
  H   1.05357434853509     -1.37971171909639     -0.53171141834849
  H   1.09271610730437     -0.63469944458678      1.07441221415316
  N   -1.46418107269692     -0.92646270794239      0.34318100035899
  O   -1.12923059709704     -2.09876830707050      0.25185257702077
  O   -2.51192455605266     -0.48062262852085      0.78387284040919
  C   -0.67276605092847      1.37131327133104      0.46900634617091
  N   -0.78316861556334      2.40067219676696      1.02615506719886
  C   1.95510715161883      0.52229377645058     -0.45051655083275
  N   2.76671558861952      1.28747956817112     -0.81481201259051
