12
Coordinates from ORCA-job run
  C   -0.55414895767710     -0.01377503173031     -0.42268948908680
  C   0.95507290840572     -0.27408204755353     -0.54245613443278
  Cl  -1.34489374831205     -0.51309277237802     -1.91195800664587
  H   1.11809269243145     -1.35563556454880     -0.55999904549406
  H   1.27662117463622      0.12455495563211     -1.50823571889994
  N   -1.11979823699622     -0.84531045414151      0.77004365396286
  O   -0.42142641019973     -0.79915111878058      1.77248806565787
  O   -2.17912477728197     -1.42392568160934      0.61902426432656
  C   -0.85681564071562      1.38005674859819     -0.12604138741472
  N   -1.09028149073359      2.50808424846614      0.11038376328669
  C   1.75972353237252      0.34605147511295      0.50547841559425
  N   2.45597895407036      0.86622524293271      1.29396161914594
