12
Coordinates from ORCA-job run
  C   -0.51067616114984      0.09834313893594     -0.37143660465873
  C   1.00426307328241      0.30387576861847     -0.24239589592876
  Cl  -0.90893217281839     -0.91389519036585     -1.74322748398912
  H   1.19140289855079      0.97542900366353      0.59937415244854
  H   1.36967611200629      0.77681113523759     -1.15725680444118
  N   -0.97604559574249     -0.56703033368002      0.95819253483911
  O   -0.81933391816502      0.15804558330632      1.93103973764227
  O   -1.39785175771709     -1.70656158840406      0.92586863852468
  C   -1.18959417281690      1.38476311138593     -0.46530583345034
  N   -1.70487979451104      2.43652935608484     -0.56524572382008
  C   1.69273121261185     -0.96480334099741     -0.02628233847329
  N   2.24924027646939     -1.98150664378531      0.15767562130697
