12
Coordinates from ORCA-job run
  C   -0.48144289325585      0.11257568952665     -0.26444170570634
  C   0.93366790471489     -0.40388025289582      0.03008984253473
  Cl  -0.75959901618165      0.24542917770935     -1.99062203929063
  H   1.03102029772479     -0.55042283407581      1.11076057834598
  H   1.05455661446154     -1.36757995205869     -0.47365217406557
  N   -1.41816683600615     -0.96353093310640      0.34953943431999
  O   -1.72808596706935     -1.90196786986803     -0.36237516940089
  O   -1.67676835533901     -0.79685436652126      1.53328804868068
  C   -0.75034904538696      1.38150515670651      0.39628519445575
  N   -0.92338057364480      2.42503214774247      0.90922501839493
  C   1.94864248769257      0.53386310803134     -0.43445212985856
  N   2.77090538228999      1.28583092880968     -0.80264489841008
