12
Coordinates from ORCA-job run
  C   -0.54144737546020      0.06977439461524     -0.40840323091886
  C   0.92427191253251     -0.30901755405551     -0.60743950084544
  Cl  -1.47912844587527     -0.43597537778719     -1.82165764614204
  H   0.98332226329018     -1.38343309271235     -0.78942403083244
  H   1.30096743593850      0.21942668718796     -1.48696624955696
  N   -1.10313865493449     -0.71001356269677      0.80130290027376
  O   -0.69260714972703     -1.85410880560734      0.92195451354262
  O   -1.92720031148337     -0.13067655783342      1.49156046333167
  C   -0.71653648005640      1.49478550404827     -0.16966779971748
  N   -0.80120196283647      2.65763371961542     -0.01940420155742
  C   1.71423872030920      0.04498841763697      0.56852402059354
  N   2.33846004830284      0.33661622758871      1.51862076182905
