12
Coordinates from ORCA-job run
  C   -0.50013300247777      0.27194707116234     -0.29032353745134
  C   1.02728288832944      0.28983091730020     -0.14597434007156
  Cl  -0.98789550013208     -0.11564271760557     -1.92648041978611
  H   1.43198518774136      1.03897808275144     -0.83099277941850
  H   1.27429336880780      0.58028435257799      0.87834830098557
  N   -1.02086647504082     -0.80301547640666      0.70951559676226
  O   -1.54282352556302     -1.80828129367167      0.26856425817830
  O   -0.79801483590040     -0.51185002349357      1.87669173546666
  C   -1.06272551955770      1.55041728173319      0.12642247876786
  N   -1.48341287674008      2.60088526467291      0.44440445762618
  C   1.60039096545086     -1.01960393165497     -0.44155409917760
  N   2.06291932508242     -2.07394952736564     -0.66862165188170
