12
Coordinates from ORCA-job run
  C   -0.49011988531601      0.08604536835323     -0.24656370076797
  C   0.94669733111246     -0.39437407189640      0.00070172243819
  Cl  -0.86987392104722      0.10072568906232     -1.95497777234838
  H   1.11218962355135     -0.44757808586788      1.08018962751902
  H   1.04993124147092     -1.39694139302463     -0.42579771837697
  N   -1.38953095485482     -0.93906253647589      0.50762390821999
  O   -1.28732565499802     -0.86612137700241      1.72454415365871
  O   -2.04858496365719     -1.72588758092526     -0.14541760625065
  C   -0.73672135264762      1.39238803854847      0.34865728132960
  N   -0.91020545345331      2.45648850717214      0.81716013949038
  C   1.91774915581749      0.50579996956689     -0.60935881646373
  N   2.70479483402199      1.22751747248942     -1.09576121844820
