12
Coordinates from ORCA-job run
  C   -0.45191929296436      0.00934685346373     -0.24328291003859
  C   0.98756538759226     -0.33865119633627      0.13415093987967
  Cl  -0.73588359645216     -0.27508048660725     -1.96505624488628
  H   1.18274868187268     -1.37255455299931     -0.15491273780141
  H   1.09637605372183     -0.26148728629224      1.22058844785031
  N   -1.40381250749635     -0.93614718907946      0.52330054355418
  O   -2.52398514580292     -0.50723779492036      0.75105572517056
  O   -0.95809122508447     -2.04321531674238      0.78924712547886
  C   -0.79424692488414      1.37982784746932      0.10957360579823
  N   -1.01305485883989      2.49619584810244      0.40592243922439
  C   1.92666082897685      0.56331173884369     -0.52320186642218
  N   2.68864259936067      1.28469153509809     -1.04838506780774
