12
Coordinates from ORCA-job run
  C   -0.47764371045773      0.26354887439723     -0.33068312348857
  C   1.02598085342575      0.32334022883461     -0.03178438527908
  Cl  -0.78641309417706     -0.09394354052609     -2.01637046190466
  H   1.15884925270952      0.58657316445320      1.02065670454718
  H   1.47157269002341      1.10756533059945     -0.64891865938906
  N   -1.06136410781973     -0.85359539320464      0.58566948681524
  O   -0.96731250977163     -0.58710083123561      1.77593439381195
  O   -1.50442665504216     -1.86103771046139      0.06997685513321
  C   -1.12052130901553      1.51265149443658      0.05763927410371
  N   -1.60273196789051      2.54213323017352      0.35653386802288
  C   1.67117032935361     -0.95593583382368     -0.30987826336850
  N   2.19284022866204     -1.98419901364315     -0.52877568900431
