12
Coordinates from ORCA-job run
  C   -0.48232810492496      0.07310871987646     -0.27564768625595
  C   0.92664376708555     -0.41339705280005      0.09045363636991
  Cl  -0.78262943109596     -0.09643758085506     -1.99462766447258
  H   1.03709378054757     -0.36809988428165      1.17851143665669
  H   1.02182622545698     -1.45344981339134     -0.23548196145032
  N   -1.43160201724917     -0.85378382059185      0.53246371488588
  O   -1.62789943542688     -0.49303749141205      1.68443071437631
  O   -1.81152068348320     -1.87585752300190     -0.00995129945810
  C   -0.71701978271195      1.44504574494723      0.15133452778875
  N   -0.86739435967583      2.56592783551798      0.47202880995225
  C   1.95235634678722      0.40537604693172     -0.54418661464593
  N   2.78247369469064      1.06460481906051     -1.04732761374690
