12
Coordinates from ORCA-job run
  C   -0.55624993130022      0.08140604161249     -0.38552806910837
  C   0.89947940501503     -0.29490764160870     -0.65008757465010
  Cl  -1.54900300147656     -0.38819486550212     -1.77342954772897
  H   1.24344298905519      0.25459375039203     -1.53018701540415
  H   0.94816959462372     -1.36447254324381     -0.86133715744316
  N   -1.07333695489523     -0.72740252915403      0.82601767582819
  O   -1.87189230791879     -0.16523894794474      1.55907790937457
  O   -0.65845344901196     -1.87355458839559      0.90506286067768
  C   -0.71944385460636      1.50001660291776     -0.10469135521713
  N   -0.79649805318531      2.65873146682556      0.07818943167584
  C   1.73585620155200      0.02777972879819      0.50245245932052
  N   2.39792936214848      0.29324352530295      1.43446038267507
