12
Coordinates from ORCA-job run
  C   -0.49675055191203     -0.03309881291879     -0.46564498985449
  C   1.01790451466006     -0.22344852894963     -0.48236547928739
  Cl  -1.19957148404781     -0.76069418939364     -1.91792266042285
  H   1.23291490888756     -1.29016859489520     -0.56500710317105
  H   1.42037888671856      0.28712683214256     -1.36109158434044
  N   -1.08672743773627     -0.79399751552536      0.74353362532023
  O   -0.54862610761249     -1.85914096720742      1.00406200254805
  O   -2.05188173033510     -0.28562154310726      1.29232491522486
  C   -0.87752189578383      1.36811959533237     -0.36779083279131
  N   -1.12606010258981      2.51635391604994     -0.32574485881588
  C   1.62073353527004      0.31740274779822      0.73273844403666
  N   2.09320746448111      0.75716706067419      1.71290852155362
