12
Coordinates from ORCA-job run
  C   -0.45117910055852      0.27021354316611     -0.36272297399516
  C   1.02114233343305      0.33616722970745      0.06356639477179
  Cl  -0.61181481024470     -0.03263825561860     -2.07968335992644
  H   1.50783865308832      1.14187040311222     -0.49156940424059
  H   1.06151894875366      0.57009898864332      1.13050085049770
  N   -1.09401062833094     -0.88348925549370      0.46309605787119
  O   -1.10418930900309     -0.65686854630916      1.66531726049899
  O   -1.47663607230733     -1.87833829985628     -0.12103302691118
  C   -1.14148756611452      1.49849481127426      0.01075706801383
  N   -1.66309104862156      2.51110937992406      0.30088506355623
  C   1.70206448058752     -0.92937311586962     -0.19172655351664
  N   2.25084411931811     -1.94824688268007     -0.38638737661974
