12
Coordinates from ORCA-job run
  C   -0.55812680210345      0.08953736876426     -0.38036149901408
  C   0.89820318025630     -0.27384788877989     -0.65919637128133
  Cl  -1.55227191604234     -0.34520562140509     -1.77870676074730
  H   1.23705731648811      0.30090085306021     -1.52508094629735
  H   0.95037049019320     -1.33694252651394     -0.90004317314555
  N   -1.06949263052427     -0.75380753793298      0.80906932002090
  O   -0.64890795085295     -1.89964957792779      0.85698823582918
  O   -1.87090638976171     -0.21569713098558      1.55703488319387
  C   -0.72563499473951      1.49947116553687     -0.06072298348684
  N   -0.80728763979417      2.65289078555772      0.15106965518019
  C   1.73860713841492      0.02028441593026      0.49800284778270
  N   2.40739019846588      0.26106569469596      1.43194679196560
