12
Coordinates from ORCA-job run
  C   -0.46524781993093      0.09341772751766     -0.28873621447573
  C   0.94675888022129     -0.38710104189171      0.07466362856151
  Cl  -0.67999537119840      0.18050759932480     -2.02352742061317
  H   1.00833964288280     -0.48647755424305      1.16179130250040
  H   1.10202157299603     -1.36914993135054     -0.38272269145741
  N   -1.42071917218690     -0.97011807422091      0.33080652776248
  O   -1.43662109327426     -0.94968778602826      1.55395396394645
  O   -2.00487214874645     -1.73256419273786     -0.41580568550104
  C   -0.78189692355758      1.37082408883263      0.33552757682995
  N   -1.01136866698561      2.41197927450645      0.83078035564323
  C   1.96149134435529      0.54597969324564     -0.39960926504009
  N   2.78310975542471      1.29439019704516     -0.77612207815659
