12
Coordinates from ORCA-job run
  C   -0.48305038415039      0.12491786405688     -0.24390625422797
  C   0.94698142876216     -0.39235599485172     -0.03418861137314
  Cl  -0.81429854880941      0.40731778136994     -1.93911916617422
  H   1.08176998003995     -0.61371400094847      1.02804896495201
  H   1.06403136152543     -1.31648290541925     -0.60863500633179
  N   -1.40175350339159     -1.00262064499377      0.31541661660143
  O   -1.33364725263504     -1.12119007080390      1.53115772852170
  O   -2.04154692252727     -1.67543720998172     -0.47068126784958
  C   -0.74816617811873      1.32325739995334      0.54061712708820
  N   -0.93667741897763      2.30143683735544      1.16475899684972
  C   1.93355588520590      0.58907727513283     -0.46861137275210
  N   2.73280155307663      1.37579366913040     -0.81385775530427
