12
Coordinates from ORCA-job run
  C   -0.49401044062700      0.11885985187411     -0.38710942215464
  C   1.01964521262931      0.28397192059774     -0.19946528630040
  Cl  -0.86642143075361     -0.85417706983901     -1.79412562414693
  H   1.19225887267964      0.93247185230360      0.66327437379891
  H   1.42910274125109      0.76744477118107     -1.08989622794208
  N   -1.02368776859602     -0.56225609051459      0.91010038372315
  O   -0.88579566207403      0.13857708639643      1.90328921236390
  O   -1.47098870220299     -1.69006586827869      0.83782848489187
  C   -1.13821099740720      1.42323418638144     -0.47730931713304
  N   -1.62686963768557      2.48793843283280     -0.57337331942613
  C   1.66935463750212     -1.00573274832497      0.01245224160611
  N   2.19462317528427     -2.03926632460993      0.19433450071930
