17

C	-0.580913	0.001879	-1.417945
C	0.0	0.0	0.0
Cl	0.180359	1.370355	-2.264955
H	1.092054	0.0	0.0
N	-0.119972	-1.250868	-2.165848
O	0.87495	-1.820796	-1.747094
O	-0.771481	-1.54863	-3.162739
C	-2.084222	0.129692	-1.507071
H	-2.380736	0.200689	-2.55119
H	-2.396639	1.033016	-0.982214
H	-2.557021	-0.743757	-1.059191
N	-0.431278	-1.200652	0.80611
O	-0.101607	-1.19445	1.984337
O	-1.052907	-2.09554	0.235703
C	-0.456985	1.182148	0.720785
N	-0.852995	2.140494	1.273074
Br	3.317571	0.0	0.0
