17

C	-0.416412	0.014495	-1.472114
C	0.0	0.0	0.0
Cl	0.219259	-1.443973	-2.224449
H	1.092444	0.0	0.0
N	-1.949411	0.040891	-1.629164
O	-2.519299	-0.871376	-2.20629
O	-2.477552	1.046363	-1.166046
C	0.146444	1.247955	-2.149585
H	-0.279164	2.144653	-1.697896
H	1.2309	1.242468	-2.016629
H	-0.098043	1.223744	-3.213571
N	-0.495387	-1.252348	0.680372
O	-1.706242	-1.459839	0.604087
O	0.326548	-1.951269	1.255153
C	-0.47704	1.140292	0.769087
N	-0.798612	2.062492	1.422288
Br	3.357243	0.0	0.0
