17

C	-0.583866	-0.010559	-1.416605
C	0.0	0.0	0.0
Cl	0.192459	1.336669	-2.283355
H	1.091911	0.0	0.0
N	-0.138579	-1.279253	-2.146538
O	-0.784361	-1.57398	-3.148193
O	0.83876	-1.866433	-1.709799
C	-2.085932	0.133502	-1.506462
H	-2.386343	1.049945	-0.997459
H	-2.38278	0.189753	-2.551467
H	-2.568528	-0.725542	-1.041603
N	-0.434153	-1.1891	0.822735
O	-0.076829	-1.180968	1.992441
O	-1.088342	-2.074271	0.274103
C	-0.452736	1.19147	0.708492
N	-0.847002	2.151633	1.259136
Br	3.314879	0.0	0.0
