17

C	-0.570596	-0.003342	-1.423246
C	0.0	0.0	0.0
Cl	0.189862	1.368509	-2.264889
H	1.092015	0.0	0.0
N	-0.092279	-1.254703	-2.164376
O	-0.740788	-1.570213	-3.158373
O	0.913274	-1.804749	-1.743368
C	-2.073785	0.11307	-1.527898
H	-2.398579	1.013429	-1.004898
H	-2.359368	0.183626	-2.575287
H	-2.54492	-0.764935	-1.08728
N	-0.429543	-1.205924	0.80159
O	-0.111457	-1.19746	1.982536
O	-1.037516	-2.105507	0.22431
C	-0.46828	1.178554	0.71808
N	-0.871507	2.13418	1.270144
Br	3.328369	0.0	0.0
