17

C	-0.490425	-0.122201	-1.456249
C	0.0	0.0	0.0
Cl	-2.203685	-0.577661	-1.490363
H	1.09121	0.0	0.0
N	-0.344427	1.275404	-2.08306
O	-1.21353	1.675594	-2.84532
O	0.711187	1.836309	-1.815589
C	0.354327	-1.040023	-2.316539
H	1.405878	-0.779868	-2.165675
H	0.20049	-2.072394	-2.014914
H	0.062208	-0.912881	-3.361468
N	-0.38995	-1.232248	0.774932
O	0.000794	-2.299372	0.316501
O	-1.034341	-1.089697	1.808973
C	-0.542221	1.177555	0.658236
N	-0.966209	2.144356	1.173435
Br	3.328945	0.0	0.0
