17

C	-0.359242	-0.039774	-1.487784
C	0.0	0.0	0.0
Cl	-2.085674	0.240347	-1.834658
H	1.115327	0.0	0.0
N	0.353731	1.153525	-2.147457
O	0.606069	1.048423	-3.340731
O	0.555298	2.13585	-1.44737
C	0.134443	-1.317309	-2.122829
H	1.198704	-1.427183	-1.889172
H	-0.429961	-2.161259	-1.726005
H	-0.004871	-1.268645	-3.200873
N	-0.432047	-1.290073	0.667187
O	-1.601311	-1.638956	0.516846
O	0.414742	-1.877993	1.328574
C	-0.580895	1.083958	0.769953
N	-1.075138	1.903714	1.452131
Br	3.333769	0.0	0.0
