17

C	-0.464238	-0.113174	-1.46296
C	0.0	0.0	0.0
Cl	-2.184075	-0.554841	-1.527915
H	1.091872	0.0	0.0
N	-0.309551	1.276873	-2.105637
O	-0.987183	1.514749	-3.097255
O	0.563979	1.991461	-1.626905
C	0.385365	-1.029502	-2.319891
H	0.077197	-0.916739	-3.361105
H	1.434994	-0.74746	-2.182723
H	0.257913	-2.061345	-2.001558
N	-0.37223	-1.248508	0.766071
O	-0.022247	-2.315374	0.273702
O	-0.95066	-1.112754	1.839782
C	-0.571026	1.15273	0.6766
N	-1.050909	2.087349	1.203668
Br	3.322371	0.0	0.0
