17

C	-0.557877	0.00673	-1.437862
C	0.0	0.0	0.0
Br	0.078182	-1.589808	-2.417687
H	1.099959	0.0	0.0
C	-2.082073	0.009493	-1.471556
H	-2.429519	0.916753	-0.973062
H	-2.459938	-0.863442	-0.941674
H	-2.442048	0.006002	-2.501073
C	-0.053518	1.167368	-2.167934
N	0.26329	2.107192	-2.798217
N	-0.538773	-1.157628	0.728143
H	-0.23754	-1.998681	0.243509
H	-0.039385	-1.172367	1.614068
N	-0.446824	1.235435	0.625196
H	0.325605	1.651138	1.131116
H	-1.209242	1.032999	1.262922
Cl	3.4261	0.0	0.0
