17

C	-0.574218	-0.040143	-1.43123
C	0.0	0.0	0.0
Br	0.079681	-1.647503	-2.378312
H	1.104857	0.0	0.0
C	-2.099678	-0.06899	-1.440549
H	-2.45127	-0.935319	-0.883021
H	-2.456655	0.842415	-0.957468
H	-2.476542	-0.10474	-2.463915
C	-0.101755	1.112739	-2.194702
N	0.229803	2.024465	-2.857667
N	-0.526203	-1.138999	0.767828
H	-0.005769	-1.133695	1.640735
H	-0.235691	-1.990773	0.29624
N	-0.451532	1.249965	0.592954
H	0.325882	1.698783	1.059103
H	-1.190317	1.058959	1.257763
Cl	3.423325	0.0	0.0
