12

C	-0.523691	0.047216	-1.417853
C	0.0	0.0	0.0
Br	-0.020774	-1.541991	-2.410494
H	1.090469	0.0	0.0
H	-0.368721	0.881703	0.529805
H	-0.373626	-0.903963	0.485496
C	-1.975958	0.177258	-1.504245
N	-3.146682	0.285894	-1.54289
N	0.047542	1.31366	-2.107801
O	0.77848	1.207131	-3.074602
O	-0.32766	2.354167	-1.577662
H	2.870026	0.0	0.0
