12

C	-0.467125	-0.01036	-1.406864
C	0.0	0.0	0.0
Br	-2.473112	-0.183261	-1.60416
H	1.092732	0.0	0.0
H	-0.34891	0.904529	0.501013
H	-0.356286	-0.885792	0.52422
C	-0.096705	1.179464	-2.157413
N	0.211292	2.168563	-2.712377
N	0.059257	-1.247004	-2.143793
O	0.374869	-1.103859	-3.317788
O	0.088966	-2.284341	-1.501973
H	2.779345	0.0	0.0
