11
Coordinates from ORCA-job run
  C   0.97084821706328     -0.33403705363278     -0.16131441606451
  C   -0.51094589665912     -0.65838332084793     -0.05115894871974
  H   1.19068033996975      0.06351493591693     -1.15297337585318
  H   -0.79894054221290     -0.99335778403816      0.94323612823024
  H   1.54810259131193     -1.25325775840392     -0.02819705140113
  H   -0.79921807145711     -1.40667552007717     -0.79234221193101
  C   1.38280405365053      0.63899584932731      0.84991705144521
  N   1.69470877305535      1.41249135153363      1.67487943397281
  N   -1.34573095261249      0.55194938107707     -0.34528717626793
  O   -0.95388378262116      1.29363571938267     -1.24186816263298
  O   -2.37742472948807      0.68312419976235      0.30410872922223
