18

C	-0.423345	0.004804	-1.461817
C	0.0	0.0	0.0
Cl	-2.22427	0.235857	-1.638551
H	1.093538	0.0	0.0
C	0.208603	1.102019	-2.204716
N	0.73783	1.968162	-2.797217
C	-0.065514	-1.316646	-2.144298
H	-0.301021	-1.25846	-3.209221
H	-0.641265	-2.133071	-1.706828
H	1.003526	-1.499818	-2.01081
C	-0.55546	-1.141506	0.814344
H	-1.643459	-1.212331	0.755673
H	-0.098866	-2.079241	0.490919
H	-0.28017	-0.99206	1.86097
N	-0.336779	1.278428	0.698052
O	-1.448758	1.378814	1.239693
O	0.333257	2.276231	0.354345
Br	2.931036	0.0	0.0
