18

C	-0.507023	-0.036833	-1.456479
C	0.0	0.0	0.0
Cl	0.220811	1.318489	-2.384456
H	1.091088	0.0	0.0
C	-0.037601	-1.286184	-2.063035
N	0.291203	-2.311038	-2.534545
C	-2.023834	0.046414	-1.617233
H	-2.393151	0.989583	-1.217528
H	-2.275464	-0.017718	-2.676706
H	-2.506107	-0.776669	-1.086906
C	-0.467116	-1.184531	0.827925
H	-0.05734	-2.101642	0.400811
H	-1.552241	-1.253061	0.902581
H	-0.052898	-1.081187	1.832947
N	-0.477277	1.268232	0.635838
O	-1.623577	1.271381	1.100085
O	0.28256	2.229332	0.651812
Br	3.475017	0.0	0.0
