18

C	-0.474767	0.000303	-1.460262
C	0.0	0.0	0.0
Cl	0.332359	-1.398665	-2.265672
H	1.090913	0.0	0.0
C	-1.917684	-0.230877	-1.592462
N	-3.073134	-0.411732	-1.710467
C	-0.053806	1.274424	-2.186383
H	1.016886	1.423802	-2.028316
H	-0.270668	1.183683	-3.252032
H	-0.610171	2.125886	-1.786432
C	-0.559308	-1.12073	0.847025
H	-0.141833	-1.04792	1.853608
H	-0.251476	-2.080494	0.4289
H	-1.648589	-1.074837	0.902477
N	-0.441134	1.31414	0.587926
O	0.413186	2.179181	0.781502
O	-1.647401	1.457523	0.813709
Br	3.281975	0.0	0.0
