18

C	-0.427363	0.025342	-1.481967
C	0.0	0.0	0.0
Cl	0.217975	-1.474251	-2.242619
H	1.090945	0.0	0.0
C	-1.885052	-0.020834	-1.63266
N	-3.051461	-0.037239	-1.774138
C	0.170135	1.218147	-2.220426
H	-0.018782	1.12005	-3.290533
H	1.244451	1.235036	-2.024511
H	-0.275403	2.147924	-1.864144
C	-0.54458	-1.157559	0.807665
H	-0.252588	-1.026295	1.851123
H	-0.092675	-2.081758	0.451153
H	-1.631765	-1.22406	0.752844
N	-0.46275	1.292696	0.603459
O	0.30627	2.250159	0.572613
O	-1.604291	1.323479	1.073616
Br	3.481086	0.0	0.0
