18

C	-0.449008	0.003615	-1.471945
C	0.0	0.0	0.0
Cl	0.282306	-1.447658	-2.247183
H	1.090935	0.0	0.0
C	-1.901871	-0.136704	-1.615612
N	-3.061625	-0.25309	-1.766896
C	0.065925	1.240156	-2.200092
H	-0.126956	1.148267	-3.26996
H	-0.436622	2.134951	-1.826373
H	1.13972	1.321222	-2.015916
C	-0.535147	-1.143323	0.83641
H	-0.154114	-2.084469	0.440338
H	-1.625986	-1.158878	0.857409
H	-0.158118	-1.035754	1.855786
N	-0.459656	1.299214	0.594518
O	-1.651439	1.387532	0.904399
O	0.365125	2.201054	0.714905
Br	3.48817	0.0	0.0
