18

C	-0.526317	-0.005889	-1.446728
C	0.0	0.0	0.0
Cl	0.336364	1.195027	-2.467706
H	1.094618	0.0	0.0
C	-0.215912	-1.316802	-2.031591
N	-0.066716	-2.368366	-2.534715
C	-2.034311	0.214285	-1.588212
H	-2.291635	1.217562	-1.258011
H	-2.321226	0.095291	-2.634032
H	-2.575158	-0.525138	-0.992509
C	-0.448736	-1.210444	0.808321
H	0.053148	-1.181488	1.772997
H	-1.529966	-1.228354	0.972735
H	-0.14181	-2.124298	0.300044
N	-0.393366	1.244395	0.743114
O	-0.270855	1.210949	1.965448
O	-0.768411	2.233987	0.114336
Br	3.401438	0.0	0.0
