15

C	0.0	0.0	0.0
C	-0.552349	0.138592	-1.401628
Cl	1.776731	0.0	0.0
H	-1.660115	0.105078	-1.247695
H	-0.173849	-0.643206	-2.049802
N	-0.59338	0.875719	0.878544
H	-0.365547	0.619637	1.832909
H	-1.637341	0.735495	0.705254
N	-0.285774	-1.528775	0.405601
O	-0.412268	-1.731932	1.606136
O	-0.301866	-2.384846	-0.470253
N	-0.169849	1.426153	-2.014063
O	-0.688666	2.456504	-1.588924
O	0.631837	1.380924	-2.956671
H	-2.940984	0.0	0.0
