15

C	0.0	0.0	0.0
C	-0.303345	0.045318	-1.501948
Cl	1.827498	0.0	0.0
H	-1.38852	0.132587	-1.604487
H	0.074393	-0.852916	-1.974998
N	-0.411473	1.141908	0.757749
H	0.306047	1.850418	0.736973
H	-0.547006	0.790374	1.700165
N	-0.709685	-1.188488	0.546715
O	-0.671816	-2.214368	-0.195584
O	-0.6945	-1.263117	1.813401
N	0.305283	1.189947	-2.222222
O	0.767967	0.951084	-3.340714
O	0.265418	2.3116	-1.720938
H	-2.166376	0.0	0.0
