15

C	0.0	0.0	0.0
C	-0.543985	-0.03403	-1.436422
Cl	1.755345	0.0	0.0
H	-0.218829	-0.937073	-1.943993
H	-1.653825	0.001742	-1.285084
N	-0.428996	1.1005	0.802179
H	-1.448351	1.024232	0.840424
H	-0.195077	1.950404	0.301536
N	-0.60942	-1.252755	0.552749
O	-1.760996	-0.998673	1.102869
O	-0.310866	-2.325671	-0.025475
N	-0.147576	1.114426	-2.246168
O	0.488933	0.895167	-3.282326
O	-0.474935	2.247854	-1.868137
H	-2.880602	0.0	0.0
