15

C	0.0	0.0	0.0
C	-0.309674	0.138631	-1.492327
Cl	1.826549	0.0	0.0
H	0.07974	-0.72028	-2.026155
H	-1.398628	0.210187	-1.580112
N	-0.412432	1.089439	0.828556
H	-0.479312	0.696783	1.760361
H	0.268521	1.829327	0.792472
N	-0.703807	-1.222577	0.476149
O	-0.663965	-2.200617	-0.329027
O	-0.67925	-1.375599	1.735708
N	0.270852	1.338899	-2.139638
O	0.22877	2.422203	-1.558428
O	0.710008	1.187467	-3.282978
H	-2.180457	0.0	0.0
