14
Coordinates from ORCA-job run
  C   -0.43832628528723      0.04347888523581     -0.38692015757354
  C   0.97152831281722     -0.40617706990033     -0.76033741185205
  Cl  -1.45849441053549     -0.08121508359950     -1.83912309547790
  H   0.92227022295563     -1.44884091181117     -1.08450180085196
  H   1.34560313665490      0.19489392142264     -1.58924243557041
  C   -1.04770438902228     -0.73201659281962      0.75474120228116
  H   -2.06481265129896     -0.39563510960625      0.94203988526592
  H   -1.06154843530310     -1.79242527447517      0.49656325369390
  H   -0.45553470057464     -0.58932449278355      1.66105570457329
  N   -0.39453059288214      1.53594529244387     -0.03678428427542
  O   -1.24442833138694      1.94532042311392      0.74357926353989
  O   0.46647515008911      2.20838878083966     -0.59262345243163
  C   1.87705722737149     -0.28916573830280      0.37968925111841
  N   2.58244574640242     -0.19522702975751      1.31286407756033
