14
Coordinates from ORCA-job run
  C   -0.32638890070940     -0.01644087500269     -0.29977133196647
  C   1.05068465826312     -0.59603836186365      0.02274323784123
  Cl  -0.62878040006418     -0.11573886152064     -2.03165231393019
  H   1.19961465645638     -0.57276259259065      1.10399668102996
  H   1.07054635581662     -1.63662028004936     -0.31076896544486
  C   -1.43351233205755     -0.70555585085117      0.47461429484117
  H   -1.24648381347818     -0.61419323850575      1.54547467500416
  H   -2.39562804198222     -0.24989222919398      0.23467205615623
  H   -1.47005100797160     -1.75995168513602      0.19688535292993
  N   -0.31598087882241      1.45441072816867      0.14427299562096
  O   0.05316337225724      1.61005922051319      1.30538247091736
  O   -0.69151568934585      2.32406129685558     -0.62411741516404
  C   2.13226228761906      0.14128327296206     -0.62438671929000
  N   3.00306973401895      0.73737945621442     -1.13734501854543
