14
Coordinates from ORCA-job run
  C   -0.30005735493504      0.22549079329097     -0.25932975170168
  C   1.21949473053354      0.07333462787211     -0.22970176014716
  Cl  -0.87198919689738      0.12726902005899     -1.93814172202751
  H   1.58069529793473      0.28141989766378      0.78156775876646
  H   1.68050551118802      0.80031447985999     -0.89914005955135
  C   -1.03282697944680     -0.76987250633925      0.60871481551112
  H   -0.70712843692326     -0.66216124092796      1.64712398886321
  H   -0.81284459405406     -1.78197453687501      0.26825903062660
  H   -2.10515671876832     -0.59566125319859      0.55376135100189
  N   -0.64263293389011      1.64114500749432      0.22130279296023
  O   0.27336843918087      2.45604170144748      0.27869357419398
  O   -1.81591069145790      1.85248463029559      0.49664741758118
  C   1.61103439728383     -1.27861650271507     -0.61563569364815
  N   1.92344853025189     -2.36921411792739     -0.91512174242886
