14
Coordinates from ORCA-job run
  C   -0.33423259576351      0.13224589514708     -0.28069295494585
  C   1.18731551483251      0.02908291345412     -0.36561440006312
  Cl  -1.05319105358164     -0.46988717245897     -1.78961321739784
  H   1.54648234956691      0.53550246510193     -1.26206771024237
  H   1.62912037648376      0.53505003590454      0.49776411821168
  C   -0.93148163205948     -0.57838392268581      0.91050864881810
  H   -0.69201702406393     -1.64074224032762      0.85867229520305
  H   -0.51705624175678     -0.16206339251084      1.83295241324058
  H   -2.01180296783875     -0.45175938460931      0.91883736839626
  N   -0.70262384930787      1.61888852469134     -0.20221451398839
  O   -1.85168891796263      1.87755576665610      0.12938177882101
  O   0.16865063568856      2.43320113294700     -0.49212652969895
  C   1.61113136232853     -1.36739717260220     -0.37767947709153
  N   1.95139404343433     -2.49029344870738     -0.37710781926265
