14
Coordinates from ORCA-job run
  C   -0.31405537198766      0.20025106954932     -0.26281672776993
  C   1.21047258931814      0.10528127606522     -0.26151160307385
  Cl  -0.91885322389757     -0.00620989196755     -1.92019453955533
  H   1.58561345379532      0.37821757061613      0.72905511800116
  H   1.62854450361424      0.81354191781903     -0.97754557231843
  C   -0.98982874802918     -0.77425450633528      0.67241880279176
  H   -0.73792907462117     -1.79384279836744      0.37973839919249
  H   -2.06902376182701     -0.64364504328766      0.63332133040964
  H   -0.64696185357402     -0.59974715853930      1.69613998751809
  N   -0.69816723069818      1.62615183885180      0.15133800083706
  O   -1.87023062635547      1.80794096077502      0.45225919708701
  O   0.18597568258245      2.47728460185424      0.13431865655322
  C   1.64420012073822     -1.24928752677537     -0.58824664335187
  N   1.99124354094191     -2.34168231025818     -0.83927440632105
