14
Coordinates from ORCA-job run
  C   -0.33293398976115      0.13426082684695     -0.28183597602714
  C   1.18907311964861      0.03188487293911     -0.35991522317145
  Cl  -1.04510983167086     -0.45701980607703     -1.79796582101820
  H   1.62555407322426      0.52753312699724      0.51212985394547
  H   1.55311679306295      0.54833405759242     -1.24854118689525
  C   -0.93534534166934     -0.58488276064452      0.90171630163801
  H   -0.69427825184554     -1.64670556069909      0.84512314461988
  H   -0.52634538446925     -0.17401335826294      1.82911906327391
  H   -2.01592779692596     -0.46005106612397      0.90509290630142
  N   -0.70191069309285      1.62035311804128     -0.19382132633869
  O   0.16957856459640      2.43664788074340     -0.47739020864533
  O   -1.85176443320827      1.87662842971487      0.13684565982364
  C   1.61260415799368     -1.36448167779829     -0.38516678069229
  N   1.95268901411728     -2.48748808326943     -0.38639040681398
