14
Coordinates from ORCA-job run
  C   -0.35644687385569     -0.00566119996871     -0.22682888114548
  C   1.06471668626001     -0.55780215329586     -0.18486827410385
  Cl  -0.95781798119293     -0.03297652457537     -1.88798480048769
  H   1.03113372499458     -1.58659505880937     -0.55303045904201
  H   1.41859546358540     -0.57041643565084      0.84734591586862
  C   -1.29855901032305     -0.76169917288787      0.68965232303943
  H   -1.33766222041086     -1.81098853045002      0.39405205298913
  H   -2.30039373779451     -0.33720902558178      0.61954942611611
  H   -0.94499906446278     -0.68794359212233      1.72130849062238
  N   -0.35021272909585      1.44449643285997      0.27191751466177
  O   0.56813237121643      1.74066196233013      1.03144894830922
  O   -1.29241180130004      2.15458752551741     -0.04360349560930
  C   1.99943094226446      0.21006798591207     -1.00271979481964
  N   2.75449423011484      0.80247778672252     -1.67723896639869
