14
Coordinates from ORCA-job run
  C   -0.43675771632029      0.06256562094725     -0.38522883288911
  C   0.96817822765879     -0.38855437810653     -0.77437763702004
  Cl  -1.45889937248761     -0.00883151309017     -1.83994695768717
  H   0.90591692677136     -1.41723354993683     -1.13882285923787
  H   1.35045521196321      0.23913738845196     -1.57943674107643
  C   -1.05241064078383     -0.74184839540592      0.73302717629039
  H   -0.45979022982071     -0.62948780557125      1.64318975146402
  H   -1.07318327254943     -1.79415023956581      0.44492048361605
  H   -2.06713170676276     -0.40381918241474      0.92932607180922
  N   -0.38261646989453      1.54257093559538      0.01164862620093
  O   -1.25467283538619      1.94044670513100      0.77343499238960
  O   0.50573129598897      2.21972012681250     -0.49345876073567
  C   1.87467801767744     -0.32954978284342      0.36954614709804
  N   2.58050256394557     -0.28996593000343      1.30617853977804
