14
Coordinates from ORCA-job run
  C   -0.37654158403888      0.05860906837463     -0.44409191896329
  C   1.06471497251332     -0.41009044090686     -0.62181484060493
  Cl  -1.18330477196288     -0.03391092696022     -2.02728297010559
  H   1.04395647867125     -1.44485288671720     -0.97358198757503
  H   1.56388894873139      0.19928151271336     -1.37529715529091
  C   -1.15199187660351     -0.71920863716281      0.59060617461817
  H   -1.14122395133478     -1.77712463144120      0.32292274943466
  H   -2.18122095294270     -0.37072299999583      0.63403861682775
  H   -0.69330542661984     -0.59204144918520      1.57338795337992
  N   -0.36565206253868      1.54563731209753     -0.07040100457807
  O   0.59607786118998      2.20545573360681     -0.44825289920953
  O   -1.34122626658687      1.96672087681393      0.53785742055680
  C   1.80046608369056     -0.33757857354030      0.63802710531911
  N   2.36636254783166     -0.28917395769659      1.66488275619097
