14
Coordinates from ORCA-job run
  C   -0.37298807872198     -0.00433030200152     -0.23811172647057
  C   1.05814491841998     -0.54070942542961     -0.22284681489356
  Cl  -0.97513851276113      0.05158850433893     -1.89216905419379
  H   1.05327994017981     -1.54109028567556     -0.66294091344014
  H   1.39696947673987     -0.61569569496774      0.81224255712377
  C   -1.30203919604303     -0.82154528233391      0.63873638385783
  H   -1.35468868274670     -1.84346914977632      0.26070522948803
  H   -2.30496689045951     -0.39210749250777      0.61916651444571
  H   -0.93096988494861     -0.82794034935994      1.66458847072258
  N   -0.33384562972042      1.41451196043655      0.35045137325131
  O   0.23404988518187      1.47557087425167      1.43776777928647
  O   -0.87359622380663      2.33337712161374     -0.24291826538460
  C   1.98100192899698      0.31187343732738     -0.96712311938423
  N   2.72478694968948      1.00096608408406     -1.55754841440883
