18
Coordinates from ORCA-job run
  C   0.79696170338854      0.10497387650749      0.33180967172318
  C   -0.61502632531485      0.57880669634540     -0.05593893044435
  Br  1.59868014964027      1.70271138370011      1.38233109572293
  H   -0.53660110938819      1.57031569444654     -0.50132929133034
  C   1.67857289429238      0.00673770215747     -0.90219712824517
  H   1.66580091942427      0.93626033218676     -1.47148009810780
  H   1.34205193495606     -0.82075244101172     -1.53252893357185
  H   2.70897865340065     -0.18419058220167     -0.59640138548484
  N   0.82068035771227     -1.06155185059716      1.07952475215524
  H   1.52977411566738     -1.74555331941774      0.89253906995678
  H   0.03508852824947     -1.31984233876565      1.64758132111473
  N   -1.47528391385518      0.78906543900656      1.15653587627351
  O   -1.83594014705779      1.93262699981958      1.41075444719714
  O   -1.81478183191755     -0.22042822409335      1.77970223007445
  C   -1.33582198409225     -0.39270260793372     -0.97791602820786
  H   -1.31628496898975     -1.40534573604191     -0.57804914576281
  H   -2.37770047179718     -0.08754980671259     -1.09903745683233
  H   -0.86814850431853     -0.38558121739441     -1.96290006623060
