18
Coordinates from ORCA-job run
  C   0.67374205277209     -0.32365487770286      0.18575243769479
  C   -0.74536396291257      0.10313702654524     -0.23817395582953
  Br  0.77029518310281     -0.65498239148676      2.11882341476139
  H   -0.73969219022101      0.07639202231197     -1.33214231263841
  C   1.72179181154438      0.73112147734647     -0.14629758946934
  H   2.71432764150559      0.33732805061168      0.07924563849811
  H   1.66752275943298      0.97269491461617     -1.21290561571920
  H   1.57972534089237      1.65099091307438      0.42218992722589
  N   0.89583627137769     -1.61108137502163     -0.45915888303122
  H   1.71479628409767     -2.05608073818652     -0.06047118785693
  H   1.08007105653546     -1.44990481630039     -1.44604026347624
  N   -0.95420531576202      1.55452092563073      0.07255808384646
  O   -1.27764401566864      1.85341896130276      1.21925750223352
  O   -0.75478422368842      2.35269430777695     -0.84452533542514
  C   -1.88022542865243     -0.73006068572308      0.31393842725951
  H   -2.81246268432086     -0.47169329520189     -0.19354638009317
  H   -1.65492308961737     -1.78192278140015      0.14065396713475
  H   -2.00080749041772     -0.55491763819307      1.38084212488477
