18
Coordinates from ORCA-job run
  C   0.78811091160594      0.01005287295818      0.25167576213155
  C   -0.60760073915217      0.56518639367182     -0.05634673659019
  Br  1.64541678515650      1.40668831763818      1.49354697583962
  H   -0.49249608315462      1.53906100272600     -0.53256667609037
  C   1.65878291093729      0.02255246458780     -0.99429093973963
  H   2.68144610499263     -0.25500100154790     -0.73212121993711
  H   1.27786633082297     -0.70712620714498     -1.71211447563644
  H   1.68527520700114      1.01341089013465     -1.44811672865430
  N   0.75086619537243     -1.27549637018660      0.81706710564189
  H   1.67835412278338     -1.63481682125425      1.00004653248289
  H   0.17974031904943     -1.31443483688418      1.65144551353164
  N   -1.38163161216078      0.86335435996863      1.19470252194204
  O   -1.88546601802153      1.97722886550727      1.28858834247868
  O   -1.50434511903922     -0.04653117082668      2.01509269495399
  C   -1.46056947829918     -0.37295698649060     -0.89921710501337
  H   -1.58559918181328     -1.33047235758910     -0.39641755587978
  H   -0.99105913834777     -0.54298669038492     -1.86831212624902
  H   -2.43909151773317      0.08128727511667     -1.07166188521209
