18
Coordinates from ORCA-job run
  C   0.77670706801979     -0.26715408439255      0.17270799504384
  C   -0.68489218782524      0.10545493406581     -0.18837701185604
  Br  0.96585404374937     -0.41896254935753      2.12478928229514
  H   -0.71669830511839      0.08559814385959     -1.28193065878775
  C   1.76691159329744      0.77513446481968     -0.31826354600648
  H   1.64032983581721      0.92603669295305     -1.39549888383123
  H   1.62993662621874      1.73549478505191      0.17603715362133
  H   2.77480834097556      0.41063494863618     -0.12158879016276
  N   1.15609104858585     -1.55105102125878     -0.37179574097925
  H   0.54123678617246     -2.29349069852642     -0.06421012811492
  H   1.16294764212602     -1.51136774640508     -1.38569400762267
  N   -0.96224496991989      1.54409264386309      0.14055375843064
  O   -0.74923423896823      2.36462992283725     -0.75328271434493
  O   -1.35871776817888      1.80919804162891      1.27258765754657
  C   -1.77635377424782     -0.76596570919939      0.39635240906519
  H   -2.74588987057102     -0.45719332116602     -0.00039399925848
  H   -1.61986289442489     -1.80931529655315      0.11757266116857
  H   -1.80092897570807     -0.68277415085655      1.48043456379325
