18
Coordinates from ORCA-job run
  C   0.81754070016743      0.07365917936400      0.23117570915072
  C   -0.64489389410252      0.55374763934701      0.26433091351113
  Br  1.87508379752279      1.80168668991691     -0.13197712915641
  H   -0.72576072859162      1.36192774870150      0.99294702378378
  C   1.16818252192469     -0.86975556682610     -0.90100399243855
  H   2.22439086929074     -1.14029123686959     -0.83829554344276
  H   0.56063906647301     -1.77196402093812     -0.80900855607776
  H   0.99842069119383     -0.41061849378356     -1.87305981195616
  N   1.14888320833726     -0.49277729211417      1.47420059193842
  H   0.94476694781976      0.10866983548662      2.26241383009568
  H   2.10808073323622     -0.81000200893690      1.51479036361114
  N   -1.46497798631637     -0.55938609075441      0.86620758428346
  O   -1.72364978608503     -1.52504305850493      0.15244361803174
  O   -1.81038251767882     -0.42184670609254      2.03735323187420
  C   -1.24975128544653      0.94848637169584     -1.06686749013523
  H   -1.29079067024197      0.09493924307897     -1.74171415789397
  H   -0.66540977326936      1.74804488433694     -1.52121322381837
  H   -2.26837189423351      1.31052288289253     -0.91172296136104
