18
Coordinates from ORCA-job run
  C   0.72076805800837     -0.23147634629188      0.09425807885105
  C   -0.72036444208290      0.20812405806813     -0.23257805158434
  Br  0.94673125885405     -0.23371866644714      2.11042363436261
  H   -0.73011820220841      0.36766502609228     -1.31438563187749
  C   1.78442710241461      0.70700366926379     -0.44738352658437
  H   2.77329641204765      0.30784741159941     -0.21119884540279
  H   1.67627298064523      0.77487077043496     -1.53312702639596
  H   1.70514482964779      1.70281197173181     -0.02010912837420
  N   0.90351406849197     -1.52852789764804     -0.45718022709946
  H   1.87566014869888     -1.80655825364008     -0.40113790241088
  H   0.34405072743015     -2.22756810683435      0.01441224154938
  N   -1.00483832470823      1.56925040284283      0.33869843052845
  O   -1.67344169959507      1.64003516956699      1.36559403950243
  O   -0.54180710013390      2.52835537635896     -0.27970819461866
  C   -1.80548010152683     -0.76634269931327      0.17535739068150
  H   -2.78693849871166     -0.32843202849425     -0.00975015648678
  H   -1.73891484938046     -1.01231582602309      1.23451312303819
  H   -1.72696236789125     -1.67202403126706     -0.42769824767866
