18
Coordinates from ORCA-job run
  C   0.85277468867543      0.25824958358199      0.23069984380940
  C   -0.66921731278061      0.55085289916318      0.16079315228195
  Br  1.69487825386410      1.99833271408128     -0.25930725092764
  H   -0.87356797813978      1.42068224999049      0.78700406581495
  C   1.33739937634003     -0.78179318066559     -0.76129867936916
  H   0.82764424671226     -1.73144003042749     -0.57800143392416
  H   1.14730894645393     -0.47743183113224     -1.78901591576791
  H   2.41148836400050     -0.91495617297234     -0.62885093146619
  N   1.31501816734492     -0.07901153581128      1.54128438332158
  H   1.21005634505053     -1.06897367089893      1.72523718264061
  H   0.86006866559576      0.45822084125521      2.26861280317502
  N   -1.35908959716686     -0.57556504272125      0.88050477623662
  O   -1.48320704456604     -1.64639414363328      0.28700745301406
  O   -1.71730437161757     -0.36187340301961      2.03852858773878
  C   -1.27113371090513      0.70483569892036     -1.22076741924780
  H   -2.32893658961386      0.96427217764733     -1.13768802043202
  H   -0.76229815173423      1.50521626524137     -1.75758045797668
  H   -1.18988229751337     -0.22222341859921     -1.78616213892142
