18
Coordinates from ORCA-job run
  C   0.83894897159625      0.22688554430256      0.15885749681672
  C   -0.64380744537645      0.63873008718414      0.13583526368043
  Br  1.79230783787563      1.77990339240288     -0.60857998517143
  H   -0.71484126821448      1.63457392951484      0.57251320571037
  C   1.20259291692886     -0.97800138286232     -0.69813418595652
  H   0.67044918666000     -1.85499726854599     -0.32597360397399
  H   0.95606974897424     -0.82730861503556     -1.74997328892240
  H   2.27707062422442     -1.15697956925905     -0.62493329487375
  N   1.25720035562926      0.14891357234528      1.54789182626448
  H   0.95701425084541     -0.74690398191373      1.92072149232530
  H   2.26812869267160      0.18811234384431      1.60454360384099
  N   -1.44611758139590     -0.21550301322161      1.08279208489159
  O   -2.39097248484262      0.33286650866761      1.63976448996978
  O   -1.14860346355723     -1.40547763130646      1.19861443260820
  C   -1.33664638892870      0.56779208866298     -1.21435046313645
  H   -2.34871549553826      0.96658339149390     -1.12618850665172
  H   -1.39639583120302     -0.46314096875379     -1.56748050473142
  H   -0.79168262634900      1.16495157248000     -1.94592006269020
