16

C	-0.399766	-0.071194	-1.45206
C	0.0	0.0	0.0
F	0.130748	0.973599	-2.135918
H	1.096875	0.0	0.0
C	-0.027279	-1.329907	-2.112829
N	0.268368	-2.328895	-2.655222
N	-1.92736	0.06919	-1.584849
O	-2.584881	-0.954539	-1.421794
O	-2.363713	1.202144	-1.756576
C	-0.475236	-1.154303	0.733139
N	-0.81401	-2.07399	1.384734
C	-0.404607	1.314517	0.661598
H	-1.480211	1.404176	0.834549
H	-0.065221	2.146717	0.043582
H	0.122935	1.374556	1.616407
H	2.558735	0.0	0.0
