16

C	-0.49102	0.081302	-1.416073
C	0.0	0.0	0.0
F	-1.863155	0.135005	-1.511152
H	1.094713	0.0	0.0
C	0.047743	1.245361	-2.132035
N	0.376937	2.211393	-2.713083
N	-0.059067	-1.173466	-2.18243
O	1.033917	-1.124268	-2.731774
O	-0.826067	-2.125995	-2.126293
C	-0.499066	-1.1924	0.655685
N	-0.858341	-2.143509	1.248384
C	-0.359364	1.260092	0.790404
H	-1.436625	1.434985	0.848452
H	0.047343	1.151424	1.798393
H	0.135907	2.121736	0.335666
H	2.576687	0.0	0.0
