16

C	-0.359103	0.016061	-1.462633
C	0.0	0.0	0.0
F	-0.100186	1.244725	-2.007183
H	1.097474	0.0	0.0
C	0.366745	-1.01211	-2.223468
N	0.93365	-1.833433	-2.840292
N	-1.870353	-0.183846	-1.744684
O	-2.634637	0.438729	-1.018225
O	-2.19786	-0.890197	-2.694702
C	-0.457698	-1.246623	0.582545
N	-0.808226	-2.25468	1.078485
C	-0.393623	1.231444	0.808163
H	-0.084881	2.126692	0.266905
H	0.185375	1.198249	1.73388
H	-1.457382	1.286303	1.032816
H	2.576694	0.0	0.0
