16

C	-0.491115	0.111251	-1.414931
C	0.0	0.0	0.0
F	-1.860056	0.219683	-1.502588
H	1.094849	0.0	0.0
C	0.087553	1.258425	-2.128308
N	0.442288	2.217717	-2.705606
N	-0.11239	-1.151528	-2.195055
O	-0.936806	-2.057111	-2.187472
O	0.99475	-1.153005	-2.715985
C	-0.503982	-1.201363	0.634263
N	-0.866533	-2.157589	1.21686
C	-0.351187	1.248919	0.8109
H	0.06119	1.122627	1.814292
H	0.147802	2.114164	0.366503
H	-1.426479	1.429235	0.877044
H	2.575618	0.0	0.0
