16

C	-0.461688	-0.013599	-1.442783
C	0.0	0.0	0.0
F	0.000443	-1.113764	-2.08315
H	1.097707	0.0	0.0
C	-1.925207	0.04484	-1.61012
N	-3.094837	0.056347	-1.723082
N	0.111815	1.210122	-2.176078
O	-0.499088	2.260032	-1.994615
O	1.117167	1.041917	-2.843453
C	-0.476573	-1.224401	0.615418
N	-0.852364	-2.218545	1.121684
C	-0.418382	1.234064	0.794321
H	-0.093629	1.090531	1.826414
H	-1.495283	1.416785	0.779213
H	0.103637	2.108815	0.409147
H	2.595512	0.0	0.0
