16

C	-0.408828	0.085725	-1.436246
C	0.0	0.0	0.0
F	-1.776901	0.032731	-1.635529
H	1.095237	0.0	0.0
C	0.078174	1.31637	-2.078116
N	0.392983	2.331262	-2.577769
N	0.128762	-1.088688	-2.268669
O	0.585735	-2.0542	-1.67534
O	0.005789	-0.959099	-3.484202
C	-0.558449	-1.173538	0.642635
N	-1.020788	-2.07617	1.238836
C	-0.383495	1.268427	0.769513
H	0.199927	2.109419	0.387386
H	-0.10298	1.128677	1.814479
H	-1.451013	1.496398	0.713301
H	2.590863	0.0	0.0
