16

C	-0.502346	0.055149	-1.415999
C	0.0	0.0	0.0
F	-1.874899	0.084425	-1.501777
H	1.095027	0.0	0.0
C	0.014837	1.218194	-2.148859
N	0.375337	2.178577	-2.721725
N	-0.053492	-1.203402	-2.169485
O	-0.801751	-2.168523	-2.090779
O	1.02935	-1.141935	-2.735319
C	-0.507908	-1.182366	0.669792
N	-0.921227	-2.128393	1.234396
C	-0.36117	1.27087	0.771931
H	-1.438148	1.444737	0.830212
H	0.130775	2.12739	0.303923
H	0.048071	1.179229	1.780744
H	2.582082	0.0	0.0
