16

C	-0.482594	0.057678	-1.42019
C	0.0	0.0	0.0
F	-1.854863	0.104178	-1.525501
H	1.09499	0.0	0.0
C	0.058909	1.210831	-2.151828
N	0.405871	2.171536	-2.730261
N	-0.04257	-1.207955	-2.165466
O	1.045918	-1.157582	-2.723769
O	-0.801565	-2.165893	-2.08932
C	-0.508996	-1.176426	0.676085
N	-0.915758	-2.104	1.274045
C	-0.359184	1.273761	0.769019
H	0.139967	2.126006	0.302323
H	-1.435303	1.451559	0.822319
H	0.04579	1.179134	1.778715
H	2.579428	0.0	0.0
