12

C	0.0	0.0	0.0
C	-0.564	-0.099014	-1.398048
Br	1.931679	0.0	0.0
H	-1.674483	-0.076244	-1.247531
H	-0.347368	0.920067	0.460484
H	-0.350388	-0.852312	0.577881
C	-0.167374	-1.303432	-2.109571
N	0.133215	-2.310944	-2.633096
N	-0.235683	1.115067	-2.221406
O	-0.125504	0.967666	-3.436104
O	-0.171846	2.18321	-1.62237
Br	-3.530434	0.0	0.0
