12

C	0.0	0.0	0.0
C	-0.432012	-0.399889	-1.42086
Br	1.933121	0.0	0.0
H	0.465219	-0.621784	-2.012194
H	-0.3604	0.988177	0.261013
H	-0.352055	-0.732548	0.716858
C	-1.129079	0.644686	-2.166204
N	-1.423683	1.538975	-2.868162
N	-1.13909	-1.740881	-1.502589
O	-1.71847	-1.967903	-2.556053
O	-0.91464	-2.543546	-0.608657
Br	-3.19804	0.0	0.0
