12

C	0.0	0.0	0.0
C	-0.437001	0.788658	-1.24623
Br	1.931285	0.0	0.0
H	0.457876	1.090084	-1.803588
H	-0.354027	-1.02295	-0.060334
H	-0.360514	0.46792	0.910067
C	-1.156545	2.028614	-0.977187
N	-1.489465	3.141005	-0.800441
N	-1.132568	-0.06045	-2.294038
O	-1.760739	0.548835	-3.146621
O	-0.86259	-1.253314	-2.30612
Br	-3.223018	0.0	0.0
