12

C	0.0	0.0	0.0
C	-0.436697	-0.271419	-1.450112
Br	1.933191	0.0	0.0
H	0.458726	-0.434124	-2.062138
H	-0.357023	0.962323	0.35047
H	-0.352495	-0.791825	0.650934
C	-1.146564	0.827231	-2.095965
N	-1.454781	1.768492	-2.728461
N	-1.138366	-1.602835	-1.641973
O	-0.874209	-2.485322	-0.837719
O	-1.758661	-1.735317	-2.686796
Br	-3.210239	0.0	0.0
