12

C	0.0	0.0	0.0
C	-0.558112	-0.046175	-1.403857
Br	1.931851	0.0	0.0
H	-1.668971	-0.037113	-1.256288
H	-0.348312	-0.876294	0.542506
H	-0.353904	0.899367	0.494966
C	-0.150122	-1.216909	-2.163584
N	0.134103	-2.19282	-2.752294
N	-0.233523	1.203418	-2.172789
O	-0.100668	1.106996	-3.389862
O	-0.191302	2.246642	-1.53014
Br	-3.520333	0.0	0.0
