12

C	0.0	0.0	0.0
C	-0.560845	0.061115	-1.402382
Br	1.931846	0.0	0.0
H	-1.671761	0.064697	-1.258481
H	-0.349956	-0.913789	0.474776
H	-0.349058	0.86031	0.562899
C	-0.157388	-1.050621	-2.248335
N	0.130023	-1.982466	-2.902659
N	-0.22944	1.363379	-2.079306
O	-0.127831	1.358722	-3.30322
O	-0.151939	2.352583	-1.359651
Br	-3.532508	0.0	0.0
