12

C	-0.52172	-0.036923	-1.416237
C	0.0	0.0	0.0
F	-0.30916	1.182846	-2.064744
H	1.094335	0.0	0.0
H	-1.605507	-0.214144	-1.440573
H	-0.012603	-0.808542	-2.000418
H	-0.308086	-0.941053	0.475139
C	-0.536821	1.186861	0.790375
H	-0.151932	1.169936	1.812177
H	-1.632517	1.186749	0.833564
H	-0.214147	2.12099	0.329566
Br	3.81622	0.0	0.0
