13
Coordinates from ORCA-job run
  C   0.83949889950075     -0.33020795945406      0.67267050195443
  C   -0.08501509810083      0.36803004203155     -0.32053056721667
  Br  -0.11911729392703     -1.44027716866236      1.94624457709209
  H   0.47146917924331      0.73608196201127     -1.18416978101451
  H   1.33487367010552      0.44073004855302      1.26663974234787
  C   1.83631358049829     -1.12634010567323     -0.02951176655460
  N   2.66769702798418     -1.73976096745189     -0.58903740063537
  N   -0.78626405477597      1.55810701679369      0.26851363895095
  O   -0.66561620397103      1.77111753017337      1.46926078844638
  O   -1.41640476041980      2.22214588956338     -0.54550051930411
  N   -1.12613420841668     -0.58022411598530     -0.85993443681789
  O   -2.26780827282067     -0.48009245232609     -0.43807414094681
  O   -0.68249246490003     -1.39830971957335     -1.65557063630178
