13
Coordinates from ORCA-job run
  C   0.88694530389140     -0.27858233027889      0.63357551775710
  C   -0.11627799601096      0.35295955166526     -0.32715056066092
  Br  0.04013603993360     -1.36915532140008      1.99992848137198
  H   0.37757118559024      0.70982762743424     -1.23262575204237
  H   1.38974181559354      0.52938721975076      1.16924256998919
  C   1.86756536299761     -1.06907992297702     -0.09708602253826
  N   2.68542391212720     -1.67804222078331     -0.68079160417162
  N   -0.82356466472058      1.54009762446601      0.26212331090186
  O   -1.52640546866312      2.15056773586663     -0.53395508830954
  O   -0.63426106018305      1.80456249405719      1.44360934504226
  N   -1.15167585432058     -0.64686802410806     -0.77490411532526
  O   -0.72578603385353     -1.47484540262384     -1.57039599852752
  O   -2.27041254238176     -0.57182903106890     -0.29057008348690
