13
Coordinates from ORCA-job run
  C   1.02918458137479     -0.09548402277435      0.43035666154385
  C   -0.46205699410083     -0.03836213580808      0.16936092109320
  Br  1.35093108038423      0.38840726303619      2.28697914443862
  H   -1.05102941205134     -0.70543444183532      0.79529070100462
  H   1.53421057395926      0.64242094525094     -0.19311687440366
  C   1.53194536648627     -1.43433092922448      0.16578054382598
  N   1.91643222651821     -2.52443589800082     -0.04524098462681
  N   -0.76575223759236     -0.37031717915886     -1.27104563777279
  O   0.11927486439575     -0.14807912385795     -2.09057886542901
  O   -1.89419818803402     -0.79884387774623     -1.48451382246125
  N   -0.97779418320832      1.36045487563046      0.37121996439078
  O   -2.00667192799427      1.47199177960050      1.02667806989613
  O   -0.32547575013733      2.25201274488802     -0.16116982149964
