13
Coordinates from ORCA-job run
  C   1.03011823106959     -0.15469980471988      0.41241754164107
  C   -0.46126709812354     -0.05654308004652      0.16433590016206
  Br  1.35739512106353      0.08940865996844      2.31432244305430
  H   -1.05333079087419     -0.79310221058447      0.70339167671304
  H   1.53837791733205      0.65276252678842     -0.11477062020016
  C   1.52366073811238     -1.45286698954829     -0.01969902561322
  N   1.89985802036774     -2.51057473663127     -0.36633793752100
  N   -0.77007675698588     -0.20317118313856     -1.30540592742722
  O   0.11526077904558      0.11416615890682     -2.09305992971909
  O   -1.90189899776380     -0.59334257332693     -1.56796708948784
  N   -0.96869023178165      1.30880624954831      0.54142336664983
  O   -1.99844666844068      1.34255647299049      1.20404601864154
  O   -0.30996026302113      2.25660050979337      0.12730358310668
