13
Coordinates from ORCA-job run
  C   1.05012127833089     -0.07285300797889      0.38306562318150
  C   -0.45224783570367     -0.05926645488317      0.18807759167189
  Br  1.43692568140645      0.36735310460503      2.23792421936799
  H   -0.99091447619570     -0.76376678036681      0.81828714752942
  H   1.50269287081343      0.69946847858024     -0.23897464727189
  C   1.58416628320511     -1.38572750892367      0.05634992060293
  N   1.99525947022989     -2.45457260473077     -0.20662269368370
  N   -0.80814476714714     -0.35902997015256     -1.24740719683638
  O   0.03264652667220     -0.08337931032327     -2.09696709483224
  O   -1.93065953156006     -0.81809900462035     -1.42545704676195
  N   -1.00506278659931      1.31455254478857      0.45422323220510
  O   -2.01105215376608      1.37043747698062      1.15099024351443
  O   -0.40373055968598      2.24388303702502     -0.07348929868712
