13
Coordinates from ORCA-job run
  C   1.00644853204312     -0.11732163530880      0.51374548119476
  C   -0.18023831774929      0.34131215645997     -0.32614608958439
  Br  0.52509667136172     -0.77729961138415      2.27408124069249
  H   0.17839434484138      0.73720006995042     -1.27917458166296
  H   1.63214430312389      0.75935724838970      0.69029958443950
  C   1.75860556427507     -1.12727750348693     -0.21768223559659
  N   2.36840191191726     -1.92909141488582     -0.82287770465046
  N   -0.93285674976291      1.47171103830142      0.33472204950636
  O   -2.12000755173111      1.57550980087258      0.06601493375360
  O   -0.24949989704123      2.23546868505238      1.00540947490169
  N   -1.11564667305202     -0.77892910102670     -0.66076504459947
  O   -1.02367263695315     -1.20678273839139     -1.80887710105420
  O   -1.84816950127267     -1.18285699454270      0.23224999265966
