13
Coordinates from ORCA-job run
  C   1.03453930086331     -0.14429781237270      0.40589401638717
  C   -0.45921384033183     -0.05020426486629      0.17148060859013
  Br  1.38296246428179      0.15805817368606      2.29582148940336
  H   -1.04615830095623     -0.76819469455148      0.74041422382033
  H   1.53935268971751      0.64503723033101     -0.15112290426447
  C   1.52028823683047     -1.45667330861346      0.00927380983550
  N   1.89058631206357     -2.52553210343080     -0.30853907534312
  N   -0.78524396394861     -0.24180988538129     -1.28963838924413
  O   0.09287527024237      0.04557129904145     -2.09641412597694
  O   -1.92206588678063     -0.63364729981543     -1.52707382343344
  N   -0.96008771199261      1.32756222157166      0.51017785130858
  O   -0.30122425031714      2.26026012546646      0.06309662185332
  O   -1.98561031967195      1.38487031893478      1.17762969706366
