13
Coordinates from ORCA-job run
  C   0.77706853227820     -0.23290342391000      0.85586193002149
  C   -0.53736059655865      0.25424053213872      0.27034507860969
  Br  0.41755631195957     -1.67954413804572      2.10338284987763
  H   -1.19397458260288      0.64600629482692      1.04650788493363
  H   1.18369075483236      0.58702747794269      1.45067647061342
  C   1.76331229003815     -0.61993164441086     -0.14237707975816
  N   2.61388318945024     -0.87133931908401     -0.91294534854554
  N   -1.30237919106549     -0.79250767312631     -0.47199988956995
  O   -2.52327864431790     -0.69469497935357     -0.39921094656602
  O   -0.65456382852566     -1.61981051836407     -1.10058299891867
  N   -0.25393352080375      1.39585391839455     -0.68632588802536
  O   -0.65522199660006      1.30367619734738     -1.83609573389958
  O   0.36320128191584      2.32292727564429     -0.17623632877256
