13
Coordinates from ORCA-job run
  C   0.56018949163747     -0.29931763471313      0.99484838376414
  C   -0.60137502026134      0.20103239040843      0.15280772462591
  Br  0.00631019217400     -1.90118328726738      1.94702188278447
  H   -1.45167877091218      0.47352567722676      0.77739778250170
  H   0.75018278373913      0.45725879368351      1.75807720923322
  C   1.78571219291785     -0.52293855610441      0.24197280491163
  N   2.80862601476476     -0.65140378581124     -0.32152911968218
  N   -1.09048979809233     -0.78413157491479     -0.85797614067482
  O   -2.30167505584764     -0.77495618127624     -1.05387231644964
  O   -0.24842879563729     -1.47937898366415     -1.41188963485738
  N   -0.17327502362052      1.45596210632822     -0.58270457426178
  O   -0.32464282606959      1.49852801201452     -1.79367769597379
  O   0.27854461520772      2.32700302408990      0.15052369407851
