13
Coordinates from ORCA-job run
  C   0.88732689644610     -0.28359134935460      0.72096196221096
  C   -0.50658092099629      0.20054815974763      0.35941702913807
  Br  0.73504799199062     -1.88408179355769      1.81417106439105
  H   -1.07319049666308      0.46972307082178      1.25044828497762
  H   1.33370905494952      0.47966215674260      1.36059816586443
  C   1.75821481137799     -0.50417807944052     -0.42445091829113
  N   2.51404704748382     -0.67497584489624     -1.30761270947239
  N   -1.32037997533761     -0.79593537069434     -0.39951615600663
  O   -2.51774085873940     -0.80680481471680     -0.13183548903974
  O   -0.73272696279370     -1.48002100982113     -1.22771047298092
  N   -0.39086726745043      1.45448050806445     -0.48581761281139
  O   -0.98622196046891      1.49270622425687     -1.55124342304538
  O   0.29736264020133      2.33046814284797      0.02359027506545
