13
Coordinates from ORCA-job run
  C   0.93295398372914     -0.22919334253859      0.68568132439312
  C   -0.49333330062009      0.19533092270437      0.37915053312313
  Br  0.89265119974302     -1.78597796860499      1.84932666599810
  H   -1.02223739716946      0.48413087048390      1.28700961877123
  H   1.38679538919347      0.57422868625289      1.26845619749403
  C   1.74784458332790     -0.46725701551097     -0.49670153231488
  N   2.45140400849144     -0.60029728483627     -1.42820746327070
  N   -1.31103517338593     -0.85733507973405     -0.29529376785151
  O   -2.49458070961052     -0.88663926294889      0.02688732914175
  O   -0.74176504576168     -1.56450312923275     -1.11690509322583
  N   -0.46212761169904      1.41548406022196     -0.52049799837063
  O   -1.09630657291277      1.38344223736655     -1.56358674963108
  O   0.20873664667456      2.33858630637691     -0.07531906425670
