13
Coordinates from ORCA-job run
  C   1.11999232678758     -0.25828113091902      0.26284469961066
  C   -0.00695653028261      0.51521824704677     -0.40038809732075
  Br  2.12728663007442      0.94939852323573      1.40582105839032
  H   0.38144440372677      1.31256833022602     -1.03342049879484
  H   1.80397777051528     -0.56835044233690     -0.52902597562079
  C   0.68120980488118     -1.44021568078274      0.99042018504618
  N   0.38272270876168     -2.44246029744301      1.52600627740615
  N   -0.96585441982731      1.13780928722806      0.56095628258370
  O   -1.23598167452592      0.49959793487940      1.57044589882042
  O   -1.41397733368269      2.22832712894180      0.22135857121881
  N   -0.78633071619661     -0.42319540145730     -1.30119622928724
  O   -0.08956326926480     -1.01634003187510     -2.11553219228567
  O   -1.99696970096702     -0.49307646674369     -1.15728997976694
