13
Coordinates from ORCA-job run
  C   0.77036336780811     -0.29160646284704      0.84459036804466
  C   -0.57448138545739      0.13159695493809      0.27851350333104
  Br  0.55938479139826     -1.98513549447764      1.77546441214266
  H   -1.30520695348224      0.28627316707599      1.07190455657034
  H   1.04143987704203      0.44197004281887      1.60582047346041
  C   1.83687492426654     -0.35493577684977     -0.14407389272942
  N   2.73952038446533     -0.34886002672283     -0.89614682646802
  N   -1.16510586680534     -0.84560809617379     -0.68475865507252
  O   -0.39095558478414     -1.42766136479207     -1.43387570832264
  O   -2.38726361781147     -0.94609255477528     -0.64455005293632
  N   -0.41276275185304      1.45841348504727     -0.43751016248098
  O   -0.80113974288650      1.54551179161570     -1.59198509861322
  O   0.09033255809985      2.33413433514251      0.25560708307401
