13
Coordinates from ORCA-job run
  C   0.84010805105017     -0.33957601113566      0.66566709241202
  C   -0.09036773118607      0.37766055011016     -0.30788736427630
  Br  -0.10667175236529     -1.51162631587628      1.89165809061073
  H   0.46511894414077      0.78884068877273     -1.15252355978870
  H   1.31778800819802      0.41822687111981      1.29032881250329
  C   1.85614228754305     -1.09181850679165     -0.05710883394676
  N   2.70772196199868     -1.67104323968877     -0.62267289632020
  N   -0.81795973315062      1.53209316273910      0.31991679510770
  O   -0.70797741834905      1.70338991008557      1.52833026118818
  O   -1.45414035003265      2.21456800424383     -0.47382655226512
  N   -1.10899812621320     -0.56816678977368     -0.89121793466986
  O   -0.64430561635525     -1.34601924610874     -1.71503774829702
  O   -2.25545852527856     -0.50652907769645     -0.47462616225797
