13
Coordinates from ORCA-job run
  C   0.96492256528663     -0.25998566245415      0.62806741308636
  C   -0.46600228250266      0.20118619843425      0.40910543059683
  Br  0.95343140929857     -1.83235530772676      1.77170024649589
  H   -0.93528402458454      0.48872669174510      1.34957049911542
  H   1.46964216092564      0.52396674260447      1.19529167244408
  C   1.70620310299614     -0.49967705512137     -0.60134813076166
  N   2.35157820060312     -0.63856161371804     -1.57324765835407
  N   -1.34537913214990     -0.82244277722336     -0.23144510042744
  O   -0.84034228118478     -1.53003024207420     -1.09376379819001
  O   -2.50903708432962     -0.82967128269018      0.15732508583323
  N   -0.45759803248174      1.43333742265621     -0.47478289634732
  O   -1.15256134375170      1.43168086195051     -1.47884985630608
  O   0.26042674187491      2.33382602361748     -0.05762290718523
