13
Coordinates from ORCA-job run
  C   0.97235027243062     -0.13157683924277      0.57645468419582
  C   -0.12064844247359      0.32271460696219     -0.38063870492601
  Br  0.32767045324192     -0.50034254784151      2.36978405443651
  H   0.31786139540782      0.70742971738144     -1.30322782245672
  H   1.65779279162293      0.71283131295764      0.68324881309989
  C   1.69060502824310     -1.26911587162427      0.02182805535158
  N   2.29626547432148     -2.15319433832534     -0.45984604731457
  N   -0.87730282506915      1.47288386468702      0.23935348834132
  O   -2.05513661692150      1.31210587895669      0.51681484076391
  O   -0.18743509462896      2.46773118689837      0.42343962831157
  N   -1.09889340808136     -0.73524469361181     -0.78858566813783
  O   -1.77779848751144     -0.43728767899634     -1.76526725956146
  O   -1.14433054058191     -1.76893459820125     -0.13335806210398
