14

C	-0.51681	-0.09671	-1.427999
C	0.0	0.0	0.0
Cl	0.186859	-1.460215	-2.288101
H	1.102318	0.0	0.0
H	-0.351986	0.954498	0.403207
N	-2.052942	-0.271178	-1.356972
O	-2.639511	0.700396	-0.885334
O	-2.56302	-1.325836	-1.694244
C	-0.289267	1.132772	-2.184209
N	-0.124667	2.124102	-2.793087
N	-0.470181	-1.152637	0.755514
H	0.349683	-1.620031	1.128082
H	-1.047807	-0.862692	1.531777
H	2.798012	0.0	0.0
