14

C	-0.579637	0.110701	-1.392648
C	0.0	0.0	0.0
Cl	0.047433	1.554379	-2.228085
H	1.095292	0.0	0.0
H	-0.317796	0.899216	0.539618
N	-0.195969	-1.102213	-2.252745
O	-0.841045	-1.243964	-3.289237
O	0.725288	-1.79965	-1.863667
C	-2.041608	0.167649	-1.384336
N	-3.210382	0.26223	-1.298814
N	-0.52006	-1.229238	0.595682
H	0.27949	-1.81117	0.822125
H	-1.02192	-1.03115	1.449239
H	2.845396	0.0	0.0
