14

C	-0.452503	0.040241	-1.440416
C	0.0	0.0	0.0
Cl	-2.21893	0.347975	-1.639222
H	1.101765	0.0	0.0
H	-0.327647	-0.962575	0.404891
N	0.234939	1.170666	-2.219274
O	0.635288	2.126747	-1.577781
O	0.295675	1.027915	-3.437074
C	-0.150907	-1.214868	-2.124206
N	0.02751	-2.264992	-2.618804
N	-0.508102	1.127752	0.768595
H	-0.952943	0.793154	1.612047
H	0.295301	1.685599	1.035881
H	2.786348	0.0	0.0
