14

C	-0.570764	0.00974	-1.40131
C	0.0	0.0	0.0
Cl	0.075611	1.377213	-2.342213
H	1.100718	0.0	0.0
H	-0.312201	0.939992	0.470572
N	-0.19644	-1.269384	-2.162246
O	-0.865573	-1.501961	-3.168109
O	0.742242	-1.922276	-1.741435
C	-2.031417	0.083541	-1.39685
N	-3.197272	0.192001	-1.287877
N	-0.513584	-1.186089	0.675872
H	0.281033	-1.693604	1.049815
H	-1.135461	-0.940085	1.433805
H	2.840773	0.0	0.0
