14

C	-0.515582	-0.139827	-1.422884
C	0.0	0.0	0.0
Cl	0.143448	-1.566972	-2.211949
H	1.106677	0.0	0.0
H	-0.35478	0.96451	0.374819
N	-2.062161	-0.252932	-1.359359
O	-2.611947	0.753637	-0.918697
O	-2.612163	-1.291464	-1.680358
C	-0.241466	1.045066	-2.234967
N	-0.054273	1.996485	-2.897329
N	-0.506805	-1.118165	0.792764
H	-0.90134	-0.775051	1.658009
H	0.292443	-1.689755	1.035212
H	2.817321	0.0	0.0
