17

C	-0.239818	-0.23677	-1.502337
C	0.0	0.0	0.0
Cl	-1.886358	-0.972823	-1.868017
H	1.093229	0.0	0.0
N	-0.307719	1.113477	-2.309311
O	-1.272197	1.843356	-2.131419
O	0.628359	1.327455	-3.072355
N	0.779675	-1.07042	-1.926823
H	0.873956	-1.095438	-2.932509
H	1.672255	-0.80117	-1.460047
N	-0.404674	-1.05074	0.864122
H	0.343235	-1.732716	0.891645
H	-1.269847	-1.48605	0.57699
N	-0.53677	1.305689	0.459075
O	0.122873	2.301775	0.1608
O	-1.582766	1.314386	1.105843
H	2.651629	0.0	0.0
