17

C	-0.213482	-0.07126	-1.524479
C	0.0	0.0	0.0
Cl	-0.248341	-1.905533	-2.01911
H	1.103753	0.0	0.0
N	-1.621237	0.336628	-1.983746
O	-2.547883	0.016132	-1.245849
O	-1.722576	0.936389	-3.047997
N	0.747663	0.655156	-2.158834
H	1.658745	0.566097	-1.676751
H	0.775341	0.558165	-3.161734
N	-0.500881	-1.002876	0.855688
H	-1.407978	-1.34391	0.575625
H	0.172791	-1.752669	0.904644
N	-0.468684	1.355864	0.453566
O	-1.438118	1.411405	1.210418
O	0.158654	2.334239	0.046197
H	2.673053	0.0	0.0
