16

C	0.0	0.0	0.0
C	-0.455488	-0.087564	-1.46888
F	1.36198	0.0	0.0
H	0.359847	0.415359	-2.005757
H	-0.391552	-0.764843	0.667765
N	-0.34461	1.320401	0.644012
O	-0.160139	2.330267	-0.033932
O	-0.678652	1.304158	1.824955
N	-1.705555	0.519079	-1.857323
H	-2.468451	0.232669	-1.186515
H	-1.625081	1.524963	-1.754853
C	-0.478823	-1.569176	-1.840706
H	-0.593485	-1.661963	-2.921441
H	-1.34666	-2.033171	-1.365637
H	0.431636	-2.091204	-1.529053
H	-3.489018	0.0	0.0
