16

C	0.0	0.0	0.0
C	-0.45832	-0.096612	-1.469736
F	1.361918	0.0	0.0
H	0.376138	0.366212	-2.012591
H	-0.390831	-0.760887	0.67251
N	-0.337276	1.323378	0.641281
O	-0.126822	2.330889	-0.033012
O	-0.686515	1.312294	1.818123
N	-1.685915	0.545212	-1.871045
H	-1.576116	1.548133	-1.768033
H	-2.455141	0.27511	-1.204702
C	-0.53258	-1.581689	-1.816923
H	-1.403879	-2.013221	-1.318564
H	-0.669738	-1.686104	-2.894489
H	0.370745	-2.122952	-1.51372
H	-3.456847	0.0	0.0
