16

C	0.0	0.0	0.0
C	-0.294576	-0.30658	-1.499836
F	1.354721	0.0	0.0
H	0.585056	-0.897918	-1.780818
H	-0.376483	-0.79636	0.663608
N	-0.639141	1.212301	0.482053
O	-1.815754	1.354037	-0.093153
O	-0.392105	1.53204	1.674001
N	-0.200724	0.943241	-2.26309
H	-1.008508	1.491311	-1.983207
H	-0.296187	0.713466	-3.247799
C	-1.508819	-1.163169	-1.833821
H	-1.501335	-2.107259	-1.276878
H	-1.484651	-1.397084	-2.907847
H	-2.432888	-0.645882	-1.573498
H	-2.986059	0.0	0.0
