16

C	0.0	0.0	0.0
C	-0.201606	-0.000956	-1.569048
F	1.363168	0.0	0.0
H	0.275335	-0.948681	-1.860002
H	-0.32359	-0.896481	0.518554
N	-0.651548	1.113869	0.689797
O	-0.629257	1.057884	1.95242
O	-0.668104	2.22789	0.07385
N	0.589426	1.067102	-2.210131
H	1.546237	0.97765	-1.887971
H	0.24216	1.924038	-1.786585
C	-1.577215	0.036857	-2.213321
H	-2.195309	-0.813788	-1.932448
H	-1.415534	0.04069	-3.297067
H	-2.104123	0.946765	-1.919849
H	-2.101907	0.0	0.0
