16

C	0.0	0.0	0.0
C	-0.548192	-0.047894	-1.414103
F	1.365688	0.0	0.0
H	0.216634	0.471473	-2.010375
H	-0.38142	-0.767637	0.672962
N	-0.324137	1.329025	0.65445
O	-1.001253	1.308223	1.676478
O	0.19847	2.314831	0.15061
N	-1.779688	0.703627	-1.481714
H	-2.146058	0.659095	-2.425045
H	-2.555139	0.343799	-0.852851
C	-0.612214	-1.51657	-1.85832
H	0.349543	-2.028497	-1.718044
H	-0.870074	-1.567943	-2.920192
H	-1.394823	-2.033609	-1.296526
H	-3.861398	0.0	0.0
