17

C	-0.502471	-0.094611	-1.434475
C	0.0	0.0	0.0
F	-0.240013	1.154897	-2.038
H	1.093729	0.0	0.0
H	-0.348934	0.95312	0.418907
C	0.269234	-1.141712	-2.207741
H	-0.060816	-1.17004	-3.250533
H	1.334482	-0.904323	-2.163128
H	0.113666	-2.120734	-1.750506
C	-2.004348	-0.291745	-1.507917
H	-2.512853	0.529219	-0.9917
H	-2.279969	-1.235289	-1.03604
H	-2.332964	-0.297088	-2.550487
N	-0.448343	-1.171515	0.773315
H	0.332193	-1.495532	1.330333
H	-1.188803	-0.911111	1.411274
Cl	3.602014	0.0	0.0
