17

C	-0.405856	-0.011428	-1.466366
C	0.0	0.0	0.0
F	-1.832913	-0.022444	-1.531449
H	1.094892	0.0	0.0
H	-0.349592	0.939748	0.442249
C	0.067612	1.249827	-2.155326
H	-0.254398	1.260209	-3.2006
H	1.157879	1.303314	-2.105847
H	-0.348796	2.127409	-1.654372
C	0.073129	-1.258491	-2.179545
H	-0.237411	-1.237962	-3.22789
H	-0.353552	-2.148822	-1.713697
H	1.1631	-1.315501	-2.12016
N	-0.497994	-1.11482	0.80038
H	0.092785	-1.92471	0.654814
H	-1.440516	-1.345994	0.501199
Cl	3.58678	0.0	0.0
