16

C	-0.270887	-0.065713	-1.491042
C	0.0	0.0	0.0
Br	-2.357047	-0.622683	-1.734157
H	1.097342	0.0	0.0
H	-0.364642	0.94696	0.410873
N	-0.038118	1.1451	-2.115828
H	-0.170954	1.092764	-3.115207
H	-0.499204	1.934168	-1.690996
N	0.422533	-1.086967	-2.223067
H	1.415368	-0.933999	-2.029828
H	0.168703	-1.997039	-1.861065
C	-0.470466	-1.174313	0.841844
H	-0.163977	-2.123608	0.396067
H	0.004451	-1.11737	1.824267
H	-1.553966	-1.189248	0.965743
Br	3.620417	0.0	0.0
