16

C	-0.379241	-0.066424	-1.481894
C	0.0	0.0	0.0
Br	-0.21738	1.779282	-2.223576
H	1.093673	0.0	0.0
H	-0.380385	0.912489	0.460823
N	0.535753	-0.863944	-2.284102
H	1.490271	-0.558726	-2.087636
H	0.472531	-1.819433	-1.939069
N	-1.75147	-0.460533	-1.685042
H	-1.906253	-1.344466	-1.209681
H	-1.879845	-0.61253	-2.680098
C	-0.460634	-1.223852	0.792183
H	-0.145949	-2.15686	0.313864
H	0.012838	-1.207822	1.776373
H	-1.544726	-1.247258	0.939548
Br	3.667418	0.0	0.0
