16

C	-0.237876	-0.028476	-1.501614
C	0.0	0.0	0.0
Br	-2.235757	-0.014882	-1.874693
H	1.098798	0.0	0.0
H	-0.35568	0.954654	0.395813
N	0.325404	1.151881	-2.070929
H	0.467939	0.991618	-3.062001
H	1.229797	1.315052	-1.631506
N	0.252733	-1.212714	-2.18157
H	1.247192	-1.26555	-1.955915
H	-0.197575	-2.043708	-1.815359
C	-0.530607	-1.173627	0.800376
H	-0.112954	-2.118062	0.442328
H	-0.226105	-1.069776	1.844988
H	-1.62162	-1.234261	0.759997
Br	3.590367	0.0	0.0
