16

C	-0.228383	0.07512	-1.501653
C	0.0	0.0	0.0
Br	-2.216858	0.113253	-1.896316
H	1.100837	0.0	0.0
H	-0.358738	-0.965565	0.364069
N	0.300551	1.26504	-2.14531
H	-0.134848	2.097583	-1.761702
H	1.292998	1.287468	-1.903769
N	0.31434	-1.107489	-2.098733
H	0.456713	-0.917654	-3.086412
H	1.222038	-1.280551	-1.668163
C	-0.52973	1.150182	0.83465
H	-1.6208	1.212528	0.794625
H	-0.226188	1.016817	1.876573
H	-0.111777	2.104641	0.503829
Br	3.588419	0.0	0.0
