16

C	-0.383346	0.351821	-1.437569
C	0.0	0.0	0.0
Br	-0.349833	-1.479833	-2.480697
H	1.094524	0.0	0.0
H	-0.372485	-0.985514	0.27786
N	-1.718847	0.823464	-1.72256
H	-1.842098	1.694237	-1.21374
H	-2.398688	0.146794	-1.39578
N	0.528387	1.273038	-1.94402
H	1.494306	1.034633	-1.728342
H	0.381231	1.4669	-2.924961
C	-0.473525	1.068202	0.983773
H	-0.039256	0.869753	1.965866
H	-0.129863	2.055344	0.667088
H	-1.562913	1.087106	1.092894
Br	3.649352	0.0	0.0
