16

C	-0.17696	-0.038949	-1.533956
C	0.0	0.0	0.0
Br	-0.059565	1.889161	-2.23857
H	1.095785	0.0	0.0
N	0.890241	-0.826346	-2.001174
H	1.763877	-0.583665	-1.489003
H	0.996166	-0.792398	-3.006021
N	-1.50266	-0.4528	-1.964264
H	-1.616908	-0.248258	-2.950982
H	-1.527178	-1.462747	-1.847531
C	-0.461916	-1.296945	0.508857
N	-0.881474	-2.300589	0.958768
N	-0.583663	1.122906	0.694324
H	-1.560148	0.953261	0.900183
H	-0.078662	1.258348	1.561064
F	2.652287	0.0	0.0
