16

C	-0.204337	0.04044	-1.527803
C	0.0	0.0	0.0
Br	-0.006463	-1.894591	-2.247483
H	1.100836	0.0	0.0
N	-1.523578	0.438257	-1.893667
H	-1.750299	1.203257	-1.261952
H	-1.539899	0.766597	-2.85189
N	0.870435	0.831904	-2.005118
H	1.742373	0.558705	-1.509031
H	0.981921	0.77198	-3.007744
C	-0.652579	-1.088651	0.693343
N	-1.147677	-1.936982	1.338401
N	-0.487886	1.30572	0.526853
H	0.268598	1.956894	0.32526
H	-0.532668	1.228792	1.537673
F	2.652844	0.0	0.0
