16

C	-0.210241	0.083221	-1.53364
C	0.0	0.0	0.0
Br	-0.196952	-1.912385	-2.249219
H	1.101098	0.0	0.0
N	-1.461805	0.595319	-2.034345
H	-2.18981	-0.081707	-1.835938
H	-1.633249	1.414099	-1.450412
N	0.862002	0.817836	-1.996629
H	1.74783	0.561225	-1.525685
H	0.892359	0.915119	-2.998846
C	-0.669332	-1.083353	0.678998
N	-1.246071	-1.881777	1.319753
N	-0.444029	1.308654	0.552988
H	-0.789404	1.166769	1.493912
H	0.406797	1.855764	0.637735
F	2.642826	0.0	0.0
