16

C	0.009635	-0.070193	-1.53131
C	0.0	0.0	0.0
Br	-1.855693	-0.103895	-2.273702
H	1.099239	0.0	0.0
N	0.664925	1.093385	-2.084319
H	1.59815	1.035935	-1.654054
H	0.216133	1.908496	-1.673427
N	0.690901	-1.281225	-1.878932
H	0.89607	-1.238129	-2.872349
H	1.578477	-1.218396	-1.364512
C	-0.558296	-1.178184	0.646602
N	-1.015457	-2.081125	1.246461
N	-0.513055	1.264929	0.49759
H	-0.0086	1.506987	1.34277
H	-1.500449	1.188804	0.716819
F	2.63889	0.0	0.0
