16

C	-0.193871	0.011585	-1.525548
C	0.0	0.0	0.0
Br	0.267995	1.996264	-2.084802
H	1.095154	0.0	0.0
N	0.805961	-0.761513	-2.181057
H	0.533976	-1.736502	-2.094679
H	1.681754	-0.603792	-1.653616
N	-1.494545	-0.303822	-1.941706
H	-2.157321	0.245186	-1.406696
H	-1.61188	-0.141714	-2.933641
C	-0.447864	-1.302163	0.488158
N	-0.777964	-2.320314	0.975262
N	-0.736343	1.057087	0.706915
H	-0.22	1.913807	0.535727
H	-0.654433	0.869027	1.700248
F	2.631101	0.0	0.0
