15

C	-0.5301	-0.049568	-1.412007
C	0.0	0.0	0.0
Cl	0.124563	1.418592	-2.322503
H	1.087592	0.0	0.0
H	-1.611227	0.089965	-1.441679
N	-0.134449	-1.280756	-1.986077
H	0.872074	-1.391465	-1.892601
H	-0.396367	-1.323545	-2.961445
N	-0.443453	-1.236021	0.711416
O	-1.57202	-1.219774	1.213855
O	0.32679	-2.189253	0.719768
N	-0.51932	1.11884	0.789772
O	-1.342805	1.89507	0.292375
O	-0.049763	1.211762	1.927127
H	2.562831	0.0	0.0
