15

C	-0.273876	0.019872	-1.491335
C	0.0	0.0	0.0
Cl	-2.034573	-0.019395	-1.872393
H	1.090877	0.0	0.0
H	0.124099	-0.926853	-1.855147
N	0.381182	1.092005	-2.190235
H	1.371157	0.992541	-1.955454
H	0.057763	1.965226	-1.788661
N	-0.467166	-1.236904	0.625795
O	-1.206302	-1.21083	1.610609
O	-0.055323	-2.265509	0.077483
N	-0.393825	1.17579	0.760178
O	-0.038007	1.204187	1.941095
O	-0.929337	2.124554	0.164023
H	2.442087	0.0	0.0
