15

C	-0.538836	-0.053475	-1.408444
C	0.0	0.0	0.0
Cl	0.108683	1.414997	-2.324977
H	1.087603	0.0	0.0
H	-1.620007	0.086436	-1.430025
N	-0.148907	-1.28478	-1.984704
H	-0.421427	-1.329224	-2.957514
H	0.858456	-1.396846	-1.900803
N	-0.441289	-1.232603	0.718552
O	-1.562704	-1.210282	1.236321
O	0.324025	-2.189696	0.717407
N	-0.516727	1.123531	0.786607
O	-1.354653	1.887496	0.294293
O	-0.030949	1.231179	1.916041
H	2.564497	0.0	0.0
