15

C	-0.42377	-0.008621	-1.44245
C	0.0	0.0	0.0
Cl	-2.241416	-0.502262	-1.59365
H	1.089548	0.0	0.0
H	0.084433	-0.853535	-1.901423
N	-0.116171	1.183503	-2.112836
H	-0.645728	1.955831	-1.733416
H	-0.255641	1.094627	-3.108209
N	-0.377744	-1.251645	0.65955
O	0.018612	-2.26525	0.075747
O	-1.017192	-1.242055	1.712225
N	-0.418952	1.145439	0.781826
O	0.100207	1.247462	1.898444
O	-1.165801	2.003618	0.274665
H	2.392947	0.0	0.0
