15

C	-0.398988	-0.264643	-1.447782
C	0.0	0.0	0.0
Cl	0.157636	-1.915689	-1.877108
H	1.095945	0.0	0.0
H	0.221484	0.410593	-2.039147
N	-1.7802	-0.099184	-1.824123
H	-2.344231	-0.594181	-1.144091
H	-1.984837	0.891628	-1.755846
N	-0.488315	-0.997716	0.964325
O	0.197154	-1.194036	1.964521
O	-1.547008	-1.588526	0.709778
N	-0.418943	1.298547	0.416725
O	-0.740951	1.505518	1.602055
O	-0.307579	2.197077	-0.450051
H	2.367935	0.0	0.0
