15

C	-0.277133	0.008365	-1.47812
C	0.0	0.0	0.0
Cl	-2.040718	0.118764	-1.919066
H	1.103325	0.0	0.0
H	-0.00377	-0.992919	-1.81872
N	0.477613	1.071975	-2.074845
H	0.591097	0.883526	-3.06399
H	1.406191	1.037964	-1.638558
N	-0.473843	-1.227953	0.636756
O	-0.07828	-2.27179	0.106007
O	-1.193075	-1.173053	1.635241
N	-0.392288	1.183437	0.772304
O	0.074632	1.232795	1.912162
O	-1.058358	2.071854	0.238903
H	2.4644	0.0	0.0
