16

C	0.0	0.0	0.0
C	-0.250138	0.046056	-1.540632
Cl	1.756569	0.0	0.0
H	0.483711	0.746849	-1.935994
H	-0.42687	-0.852884	0.501212
N	-0.463373	1.236004	0.684727
O	-0.505252	2.267177	0.018749
O	-0.613259	1.162555	1.897469
C	-1.56609	0.335424	-2.24093
H	-2.295626	-0.431591	-2.022581
H	-1.331327	0.415293	-3.31039
H	-1.969393	1.268947	-1.866765
N	0.220828	-1.281215	-2.079343
O	0.780677	-1.266855	-3.176745
O	-0.030275	-2.301001	-1.441182
F	-2.364154	0.0	0.0
