16

C	0.0	0.0	0.0
C	-0.250411	-0.071713	-1.541286
Cl	1.756913	0.0	0.0
H	0.481396	0.598535	-1.990547
H	-0.427261	-0.812802	0.564242
N	-0.46334	1.284627	0.588672
O	-0.522318	2.258528	-0.156506
O	-0.593555	1.308092	1.805388
C	-1.569802	0.157526	-2.256944
H	-1.957477	1.131888	-1.980533
H	-2.305494	-0.572002	-1.944116
H	-1.345907	0.123451	-3.331881
N	0.226157	-1.435541	-1.976069
O	-0.035885	-2.405445	-1.268365
O	0.801899	-1.501247	-3.063291
F	-2.375486	0.0	0.0
