17

C	-0.355034	0.001255	-1.501751
C	0.0	0.0	0.0
F	-1.753927	0.00098	-1.634269
H	1.097255	0.0	0.0
C	0.184418	1.25991	-2.147832
H	-0.020619	1.234442	-3.220767
H	-0.295795	2.143003	-1.722094
H	1.262612	1.320328	-1.980422
C	0.184646	-1.255639	-2.150793
H	1.262824	-1.316024	-1.982661
H	-0.019489	-1.227428	-3.223971
H	-0.296135	-2.140003	-1.727737
C	-0.497586	-1.197078	0.674357
N	-0.888384	-2.168134	1.206835
C	-0.497546	1.196117	0.675982
N	-0.888437	2.166925	1.208823
Cl	3.215489	0.0	0.0
