17

C	-0.443284	0.055169	-1.486606
C	0.0	0.0	0.0
F	-0.052152	-1.168952	-2.036211
H	1.096875	0.0	0.0
C	-1.946663	0.150176	-1.651854
H	-2.435364	-0.690337	-1.153952
H	-2.193391	0.113076	-2.715714
H	-2.327944	1.083752	-1.233258
C	0.322603	1.148621	-2.200771
H	0.102609	1.100028	-3.270362
H	0.03477	2.133811	-1.825586
H	1.392684	1.004555	-2.036084
C	-0.515023	-1.199279	0.656767
N	-0.963994	-2.157243	1.166445
C	-0.462438	1.194953	0.703385
N	-0.843571	2.17541	1.226422
Cl	3.23353	0.0	0.0
