17

C	-0.441977	-0.046039	-1.487027
C	0.0	0.0	0.0
F	-0.036993	1.174678	-2.033354
H	1.096863	0.0	0.0
C	0.31363	-1.145556	-2.201733
H	1.384561	-1.01625	-2.030719
H	0.099533	-1.088423	-3.272195
H	0.010892	-2.128378	-1.833143
C	-1.945844	-0.124443	-1.655597
H	-2.19037	-0.08875	-2.719989
H	-2.424844	0.723856	-1.162147
H	-2.338887	-1.051498	-1.233662
C	-0.463943	-1.198342	0.695919
N	-0.84553	-2.181342	1.213827
C	-0.513827	1.196384	0.662414
N	-0.961882	2.152469	1.176501
Cl	3.239168	0.0	0.0
