17

C	-0.355004	0.001553	-1.501659
C	0.0	0.0	0.0
F	-1.753604	0.001986	-1.634545
H	1.097278	0.0	0.0
C	0.18515	1.260339	-2.14721
H	-0.294667	2.143429	-1.721244
H	1.263325	1.32023	-1.979667
H	-0.019837	1.235608	-3.220123
C	0.184546	-1.255353	-2.150511
H	-0.295176	-2.139828	-1.72636
H	-0.021229	-1.227487	-3.223279
H	1.262802	-1.315395	-1.983823
C	-0.497632	-1.197182	0.674026
N	-0.888388	-2.168056	1.206886
C	-0.497479	1.195898	0.676283
N	-0.888104	2.165779	1.210995
Cl	3.214437	0.0	0.0
