17

C	-0.355535	-7.8e-05	-1.501563
C	0.0	0.0	0.0
F	-1.754202	0.000364	-1.633642
H	1.097248	0.0	0.0
C	0.183709	1.257024	-2.150348
H	1.262388	1.315833	-1.985658
H	-0.294534	2.141614	-1.724777
H	-0.02415	1.230325	-3.222786
C	0.183772	-1.258426	-2.148413
H	-0.021885	-1.232432	-3.221085
H	1.261892	-1.319065	-1.981597
H	-0.296129	-2.141718	-1.722927
C	-0.497168	-1.196709	0.675117
N	-0.88738	-2.167027	1.20935
C	-0.497594	1.196379	0.675427
N	-0.888956	2.168512	1.205534
Cl	3.21461	0.0	0.0
