17

C	-0.353642	-0.213041	-1.488081
C	0.0	0.0	0.0
F	-1.753838	-0.23926	-1.617611
H	1.1008	0.0	0.0
C	0.178683	0.944305	-2.306027
H	-0.308252	1.875526	-2.01168
H	1.256337	1.035033	-2.148857
H	-0.024212	0.764296	-3.364237
C	0.191668	-1.546705	-1.953018
H	-0.017434	-1.672173	-3.018313
H	1.270918	-1.575514	-1.783387
H	-0.280734	-2.365107	-1.406327
C	-0.499255	-1.089505	0.83523
N	-0.904926	-1.977118	1.488814
C	-0.500528	1.281079	0.493115
N	-0.905514	2.31929	0.86272
Cl	3.213608	0.0	0.0
