17

C	-0.442492	0.077597	-1.485533
C	0.0	0.0	0.0
F	-0.045165	-1.135049	-2.054783
H	1.100786	0.0	0.0
C	-1.946342	0.168487	-1.650581
H	-2.431639	-0.681814	-1.16573
H	-2.332178	1.093846	-1.21829
H	-2.191768	0.146636	-2.715181
C	0.318486	1.186937	-2.181416
H	1.38951	1.045287	-2.018459
H	0.099307	1.154941	-3.251958
H	0.025517	2.164254	-1.790209
C	-0.511249	-1.210921	0.637798
N	-0.951886	-2.179763	1.134205
C	-0.466247	1.181596	0.722571
N	-0.86735	2.144301	1.263292
Cl	3.232641	0.0	0.0
