17

C	-0.438196	-0.096262	-1.48519
C	0.0	0.0	0.0
F	-0.030861	-1.362313	-1.910662
H	1.103539	0.0	0.0
C	-1.941189	-0.035578	-1.664751
H	-2.18144	-0.179409	-2.720995
H	-2.335099	0.92957	-1.341482
H	-2.423131	-0.828613	-1.089079
C	0.316334	0.931592	-2.300881
H	0.015931	1.944165	-2.022147
H	0.098567	0.77819	-3.360861
H	1.38757	0.81622	-2.121837
C	-0.522811	-1.122876	0.77309
N	-0.991586	-2.020378	1.368449
C	-0.467076	1.259375	0.57508
N	-0.879315	2.27482	0.997251
Cl	3.234078	0.0	0.0
