17

C	-0.44243	-0.032139	-1.487322
C	0.0	0.0	0.0
F	-0.049654	1.199689	-2.017237
H	1.096769	0.0	0.0
C	0.323951	-1.114876	-2.21735
H	0.035638	-2.105394	-1.857365
H	0.105085	-1.050423	-3.286356
H	1.393935	-0.973386	-2.049182
C	-1.945719	-0.124156	-1.656767
H	-2.435012	0.708497	-1.146049
H	-2.328292	-1.064073	-1.254277
H	-2.190228	-0.069951	-2.720394
C	-0.464019	-1.204979	0.685325
N	-0.867782	-2.181917	1.197806
C	-0.515139	1.188805	0.675639
N	-0.965022	2.13804	1.200561
Cl	3.234912	0.0	0.0
