17

C	-0.440983	-0.178787	-1.476924
C	0.0	0.0	0.0
F	-0.048059	0.99368	-2.126705
H	1.104242	0.0	0.0
C	0.323704	-1.32922	-2.095525
H	1.394001	-1.174674	-1.941275
H	0.106357	-1.369199	-3.165907
H	0.032439	-2.279141	-1.641032
C	-1.944385	-0.286999	-1.636763
H	-2.328211	-1.179504	-1.138499
H	-2.432899	0.594862	-1.215657
H	-2.1887	-0.343447	-2.700403
C	-0.461768	-1.135159	0.796989
N	-0.860749	-2.066331	1.392481
C	-0.522131	1.245363	0.555648
N	-0.991177	2.234622	0.981892
Cl	3.234773	0.0	0.0
