17

C	-0.35365	1.8e-05	-1.501786
C	0.0	0.0	0.0
F	-1.752458	-0.000143	-1.635467
H	1.100307	0.0	0.0
C	0.186043	1.257906	-2.148967
H	-0.019923	1.231865	-3.221839
H	-0.293511	2.141686	-1.723472
H	1.264467	1.317727	-1.982294
C	0.186322	-1.257689	-2.149135
H	-0.29305	-2.141628	-1.723772
H	-0.019626	-1.231589	-3.22201
H	1.264769	-1.317277	-1.982452
C	-0.497404	-1.196157	0.675306
N	-0.890146	-2.161621	1.216519
C	-0.49743	1.196126	0.675344
N	-0.890202	2.161561	1.216592
Cl	3.216424	0.0	0.0
