17

C	-0.440781	0.191243	-1.475867
C	0.0	0.0	0.0
F	-0.030378	-0.967766	-2.1388
H	1.104331	0.0	0.0
C	-1.945435	0.280547	-1.637446
H	-2.343758	1.153168	-1.116554
H	-2.188798	0.362306	-2.699504
H	-2.420651	-0.619803	-1.241944
C	0.310325	1.360094	-2.079077
H	1.382407	1.220226	-1.920166
H	0.000108	2.301374	-1.618228
H	0.098631	1.40549	-3.150269
C	-0.514567	-1.256359	0.541697
N	-0.965831	-2.254345	0.964606
C	-0.469672	1.121291	0.811433
N	-0.878277	2.037284	1.423159
Cl	3.231468	0.0	0.0
