17

C	-0.446253	0.061587	-1.483934
C	0.0	0.0	0.0
F	-0.055114	-1.158473	-2.041044
H	1.107964	0.0	0.0
C	-1.950131	0.156183	-1.645257
H	-2.330699	1.08784	-1.222266
H	-2.437119	-0.686011	-1.148672
H	-2.199456	0.122738	-2.708584
C	0.314943	1.160786	-2.195221
H	1.385672	1.015691	-2.036873
H	0.089562	1.119789	-3.263896
H	0.028577	2.142776	-1.81141
C	-0.511646	-1.201178	0.655627
N	-0.958485	-2.159549	1.167073
C	-0.46024	1.1918	0.709995
N	-0.852863	2.162602	1.243239
Cl	3.230662	0.0	0.0
