16

C	-0.083818	0.260231	-1.497391
C	0.0	0.0	0.0
Br	-0.512955	-1.874124	-2.473567
H	1.091624	0.0	0.0
H	-0.449106	-0.951465	0.269369
N	-1.278978	0.86799	-2.042766
H	-1.14808	1.87165	-1.951058
H	-1.356814	0.640675	-3.024999
N	1.116391	0.673462	-1.927369
H	1.231245	0.876135	-2.908514
H	1.965697	0.39343	-1.319455
C	-0.571382	1.170571	0.788579
H	-1.642125	1.310305	0.608605
H	-0.419234	1.004304	1.859364
H	-0.039895	2.091734	0.528412
F	2.799449	0.0	0.0
