15

C	0.0	0.0	0.0
C	-0.565923	-0.008332	-1.399191
Cl	1.793866	0.0	0.0
H	-0.344281	0.929181	-1.905967
H	-1.684084	-0.130176	-1.203459
C	-0.466642	1.28303	0.679669
H	-0.073865	2.141759	0.128477
H	-1.565296	1.254538	0.655083
H	-0.100688	1.316891	1.707467
C	-0.406011	-1.16147	0.805701
N	-0.583608	-2.052724	1.550675
N	-0.028206	-1.078718	-2.246268
O	0.009856	-2.219567	-1.78183
O	0.325786	-0.776604	-3.392402
H	-2.981874	0.0	0.0
