15

C	0.0	0.0	0.0
C	-0.617694	-0.004707	-1.372578
Cl	1.793743	0.0	0.0
H	-0.430537	0.933788	-1.891105
H	-1.745514	-0.115633	-1.103745
C	-0.475023	1.270281	0.699358
H	-0.110134	2.142293	0.150505
H	-0.099221	1.302257	1.723306
H	-1.573728	1.224144	0.68881
C	-0.386451	-1.164573	0.814355
N	-0.566391	-2.047258	1.568771
N	-0.145542	-1.076035	-2.244451
O	0.059996	-0.796355	-3.432904
O	-0.022109	-2.205999	-1.76431
H	-2.976989	0.0	0.0
