15

C	0.0	0.0	0.0
C	-0.642132	-0.007075	-1.35818
Cl	1.793922	0.0	0.0
H	-0.46479	0.926989	-1.888196
H	-1.785061	-0.103142	-1.038712
C	-0.468603	1.270067	0.704602
H	-0.081641	1.305055	1.724138
H	-0.113783	2.142634	0.150311
H	-1.566767	1.225835	0.708045
C	-0.378852	-1.161214	0.824916
N	-0.564596	-2.030418	1.593477
N	-0.215297	-1.087406	-2.231051
O	-0.082169	-2.214537	-1.743629
O	-0.058988	-0.828244	-3.432525
H	-2.948896	0.0	0.0
