15

C	0.0	0.0	0.0
C	-0.660096	0.026219	-1.353214
Cl	1.794185	0.0	0.0
H	-1.804856	0.044773	-0.991081
H	-0.421015	-0.857551	-1.940873
C	-0.45426	1.119566	0.934567
H	-1.548787	1.095031	0.925461
H	-0.072091	0.925209	1.938145
H	-0.081755	2.074533	0.573374
C	-0.373829	-1.29926	0.594375
N	-0.568153	-2.352155	1.079577
N	-0.330237	1.178145	-2.172149
O	0.070367	0.968889	-3.328832
O	-0.532255	2.310744	-1.711843
H	-2.938436	0.0	0.0
