19

C	-0.471509	0.008432	-1.466939
C	0.0	0.0	0.0
Cl	-0.291023	-1.642818	-2.200447
H	1.095969	0.0	0.0
N	-1.887175	0.32912	-1.508617
H	-1.961187	1.21946	-1.023206
H	-2.161675	0.46804	-2.475533
C	0.417056	0.936148	-2.283045
H	0.10978	0.933522	-3.33357
H	0.312815	1.947814	-1.881773
H	1.4633	0.634394	-2.199163
C	-0.539726	-1.155445	0.82503
H	-0.150548	-2.110824	0.47654
H	-0.225033	-1.026039	1.864433
H	-1.632721	-1.182218	0.772807
N	-0.419587	1.30724	0.565356
H	0.406636	1.765432	0.931962
H	-1.049167	1.151732	1.344272
Cl	3.527302	0.0	0.0
