19

C	-0.386913	-0.033615	-1.481867
C	0.0	0.0	0.0
Cl	-0.022101	1.682917	-2.19405
H	1.104265	0.0	0.0
N	0.420421	-1.006098	-2.116501
H	0.31665	-0.972084	-3.124027
H	1.399901	-0.865723	-1.868719
C	-1.862751	-0.243449	-1.750834
H	-2.080015	-0.136957	-2.816575
H	-2.43995	0.493665	-1.192883
H	-2.145946	-1.250163	-1.434103
C	-0.458828	-1.275054	0.699274
H	0.031407	-1.339924	1.675161
H	-1.541744	-1.265752	0.855594
H	-0.174136	-2.155229	0.123371
N	-0.597356	1.146207	0.688743
H	-0.109397	1.981512	0.382759
H	-0.375218	1.041739	1.674312
Cl	3.546361	0.0	0.0
