19

C	-0.287698	0.022781	-1.505473
C	0.0	0.0	0.0
Cl	-2.111321	0.107047	-1.753604
H	1.09903	0.0	0.0
N	0.27765	1.193549	-2.131541
H	0.101652	1.959041	-1.483666
H	1.28748	1.04993	-2.124298
C	0.221733	-1.21797	-2.2106
H	0.114449	-1.082223	-3.288123
H	1.28028	-1.342211	-1.958482
H	-0.327598	-2.10942	-1.909231
C	-0.506975	-1.224328	0.747846
H	-0.206387	-1.149061	1.796677
H	-1.599112	-1.291717	0.700173
H	-0.079715	-2.148577	0.353654
N	-0.426478	1.270354	0.589265
H	-1.373655	1.188309	0.942016
H	0.188192	1.486673	1.36445
Cl	3.455842	0.0	0.0
