19

C	-0.501835	0.058973	-1.457742
C	0.0	0.0	0.0
Cl	-0.078331	-1.485611	-2.290876
H	1.100271	0.0	0.0
N	-1.946076	0.224621	-1.58044
H	-2.394871	-0.627637	-1.259319
H	-2.168803	0.949493	-0.900164
C	0.205008	1.178154	-2.200497
H	-0.110985	2.138134	-1.782096
H	-0.077973	1.153537	-3.253657
H	1.2867	1.07199	-2.090737
C	-0.530747	-1.1747	0.799868
H	-0.267764	-2.124915	0.337449
H	-1.619868	-1.11728	0.910352
H	-0.083089	-1.158336	1.797525
N	-0.472991	1.261813	0.629815
H	-0.57599	1.095482	1.625001
H	0.279753	1.938529	0.546056
Cl	3.522796	0.0	0.0
