19

C	-0.497275	0.028875	-1.447439
C	0.0	0.0	0.0
Cl	0.146133	-1.50146	-2.296754
H	1.097829	0.0	0.0
N	-1.927889	0.054134	-1.497785
H	-2.232964	0.168983	-2.457325
H	-2.304487	-0.821189	-1.155256
C	0.095707	1.196669	-2.210848
H	-0.187175	1.144339	-3.266599
H	1.183693	1.162899	-2.127167
H	-0.274271	2.11812	-1.763343
C	-0.490093	-1.19969	0.805226
H	-0.01907	-1.169924	1.790834
H	-1.577456	-1.164255	0.953743
H	-0.223733	-2.148243	0.336194
N	-0.385675	1.281239	0.609603
H	-1.293801	1.202319	1.049255
H	0.302211	1.508987	1.31492
Cl	3.523937	0.0	0.0
