19

C	-0.528992	0.100173	-1.432445
C	0.0	0.0	0.0
Cl	0.255663	1.533688	-2.210616
H	1.093832	0.0	0.0
N	-0.100365	-1.070763	-2.19146
H	-0.813121	-1.788226	-2.103137
H	-0.020932	-0.83009	-3.172284
C	-2.033107	0.339584	-1.503915
H	-2.335676	0.455226	-2.547306
H	-2.556891	-0.524944	-1.083986
H	-2.316183	1.220235	-0.931255
C	-0.450768	-1.295142	0.66332
H	-1.537204	-1.338592	0.788717
H	-0.095608	-2.156705	0.097778
H	0.007427	-1.3573	1.65404
N	-0.513024	1.139459	0.789087
H	-0.17907	0.999777	1.737365
H	-0.018257	1.964896	0.462372
Cl	3.644837	0.0	0.0
