19

C	-0.410884	0.095923	-1.489726
C	0.0	0.0	0.0
Cl	-0.269544	-1.526636	-2.283816
H	1.096572	0.0	0.0
N	-1.825619	0.489103	-1.607925
H	-2.206534	0.086381	-2.455997
H	-1.854491	1.496707	-1.728281
C	0.536088	1.022556	-2.239558
H	0.45028	2.0331	-1.826934
H	1.569915	0.694879	-2.107289
H	0.277763	1.058311	-3.301682
C	-0.564402	-1.211114	0.72133
H	-0.116227	-2.138878	0.36781
H	-1.649966	-1.265141	0.585969
H	-0.344498	-1.096774	1.78354
N	-0.41375	1.207195	0.72001
H	0.189335	1.98541	0.488475
H	-1.378126	1.4313	0.504452
Cl	3.583341	0.0	0.0
