15

C	0.0	0.0	0.0
C	-0.578936	-0.060443	-1.400252
Cl	1.791724	0.0	0.0
H	-1.661314	-0.059213	-1.217645
H	-0.321371	-0.861245	0.584624
H	-0.322976	0.907271	0.509188
C	-0.211284	-1.3503	-2.123584
H	0.862454	-1.409741	-2.327692
H	-0.499213	-2.222188	-1.529113
H	-0.744555	-1.410718	-3.076532
C	-0.227291	1.171567	-2.225025
H	-0.540191	2.083426	-1.708434
H	-0.74952	1.14179	-3.185473
H	0.84755	1.235716	-2.421771
Br	-3.925589	0.0	0.0
