17

C	-0.362746	0.079563	-1.474001
C	0.0	0.0	0.0
F	-0.229811	-1.213814	-2.05971
H	1.09939	0.0	0.0
H	-1.420452	0.328736	-1.635929
N	0.467845	1.028986	-2.122045
H	1.4396	0.850878	-1.875832
H	0.357262	0.975956	-3.126241
C	-0.535994	-1.259053	0.661649
H	-1.631206	-1.30242	0.602398
H	-0.130146	-2.151794	0.187405
H	-0.25162	-1.274136	1.717278
C	-0.479703	1.260092	0.713253
H	-1.576386	1.315529	0.72192
H	-0.131264	1.260349	1.749576
H	-0.090467	2.15298	0.223047
Cl	3.568669	0.0	0.0
