17

C	-0.442422	-0.038723	-1.449564
C	0.0	0.0	0.0
F	0.003828	1.136749	-2.096828
H	1.096233	0.0	0.0
H	0.053932	-0.860061	-1.973412
N	-1.858619	-0.175848	-1.608106
H	-2.08721	-0.148952	-2.594624
H	-2.317563	0.610595	-1.164382
C	-0.450323	-1.268198	0.720133
H	-0.009585	-1.29929	1.719899
H	-1.539261	-1.320736	0.805148
H	-0.109057	-2.159616	0.185922
C	-0.482034	1.256752	0.718033
H	-0.194786	2.152181	0.164815
H	-1.569701	1.26152	0.866995
H	-0.01515	1.311411	1.704308
Cl	3.62322	0.0	0.0
