17

C	-0.391131	0.085714	-1.474482
C	0.0	0.0	0.0
F	-0.440458	-1.208476	-2.012756
H	1.099575	0.0	0.0
H	-1.407148	0.490762	-1.594309
N	0.51411	0.858675	-2.274805
H	1.46099	0.755764	-1.915135
H	0.262971	1.83619	-2.260936
C	-0.550671	-1.230424	0.702007
H	-1.646781	-1.259126	0.653042
H	-0.255676	-1.225406	1.755253
H	-0.164617	-2.14114	0.245829
C	-0.439398	1.283039	0.701678
H	-0.058642	1.302109	1.725727
H	-1.533852	1.363585	0.739524
H	-0.044007	2.167503	0.195499
Cl	3.551292	0.0	0.0
