14

C	0.0	0.0	0.0
C	-0.60051	-0.031658	-1.409684
Cl	1.783525	0.0	0.0
H	-1.636851	-0.355285	-1.258383
H	-0.332981	0.892744	0.530901
C	-0.395605	-1.190937	0.758387
N	-0.618391	-2.176676	1.35492
N	0.076202	-1.007013	-2.227808
H	0.923864	-0.606585	-2.612099
H	-0.529962	-1.298262	-2.982487
N	-0.529709	1.330349	-1.95376
H	-1.216477	1.885043	-1.443575
H	-0.884017	1.281389	-2.903979
Br	-3.792988	0.0	0.0
