14

C	0.0	0.0	0.0
C	-0.601988	-0.093748	-1.407766
Cl	1.783802	0.0	0.0
H	-1.622293	-0.457775	-1.249613
H	-0.334371	0.913648	0.49206
C	-0.390214	-1.160271	0.805894
N	-0.600309	-2.120599	1.447937
N	0.115648	-1.055679	-2.206553
H	0.949629	-0.627703	-2.591463
H	-0.475088	-1.372293	-2.964245
N	-0.597617	1.259484	-1.980939
H	-1.322566	1.779771	-1.487059
H	-0.940987	1.169983	-2.932531
Br	-3.761821	0.0	0.0
