14

C	0.0	0.0	0.0
C	-0.600863	0.028	-1.406031
Cl	1.782871	0.0	0.0
H	-1.664015	0.226612	-1.224703
H	-0.325502	0.906829	0.509467
C	-0.422871	-1.175257	0.761907
N	-0.66511	-2.160002	1.353851
N	-0.366856	-1.252169	-2.079369
H	-0.866967	-1.974383	-1.566053
H	-0.831598	-1.192482	-2.980187
N	-0.038513	1.143832	-2.134341
H	-0.684899	1.423892	-2.860571
H	0.829913	0.845933	-2.565556
Br	-3.833783	0.0	0.0
