14

C	0.0	0.0	0.0
C	-0.513087	0.102356	-1.459511
Cl	1.790649	0.0	0.0
H	-0.058067	1.02787	-1.854448
H	-0.312055	0.885161	0.558002
C	-0.470673	-1.205171	0.672789
N	-0.796595	-2.176888	1.24367
N	-1.930949	0.212735	-1.594776
H	-2.455695	-0.535091	-1.148348
H	-2.319733	1.064184	-1.213623
N	-0.101015	-1.10074	-2.164668
H	-0.647044	-1.135498	-3.018042
H	0.885516	-1.074689	-2.395843
Br	-4.842253	0.0	0.0
