14

C	0.0	0.0	0.0
C	-0.51594	0.183242	-1.45147
Cl	1.790566	0.0	0.0
H	-0.198075	1.197882	-1.743688
H	-0.331778	0.831464	0.624275
C	-0.439254	-1.268867	0.574487
N	-0.748472	-2.29405	1.055913
N	-1.932766	0.090817	-1.606916
H	-2.29168	-0.813854	-1.319871
H	-2.492475	0.766617	-1.099371
N	0.055047	-0.872956	-2.273019
H	1.031907	-0.703868	-2.473874
H	-0.468426	-0.870621	-3.139784
Br	-4.855923	0.0	0.0
