14

C	0.0	0.0	0.0
C	-0.578021	-0.514502	-1.335199
Cl	1.785226	0.0	0.0
H	-1.656513	-0.353993	-1.223957
H	-0.335791	1.026301	0.162407
C	-0.412815	-0.823095	1.136444
N	-0.670209	-1.5012	2.060181
N	-0.208403	-1.912833	-1.508299
H	-0.772354	-2.46268	-0.868344
H	-0.507681	-2.15645	-2.446624
N	-0.124105	0.222892	-2.493308
H	0.882977	0.333445	-2.467897
H	-0.563507	1.134129	-2.510059
Br	-3.782395	0.0	0.0
