14

C	0.0	0.0	0.0
C	-0.553432	-0.544868	-1.34901
Cl	1.779433	0.0	0.0
H	0.312357	-0.721869	-1.992975
H	-0.311201	1.039845	0.1046
C	-0.423608	-0.742047	1.186222
N	-0.665222	-1.304632	2.187862
N	-1.32087	0.53459	-1.953881
H	-1.543031	0.280232	-2.911801
H	-2.216173	0.60551	-1.46071
N	-1.188867	-1.836267	-1.129464
H	-2.084499	-1.677104	-0.664068
H	-1.403639	-2.24082	-2.034337
Br	-4.098298	0.0	0.0
