14

C	0.0	0.0	0.0
C	-0.557734	-0.317	-1.379407
Cl	1.797063	0.0	0.0
H	-1.644385	-0.290958	-1.222252
H	-0.324793	0.999222	0.286819
C	-0.410751	-0.976304	1.008324
N	-0.6481	-1.753092	1.855989
N	-0.179898	-1.665863	-1.761462
H	0.765341	-1.685898	-2.126374
H	-0.813571	-2.010308	-2.469954
N	-0.20471	0.781193	-2.273659
H	-0.842753	0.782079	-3.059617
H	0.737117	0.651607	-2.627656
Br	-3.810763	0.0	0.0
