14

C	0.0	0.0	0.0
C	-0.460042	0.319202	-1.453321
Cl	1.791505	0.0	0.0
H	0.170436	-0.31475	-2.097552
H	-0.35451	0.777065	0.677595
C	-0.433787	-1.328032	0.419502
N	-0.736003	-2.423393	0.716442
N	-0.23464	1.74641	-1.65258
H	-0.761827	2.002553	-2.478377
H	0.746347	1.93515	-1.816546
N	-1.822198	0.034957	-1.77034
H	-2.512556	0.414127	-1.118291
H	-2.000064	-0.960096	-1.81035
Br	-4.652327	0.0	0.0
