12
Coordinates from ORCA-job run
  C   -0.99237858024603     -0.91562455155545      0.13505320066847
  C   0.00084935649959      0.09173674129512     -0.45284264292539
  H   -1.90961306930203     -0.95861375790691     -0.45472941834312
  H   0.23564834524557     -0.20347643335492     -1.48181480918852
  H   -1.25451647267844     -0.63948873170929      1.15868218304149
  H   -0.54302738416532     -1.91120553721712      0.15010624422138
  C   1.30248534579101      0.15011645975197      0.35279464462813
  H   1.10033598260990      0.44917251450258      1.38366587272637
  H   2.00580772359260      0.86330405930049     -0.08044976201663
  H   1.77238682671195     -0.83612409214191      0.36504747049609
  C   -0.61176889540916      1.42275159041452     -0.52181451201756
  N   -1.10520917864964      2.48745173862091     -0.55469847129072
