12
Coordinates from ORCA-job run
  C   -0.99767141912043     -0.91664374127726      0.08393598975935
  C   0.00695905670444      0.10982847061535     -0.44876277793815
  H   -1.27057881187966     -0.68326806981563      1.11533799335580
  H   0.25468059171695     -0.14359973590722     -1.48587085064896
  H   -0.55262540666431     -1.91401447872727      0.06154083876884
  H   -1.90804139602848     -0.93031017208730     -0.51770798830784
  C   1.29747643388494      0.13003655549726      0.37637846234974
  H   1.08182863196837      0.38952723849652      1.41508803309171
  H   2.00980685097603      0.85640499941896     -0.01850917346441
  H   1.76319907023651     -0.85791431150945      0.35661612597076
  C   -0.59927755982980      1.44547936801414     -0.47138381968540
  N   -1.08675604196456      2.51347387728189     -0.46766283325145
