17

C	-0.358943	-0.078433	-1.49589
C	0.0	0.0	0.0
Cl	-2.13973	-0.368248	-1.723439
H	1.098072	0.0	0.0
C	-0.077264	1.200717	-2.15203
N	0.141717	2.225237	-2.68421
C	0.420309	-1.189307	-2.188545
H	0.103583	-2.160744	-1.808878
H	1.482867	-1.043127	-1.973917
H	0.241595	-1.159347	-3.264405
C	-0.426388	-1.223858	0.814395
H	-1.510573	-1.348396	0.83463
H	0.041347	-2.124232	0.414606
H	-0.062499	-1.096604	1.835693
C	-0.524777	1.216994	0.607172
N	-0.953132	2.174443	1.136597
Cl	3.287568	0.0	0.0
