17

C	-0.39741	0.035557	-1.493713
C	0.0	0.0	0.0
Cl	0.127139	-1.501049	-2.272652
H	1.09672	0.0	0.0
C	-1.853307	0.11397	-1.651486
N	-3.020599	0.194895	-1.767091
C	0.30919	1.185582	-2.203648
H	1.38196	1.080912	-2.021191
H	-0.036076	2.138489	-1.795693
H	0.102261	1.156469	-3.274774
C	-0.531274	-1.197313	0.783809
H	-0.222471	-1.102292	1.826321
H	-0.101305	-2.116813	0.388739
H	-1.623049	-1.255238	0.742772
C	-0.462969	1.2446	0.612905
N	-0.869592	2.227092	1.113934
Cl	3.310902	0.0	0.0
