17

C	-0.426004	0.009326	-1.482991
C	0.0	0.0	0.0
Cl	0.189019	-1.490632	-2.268862
H	1.096789	0.0	0.0
C	-1.887933	-0.017432	-1.607239
N	-3.060101	-0.017969	-1.694863
C	0.176196	1.20602	-2.211541
H	-0.048695	1.15215	-3.278016
H	1.25745	1.18543	-2.052015
H	-0.235315	2.131916	-1.802684
C	-0.502987	-1.201437	0.799458
H	-1.595475	-1.252921	0.813795
H	-0.13819	-1.117544	1.824534
H	-0.098783	-2.119901	0.374712
C	-0.471678	1.240945	0.613015
N	-0.88082	2.225549	1.107824
Cl	3.293899	0.0	0.0
