17

C	-0.363613	-0.082372	-1.494345
C	0.0	0.0	0.0
Cl	-2.142499	-0.390504	-1.714333
H	1.098111	0.0	0.0
C	-0.098102	1.199382	-2.154167
N	0.089157	2.22715	-2.691978
C	0.423884	-1.186432	-2.189226
H	1.487228	-1.026767	-1.983313
H	0.122121	-2.162131	-1.803963
H	0.23598	-1.160989	-3.263474
C	-0.426313	-1.219917	0.820313
H	0.025385	-2.1255	0.41329
H	-0.045934	-1.096802	1.836286
H	-1.511574	-1.332998	0.85645
C	-0.522881	1.218769	0.605283
N	-0.953689	2.175181	1.134573
Cl	3.289056	0.0	0.0
