17

C	-0.505884	0.057143	-1.455953
C	0.0	0.0	0.0
Cl	0.230329	1.480413	-2.269735
H	1.103574	0.0	0.0
C	-0.078547	-1.143826	-2.179504
N	0.161726	-2.131187	-2.76942
C	-2.024187	0.182992	-1.571458
H	-2.354077	1.085616	-1.05448
H	-2.313509	0.247955	-2.621561
H	-2.509021	-0.689091	-1.126542
C	-0.433649	-1.276412	0.730572
H	-1.517335	-1.34958	0.856078
H	-0.065405	-2.152199	0.192366
H	0.032647	-1.278564	1.717642
C	-0.483582	1.174205	0.720615
N	-0.925612	2.08298	1.320694
Cl	3.284485	0.0	0.0
