17

C	-0.397618	0.039706	-1.493527
C	0.0	0.0	0.0
Cl	0.12736	-1.494355	-2.276994
H	1.096715	0.0	0.0
C	-1.853586	0.118123	-1.650844
N	-3.020928	0.199088	-1.765965
C	0.308377	1.192059	-2.200272
H	1.381227	1.087329	-2.018365
H	-0.037281	2.143609	-1.789542
H	0.101344	1.165951	-3.271452
C	-0.53105	-1.199663	0.780386
H	-0.100895	-2.117971	0.382668
H	-1.622832	-1.257638	0.739224
H	-0.222173	-1.107534	1.823161
C	-0.463034	1.24276	0.616592
N	-0.869804	2.223735	1.120472
Cl	3.310859	0.0	0.0
