17

C	-0.36059	-0.170369	-1.487181
C	0.0	0.0	0.0
Cl	-2.140227	-0.487142	-1.692482
H	1.107389	0.0	0.0
C	-0.087706	1.068311	-2.221212
N	0.120624	2.041213	-2.846484
C	0.425811	-1.315461	-2.114693
H	0.238018	-1.355597	-3.189014
H	1.488735	-1.144736	-1.918372
H	0.123068	-2.264363	-1.67151
C	-0.424363	-1.169744	0.891579
H	-1.5092	-1.280496	0.937872
H	0.025239	-2.097839	0.536299
H	-0.039252	-0.987786	1.896049
C	-0.529473	1.249831	0.531137
N	-0.999675	2.222309	0.994411
Cl	3.285933	0.0	0.0
