17

C	-0.513178	0.092923	-1.452059
C	0.0	0.0	0.0
Cl	0.277875	1.488457	-2.25874
H	1.103674	0.0	0.0
C	-0.149468	-1.121008	-2.188156
N	0.029153	-2.119332	-2.782278
C	-2.025494	0.2879	-1.553614
H	-2.546198	-0.555604	-1.09482
H	-2.307015	1.209279	-1.042145
H	-2.322506	0.356909	-2.601213
C	-0.438735	-1.287426	0.707941
H	-0.063123	-2.15411	0.161549
H	0.015408	-1.302668	1.700082
H	-1.523631	-1.364721	0.819284
C	-0.475447	1.164125	0.743194
N	-0.917057	2.067782	1.3506
Cl	3.289857	0.0	0.0
