17

C	-0.486929	0.025236	-1.463215
C	0.0	0.0	0.0
Cl	0.092114	1.536772	-2.244308
H	1.105962	0.0	0.0
C	0.096689	-1.103734	-2.194198
N	0.469648	-2.0419	-2.795529
C	-2.006777	-0.028538	-1.598356
H	-2.382068	-0.98587	-1.230621
H	-2.29346	0.079702	-2.645288
H	-2.451681	0.783552	-1.020504
C	-0.424369	-1.279134	0.733803
H	0.074191	-1.295476	1.704372
H	-0.084936	-2.155224	0.177094
H	-1.503835	-1.338675	0.893448
C	-0.512732	1.167169	0.70862
N	-0.982055	2.064053	1.305708
Cl	3.298185	0.0	0.0
