17

C	-0.506584	-0.001545	-1.457315
C	0.0	0.0	0.0
Cl	0.237203	1.380453	-2.331274
H	1.095621	0.0	0.0
C	-0.088792	-1.235053	-2.13046
N	0.141469	-2.240924	-2.692891
C	-2.02389	0.129929	-1.576771
H	-2.346067	1.058408	-1.102886
H	-2.51467	-0.715989	-1.090363
H	-2.314399	0.147155	-2.628281
C	-0.434694	-1.246101	0.781089
H	0.027003	-1.206626	1.769094
H	-1.518383	-1.316168	0.904749
H	-0.062596	-2.142256	0.281081
C	-0.483793	1.203323	0.670925
N	-0.920461	2.141262	1.228626
Cl	3.286182	0.0	0.0
