17

C	0.0	0.0	0.0
C	-0.333779	-0.128044	-1.532988
F	1.356112	0.0	0.0
H	0.518159	0.343088	-2.019354
N	-0.279388	1.500665	0.396555
O	-0.078715	2.363471	-0.455734
O	-0.584409	1.720868	1.563334
N	-0.614452	-0.90232	0.829875
H	-0.417626	-0.665	1.795991
H	-1.648428	-0.742059	0.627482
N	-1.548473	0.311889	-2.106208
H	-2.30622	0.161172	-1.398958
H	-1.457563	1.305289	-2.270491
N	-0.145656	-1.607364	-1.829168
O	-1.133544	-2.328296	-1.790347
O	1.00086	-1.981606	-2.091098
F	-2.900123	0.0	0.0
