17

C	0.0	0.0	0.0
C	-0.226943	0.157928	-1.54552
F	1.386028	0.0	0.0
H	0.388642	0.99732	-1.858727
N	-0.384624	1.340692	0.655079
O	-0.238745	2.347157	-0.037824
O	-0.719615	1.335064	1.82963
N	-0.583597	-1.026372	0.726051
H	-0.446578	-1.879756	0.195586
H	-1.605859	-0.785401	0.684958
N	-1.527353	0.176453	-2.075966
H	-2.242308	0.038116	-1.306213
H	-1.687249	1.062353	-2.531083
N	0.537392	-1.026112	-2.177857
O	0.239947	-2.172182	-1.84163
O	1.361316	-0.753374	-3.050269
F	-2.914224	0.0	0.0
