17

C	0.0	0.0	0.0
C	-0.294629	0.144248	-1.534455
F	1.389687	0.0	0.0
H	0.504184	0.79226	-1.888859
N	-0.261879	1.406926	0.655367
O	-0.400324	1.416553	1.874739
O	-0.224295	2.406031	-0.058671
N	-0.60335	-1.028049	0.668973
H	-1.63738	-0.849669	0.490876
H	-0.408204	-0.945707	1.659501
N	-1.544743	0.549552	-2.05691
H	-2.287719	0.27834	-1.371289
H	-1.530226	1.55956	-2.098563
N	0.066387	-1.211915	-2.121819
O	1.195083	-1.333915	-2.607273
O	-0.793082	-2.083953	-2.103023
F	-2.890842	0.0	0.0
