17

C	0.0	0.0	0.0
C	-0.544015	0.040528	-1.43672
F	1.359973	0.0	0.0
H	-1.637192	0.115928	-1.276611
N	-0.325373	1.32842	0.72092
O	-0.917872	1.310836	1.786264
O	0.14423	2.327744	0.174829
N	-0.552841	-1.044844	0.748788
H	-1.582913	-0.7999	0.6815
H	-0.418076	-1.877282	0.184028
N	-0.146915	-1.179304	-2.082287
H	0.814128	-1.095184	-2.398086
H	-0.746504	-1.358748	-2.876854
N	-0.075445	1.233263	-2.243063
O	1.061073	1.177267	-2.725732
O	-0.866245	2.157405	-2.415519
F	-2.801016	0.0	0.0
