17

C	0.0	0.0	0.0
C	-0.542486	0.100527	-1.419174
F	1.345663	0.0	0.0
H	-1.635602	0.141344	-1.310202
N	-0.307958	1.340988	0.759315
O	-1.101511	2.15418	0.308059
O	0.276695	1.442187	1.840116
N	-0.594418	-1.079917	0.64679
H	-1.639544	-0.835944	0.508411
H	-0.35005	-1.023821	1.631442
N	-0.022961	-0.997916	-2.214451
H	-0.803207	-1.425249	-2.691378
H	0.367717	-1.691934	-1.591091
N	-0.13089	1.349278	-2.149816
O	0.839326	2.003908	-1.775513
O	-0.786147	1.582592	-3.163599
F	-2.828239	0.0	0.0
