17

C	-0.397712	-0.0452	-1.452822
C	0.0	0.0	0.0
F	0.143218	-1.098767	-2.06412
H	1.097937	0.0	0.0
N	-1.907003	-0.131737	-1.712051
O	-2.218189	-0.420944	-2.862496
O	-2.666216	0.090101	-0.779212
N	0.006021	1.208065	-2.223729
O	0.951101	1.117594	-2.986264
O	-0.683209	2.192725	-1.981752
C	-0.392935	-1.291104	0.73233
H	-0.015185	-2.149875	0.176693
H	-1.46953	-1.377004	0.878033
H	0.106116	-1.284936	1.701978
C	-0.479299	1.180826	0.702273
N	-0.818505	2.1064	1.340664
Cl	3.197346	0.0	0.0
