17

C	-0.592629	0.01165	-1.3894
C	0.0	0.0	0.0
F	-1.932565	0.030896	-1.378504
H	1.09059	0.0	0.0
N	-0.144319	1.205184	-2.238499
O	-0.896127	1.510562	-3.157648
O	0.927673	1.707512	-1.941623
N	-0.158665	-1.204017	-2.207505
O	-1.027641	-1.74443	-2.879979
O	1.023173	-1.50108	-2.129703
C	-0.46557	-1.246121	0.764361
H	-1.554861	-1.33036	0.788462
H	-0.032749	-2.137358	0.307559
H	-0.084854	-1.184922	1.783589
C	-0.460895	1.217247	0.666306
N	-0.870778	2.177579	1.20565
Cl	3.286903	0.0	0.0
