17

C	-0.502807	-0.020301	-1.41912
C	0.0	0.0	0.0
F	-1.833902	0.160195	-1.514484
H	1.09301	0.0	0.0
N	0.120827	1.033343	-2.314969
O	0.696414	1.965169	-1.77384
O	-0.09294	0.87904	-3.513515
N	-0.17365	-1.357421	-2.063161
O	-1.101818	-2.142235	-2.202004
O	1.006508	-1.534367	-2.324226
C	-0.467323	-1.246661	0.766516
H	0.042859	-2.127795	0.377581
H	-0.179558	-1.141381	1.813514
H	-1.548075	-1.385882	0.700787
C	-0.500796	1.205428	0.655537
N	-0.947395	2.131007	1.224619
Cl	3.195017	0.0	0.0
