17

C	-0.406895	-0.045899	-1.454345
C	0.0	0.0	0.0
F	-0.185685	1.121546	-2.071151
H	1.094109	0.0	0.0
N	0.31788	-1.133524	-2.23808
O	0.113092	-2.27282	-1.83897
O	0.98006	-0.785912	-3.199634
N	-1.895702	-0.339236	-1.699266
O	-2.187423	-0.822275	-2.787211
O	-2.674239	0.016974	-0.823459
C	-0.425249	-1.181074	0.880005
H	-1.508798	-1.262331	0.968848
H	-0.010042	-2.106762	0.490352
H	0.00256	-1.013371	1.869263
C	-0.456072	1.261577	0.577703
N	-0.810932	2.255144	1.09349
Cl	3.191455	0.0	0.0
