17

C	-0.527877	-0.002506	-1.411403
C	0.0	0.0	0.0
F	-1.854297	0.230304	-1.476928
H	1.09334	0.0	0.0
N	0.109504	1.030948	-2.325769
O	-0.108413	0.863264	-3.522022
O	0.701299	1.959347	-1.796332
N	-0.26417	-1.346808	-2.065181
O	0.905206	-1.57319	-2.337334
O	-1.230174	-2.085004	-2.211845
C	-0.455105	-1.260412	0.750406
H	-1.537093	-1.401927	0.705208
H	0.050756	-2.134751	0.337867
H	-0.146877	-1.16686	1.79184
C	-0.492375	1.194751	0.68091
N	-0.930661	2.10588	1.278561
Cl	3.227133	0.0	0.0
