17

C	-0.471366	-0.015326	-1.440916
C	0.0	0.0	0.0
F	-1.772924	-0.345151	-1.569478
H	1.093858	0.0	0.0
N	-0.264828	1.34209	-2.102324
O	-1.259757	1.908955	-2.531884
O	0.89304	1.728131	-2.118116
N	0.271242	-1.004399	-2.332669
O	0.300497	-0.726996	-3.526903
O	0.675206	-2.029183	-1.803035
C	-0.524332	-1.179621	0.824629
H	-0.120982	-2.111886	0.437779
H	-1.615757	-1.213698	0.823447
H	-0.17568	-1.054288	1.850514
C	-0.468561	1.256329	0.586914
N	-0.876842	2.252721	1.057376
Cl	3.213126	0.0	0.0
