17

C	-0.353842	0.009609	-1.46848
C	0.0	0.0	0.0
F	0.023486	1.149602	-2.055789
H	1.099656	0.0	0.0
N	0.292288	-1.145174	-2.221553
O	-0.157632	-2.249698	-1.938552
O	1.162689	-0.876251	-3.027329
N	-1.842033	-0.131742	-1.802653
O	-2.09819	-0.326623	-2.986537
O	-2.648608	0.030355	-0.893072
C	-0.453408	-1.20236	0.830817
H	-0.029659	-2.120165	0.42871
H	-0.056969	-1.064947	1.838075
H	-1.539217	-1.283518	0.879386
C	-0.453929	1.254317	0.594738
N	-0.799067	2.247381	1.118578
Cl	3.198024	0.0	0.0
