15

C	0.0	0.0	0.0
C	-0.388373	-0.071731	-1.518182
Cl	1.748543	0.0	0.0
H	0.533549	-0.24617	-2.075246
H	-0.372272	-0.896309	0.47745
N	-0.50303	1.123678	0.862004
O	-0.523513	0.853986	2.05845
O	-0.75219	2.210594	0.368158
N	-0.741777	1.327706	-2.104573
O	0.205989	2.102918	-2.228559
O	-1.876571	1.525124	-2.518033
N	-1.322011	-1.087404	-1.764958
H	-2.140211	-0.803626	-1.146183
H	-1.547461	-1.113067	-2.75111
F	-2.559518	0.0	0.0
