15

C	0.0	0.0	0.0
C	-0.589234	0.027812	-1.404601
Cl	1.747176	0.0	0.0
H	-1.70983	-0.053245	-1.089872
H	-0.356632	-0.881418	0.514966
N	-0.457128	1.150783	0.85757
O	-0.627989	0.889634	2.04157
O	-0.530321	2.270571	0.36152
N	-0.171794	-1.261931	-2.044847
O	-0.247139	-2.277973	-1.347874
O	0.184967	-1.263491	-3.220976
N	-0.304929	1.127574	-2.257313
H	-0.88535	1.896842	-1.957584
H	0.665269	1.415718	-2.192051
F	-2.656193	0.0	0.0
