15

C	-0.521686	0.023661	-1.405548
C	0.0	0.0	0.0
Cl	-2.27103	0.321093	-1.514919
H	1.094951	0.0	0.0
H	-0.315129	0.94298	0.454945
N	0.199778	1.141403	-2.161095
O	0.995371	0.814456	-3.030936
O	-0.044931	2.276172	-1.772705
N	-0.20789	-1.254612	-2.169427
O	-0.790088	-1.427121	-3.235396
O	0.646553	-1.979423	-1.678484
N	-0.521364	-1.170139	0.697612
H	0.281367	-1.731099	0.962193
H	-0.996211	-0.887192	1.542252
H	2.788105	0.0	0.0
