15

C	-0.539771	0.037608	-1.399818
C	0.0	0.0	0.0
Cl	0.065977	-1.30659	-2.343115
H	1.097253	0.0	0.0
H	-0.316573	-0.957463	0.430546
N	-2.077794	-0.035049	-1.468881
O	-2.677856	-0.207146	-0.412873
O	-2.587217	0.061247	-2.578211
N	-0.205509	1.363337	-2.077778
O	0.867959	1.441634	-2.652143
O	-1.027033	2.25859	-1.918698
N	-0.404758	1.174706	0.745472
H	-1.186898	0.988512	1.354528
H	0.396329	1.478727	1.28718
H	2.790854	0.0	0.0
