15

C	-0.501177	0.2535	-1.394643
C	0.0	0.0	0.0
Cl	-0.193914	1.902308	-1.895078
H	1.102965	0.0	0.0
H	-0.342499	0.845322	0.600799
N	0.103887	-0.702839	-2.421879
O	0.021983	-0.383292	-3.601214
O	0.585827	-1.735787	-1.978562
N	-2.008865	-0.015498	-1.463804
O	-2.706945	0.735249	-0.796301
O	-2.390086	-0.986724	-2.104524
N	-0.558294	-1.254448	0.508727
H	0.184508	-1.943362	0.474039
H	-0.806865	-1.126814	1.48019
H	2.818249	0.0	0.0
