15

C	0.0	0.0	0.0
C	-0.345429	0.08855	-1.534196
Br	1.949065	0.0	0.0
H	0.521171	-0.357384	-2.037602
N	-0.51436	1.110859	0.720311
H	-0.50991	0.899863	1.711223
H	-1.501156	1.197256	0.438376
C	-0.340553	-1.335333	0.522427
N	-0.507469	-2.405071	0.983124
N	-0.55056	1.480866	-1.892265
H	-0.575174	1.560312	-2.901078
H	0.218501	2.030539	-1.530984
C	-1.446525	-0.749367	-2.04442
N	-2.018475	-1.461841	-2.786458
Br	-3.554137	0.0	0.0
