17

C	-0.395326	0.006574	-1.470226
C	0.0	0.0	0.0
Cl	0.247201	-1.526831	-2.289704
H	1.096699	0.0	0.0
C	-1.860181	-0.085031	-1.643756
N	-3.036569	-0.126474	-1.727089
N	0.135652	1.191709	-2.079608
H	0.020628	1.1647	-3.087082
H	1.140593	1.190311	-1.847913
N	-0.476587	-1.228556	0.628846
H	-1.334	-1.064685	1.153974
H	0.244763	-1.541608	1.269883
C	-0.511687	1.252372	0.703327
H	-0.126928	2.16517	0.247917
H	-1.611581	1.301369	0.708043
H	-0.163953	1.217062	1.740699
F	2.644885	0.0	0.0
