17

C	-0.089236	0.079813	-1.546091
C	0.0	0.0	0.0
Cl	-0.035044	-1.705727	-2.247107
H	1.104108	0.0	0.0
C	-1.358298	0.57507	-2.089952
N	-2.362068	1.014617	-2.516327
N	1.013108	0.834179	-1.952651
H	1.861102	0.565643	-1.388251
H	1.156335	0.842455	-2.952175
N	-0.702514	-1.141712	0.573718
H	-0.662632	-1.026924	1.581283
H	-0.165585	-1.975757	0.363719
C	-0.527975	1.286566	0.608388
H	-1.620209	1.339838	0.538299
H	-0.24244	1.327418	1.665008
H	-0.084434	2.149733	0.111553
F	2.758703	0.0	0.0
