17

C	-0.525076	-0.056597	-1.437482
C	0.0	0.0	0.0
Cl	-0.183379	1.476272	-2.330182
H	1.099043	0.0	0.0
C	0.198252	-1.111021	-2.179001
N	0.649018	-1.997144	-2.805791
N	-1.954659	-0.279749	-1.453208
H	-2.084345	-1.077665	-0.833824
H	-2.255728	-0.53635	-2.387214
N	-0.408354	-1.300155	0.596902
H	0.457716	-1.805007	0.757732
H	-0.825773	-1.137191	1.505805
C	-0.559634	1.163451	0.791241
H	-0.08255	1.158594	1.775907
H	-1.647551	1.099467	0.913772
H	-0.321034	2.116242	0.318918
F	2.637538	0.0	0.0
