17

C	-0.23516	-0.041853	-1.484276
C	0.0	0.0	0.0
Cl	-2.019366	-0.257689	-1.961825
H	1.107692	0.0	0.0
C	0.161184	1.233893	-2.118963
N	0.525761	2.23363	-2.625224
N	0.524875	-1.179554	-1.995948
H	0.504408	-1.192436	-3.026577
H	1.501346	-1.020595	-1.647186
N	-0.554759	-1.223606	0.625335
H	-0.061778	-1.304883	1.512781
H	-0.217009	-2.00397	0.06552
C	-0.5288	1.232658	0.704126
H	-0.113146	2.14544	0.270115
H	-0.212299	1.202808	1.751545
H	-1.621669	1.268278	0.672046
F	2.696305	0.0	0.0
