17

C	-0.370564	0.005615	-1.484406
C	0.0	0.0	0.0
Cl	-2.245986	0.062928	-1.728235
H	1.095945	0.0	0.0
C	0.083558	1.22933	-2.150378
N	0.469107	2.210458	-2.668779
N	0.174863	-1.119604	-2.125934
H	-0.184494	-1.258826	-3.064607
H	0.036332	-1.928385	-1.522441
N	-0.451269	-1.280778	0.531628
H	0.169244	-1.546049	1.292218
H	-1.400263	-1.202436	0.898808
C	-0.513038	1.213591	0.753871
H	-0.100981	1.181132	1.766409
H	-1.607586	1.245465	0.821948
H	-0.163799	2.139364	0.289474
F	2.545525	0.0	0.0
