17

C	-0.528717	-0.044149	-1.435545
C	0.0	0.0	0.0
Cl	-0.151711	1.481144	-2.327766
H	1.099022	0.0	0.0
C	0.167225	-1.115192	-2.180158
N	0.59552	-2.012337	-2.807327
N	-1.964221	-0.233183	-1.448465
H	-2.113103	-1.02953	-0.830822
H	-2.273524	-0.481584	-2.382352
N	-0.415804	-1.300246	0.589635
H	0.445721	-1.820533	0.728594
H	-0.813552	-1.140858	1.509092
C	-0.553427	1.160651	0.800404
H	-1.63775	1.087081	0.947829
H	-0.053482	1.162698	1.773444
H	-0.335585	2.114503	0.320013
F	2.637987	0.0	0.0
