17

C	-0.581131	-0.031419	-1.407879
C	0.0	0.0	0.0
Cl	0.244011	1.288677	-2.420279
H	1.094051	0.0	0.0
C	-0.258288	-1.289977	-2.092815
N	-0.039377	-2.259465	-2.718149
N	-2.005028	0.133127	-1.424175
H	-2.232335	1.036931	-1.026684
H	-2.352848	0.107177	-2.376414
N	-0.382024	-1.260533	0.636695
H	-1.183141	-1.155171	1.247759
H	0.418178	-1.573906	1.172469
C	-0.443496	1.231347	0.779017
H	0.171582	1.280554	1.680925
H	-1.499801	1.18967	1.084576
H	-0.267854	2.154118	0.218731
F	2.630006	0.0	0.0
