17

C	-0.577404	-0.041897	-1.410332
C	0.0	0.0	0.0
Cl	0.230999	-1.328676	-2.369755
H	1.094024	0.0	0.0
C	-2.010823	-0.421532	-1.345473
N	-3.172342	-0.590066	-1.264679
N	-0.396536	1.201889	-2.132671
H	-0.800386	1.11409	-3.058381
H	-0.886722	1.938627	-1.6388
N	-0.394111	-1.243634	0.670823
H	-1.08599	-1.078505	1.391887
H	0.444376	-1.61487	1.100546
C	-0.45326	1.242406	0.755761
H	-0.021195	1.187694	1.758156
H	-0.056323	2.152432	0.299244
H	-1.54735	1.321395	0.853124
F	2.62791	0.0	0.0
