17

C	-0.481758	0.012925	-1.423741
C	0.0	0.0	0.0
Cl	-2.490815	0.170324	-1.379732
H	1.095946	0.0	0.0
C	-0.15107	1.226332	-2.167371
N	0.110126	2.197818	-2.774539
N	-0.130974	-1.137057	-2.103624
H	-0.235163	-1.922467	-1.468389
H	-0.589414	-1.254572	-2.994362
N	-0.345683	-1.302678	0.574755
H	-1.174136	-1.241486	1.156359
H	0.445202	-1.585243	1.141865
C	-0.441896	1.193477	0.822834
H	0.143076	1.195574	1.746708
H	-1.510528	1.166052	1.065303
H	-0.22913	2.132005	0.30303
F	2.586345	0.0	0.0
