13

C	-0.517808	-0.02739	-1.455892
C	0.0	0.0	0.0
Br	0.233435	-1.563506	-2.411556
H	1.09199	0.0	0.0
H	-0.345793	0.949653	0.427758
C	-1.975466	-0.170306	-1.460839
N	-3.147803	-0.243195	-1.421131
C	-0.157897	1.190711	-2.181327
N	0.096809	2.177421	-2.767246
N	-0.499981	-1.162796	0.709827
H	0.281104	-1.656542	1.120372
H	-1.147801	-0.904444	1.439369
Br	3.522414	0.0	0.0
