13

C	-0.514445	-0.069917	-1.455917
C	0.0	0.0	0.0
Br	0.207439	-1.651749	-2.359542
H	1.096387	0.0	0.0
H	-0.342686	0.965093	0.394779
C	-1.974938	-0.1856	-1.458347
N	-3.147639	-0.23883	-1.401011
C	-0.127063	1.114901	-2.221504
N	0.146528	2.093112	-2.813034
N	-0.504495	-1.136813	0.745681
H	0.272272	-1.610515	1.187866
H	-1.163989	-0.853886	1.456203
Br	3.51232	0.0	0.0
