16

C	0.0	0.0	0.0
C	-0.429639	-0.067337	-1.496448
Cl	1.768423	0.0	0.0
H	0.319759	0.474305	-2.071638
N	-0.356843	1.445123	0.484484
O	-0.532848	1.579026	1.685854
O	-0.355198	2.33849	-0.354278
N	-0.52327	-1.012904	0.777552
H	-1.5707	-0.836426	0.644071
H	-0.240376	-0.877586	1.740598
C	-1.74203	0.423241	-1.932305
N	-2.481789	0.872843	-2.733955
N	-0.279502	-1.50673	-1.940861
O	0.821318	-1.815131	-2.399331
O	-1.241413	-2.252153	-1.823289
F	-2.625799	0.0	0.0
