16

C	0.0	0.0	0.0
C	-0.433097	-0.096241	-1.496201
Cl	1.768584	0.0	0.0
H	0.349379	0.378533	-2.086126
N	-0.353483	1.45332	0.460587
O	-0.542681	1.606482	1.65758
O	-0.3328	2.33445	-0.391724
N	-0.528356	-0.99878	0.791244
H	-1.577966	-0.809585	0.653244
H	-0.242715	-0.855912	1.751931
C	-1.707844	0.455144	-1.959858
N	-2.460418	0.909651	-2.743971
N	-0.356709	-1.555984	-1.88614
O	0.747478	-1.948868	-2.26109
O	-1.370164	-2.234017	-1.807949
F	-2.620553	0.0	0.0
