16

C	0.0	0.0	0.0
C	-0.65855	-0.028262	-1.372724
Cl	1.744843	0.0	0.0
H	-1.789949	0.099301	-1.03653
N	-0.398645	1.356681	0.713997
O	-0.109454	1.393484	1.907048
O	-0.972918	2.233895	0.091137
N	-0.522502	-1.080015	0.729582
H	-0.172745	-1.038299	1.680306
H	-1.551157	-0.922189	0.692651
C	-0.46779	-1.317985	-2.008364
N	-0.335175	-2.352813	-2.549374
N	-0.252422	1.020511	-2.354116
O	-0.820189	0.961493	-3.44389
O	0.589768	1.856003	-2.042676
F	-2.797564	0.0	0.0
