15
Coordinates from ORCA-job run
  C   -0.78751608147567      0.05657031272214      0.26114419053242
  C   0.30333510310712     -0.24877632237487     -0.79488175924636
  Br  -2.53318512065872      0.02685017007421     -0.57543182984415
  H   0.03641632541785     -1.15971232363738     -1.33784644645080
  N   -0.62162206265441      1.23791404450606      1.00619645994972
  H   0.34959411797844      1.32319317845046      1.28851098016973
  H   -0.92981965437531      2.05386390337551      0.49575934428294
  N   -0.75264482170987     -1.15016469103572      1.23892357099623
  O   -1.03826508412272     -0.94544290391284      2.40529026913787
  O   -0.45195853156106     -2.23191960458090      0.73932615975408
  N   1.56629542707181     -0.34559194717208     -0.06515590984946
  H   2.33409351584468      0.04054316816366     -0.59802874251557
  H   1.76440316488610     -1.31822499121419      0.13366632035845
  C   0.34665688407669      0.87327202020926     -1.73264193634185
  N   0.41621681817507      1.78862598642670     -2.46483067093325
