18

C	-0.430573	-0.001374	-1.464881
C	0.0	0.0	0.0
Br	0.487969	1.329855	-2.489321
H	1.094181	0.0	0.0
N	-0.130335	-1.386199	-2.063366
O	-1.096731	-2.088095	-2.336619
O	1.046295	-1.670495	-2.173049
N	-1.94205	0.158053	-1.667212
O	-2.346578	0.492677	-2.7718
O	-2.647406	-0.120715	-0.701356
N	-0.40755	-1.263615	0.595372
H	0.319412	-1.569678	1.228898
H	-1.287987	-1.177967	1.084384
C	-0.438778	1.254438	0.751083
H	-0.108086	2.164202	0.246583
H	0.0436	1.231984	1.730852
H	-1.521731	1.288262	0.890336
Cl	3.379551	0.0	0.0
