18

C	-0.460713	0.018759	-1.456809
C	0.0	0.0	0.0
Br	-2.355451	0.364058	-1.663966
H	1.093116	0.0	0.0
N	0.245766	1.050321	-2.332649
O	0.818403	1.971909	-1.76787
O	0.148596	0.87603	-3.541923
N	-0.103147	-1.328239	-2.097816
O	-0.988482	-2.109067	-2.395468
O	1.101628	-1.484719	-2.218538
N	-0.419286	-1.287844	0.540491
H	-1.296814	-1.204565	1.038111
H	0.294108	-1.618081	1.177135
C	-0.474923	1.19349	0.81776
H	-0.214013	2.140891	0.348649
H	-1.556885	1.156189	0.980512
H	0.028295	1.145851	1.786733
Cl	3.389848	0.0	0.0
