18

C	-0.484682	-0.015629	-1.44553
C	0.0	0.0	0.0
Br	-2.392867	-0.238736	-1.62019
H	1.098192	0.0	0.0
N	-0.036277	1.269475	-2.136723
O	1.145753	1.277318	-2.456315
O	-0.837755	2.188749	-2.241505
N	0.142743	-1.134026	-2.276937
O	-0.006504	-1.046811	-3.489198
O	0.708673	-2.031536	-1.670556
N	-0.519332	-1.182864	0.688367
H	-0.615151	-0.957202	1.670565
H	0.181773	-1.910079	0.613937
C	-0.459073	1.268312	0.706481
H	-0.049411	1.247166	1.719352
H	-0.070157	2.166706	0.227721
H	-1.549346	1.329072	0.759469
Cl	3.379457	0.0	0.0
