18

C	-0.465071	-0.016354	-1.455273
C	0.0	0.0	0.0
Br	0.483523	-1.313846	-2.484478
H	1.094296	0.0	0.0
N	-1.969638	-0.278527	-1.613103
O	-2.382987	-0.467843	-2.748936
O	-2.658177	-0.229821	-0.600077
N	-0.28656	1.373388	-2.068989
O	-1.273944	2.105533	-2.014184
O	0.825165	1.673727	-2.470088
N	-0.404338	-1.269213	0.593755
H	0.374027	-1.625201	1.134085
H	-1.211717	-1.147327	1.19053
C	-0.418945	1.248432	0.774491
H	-1.501699	1.364908	0.83831
H	0.018375	2.151148	0.342876
H	-0.00398	1.147752	1.780028
Cl	3.350747	0.0	0.0
