18

C	-0.426051	-0.004019	-1.470071
C	0.0	0.0	0.0
Br	0.533802	-1.314362	-2.472496
H	1.094303	0.0	0.0
N	-1.925805	-0.243843	-1.678994
O	-2.643726	-0.216504	-0.685098
O	-2.307052	-0.399271	-2.831392
N	-0.205025	1.386273	-2.071274
O	-1.177927	2.137612	-2.027232
O	0.918066	1.666514	-2.452576
N	-0.42029	-1.269304	0.576624
H	-1.255251	-1.151333	1.134191
H	0.333025	-1.62057	1.15321
C	-0.430884	1.247166	0.769196
H	-0.052082	1.135673	1.787851
H	0.028191	2.148728	0.358778
H	-1.514319	1.37297	0.797475
Cl	3.358285	0.0	0.0
