12
Coordinates from ORCA-job run
  C   -0.33841397413245      0.11401413550656      0.09468301482671
  C   0.78707110058579     -0.50847287486932     -0.29461173755939
  H   0.79008931546161     -1.43714571231396     -0.85081999383821
  C   -1.69233607554233     -0.47630449624578     -0.19406714516310
  H   -2.28242557917469      0.21695920510909     -0.79821556141824
  H   -1.60358795676724     -1.42384521017641     -0.72665273203197
  H   -2.23373094817040     -0.64246517937229      0.74021397352388
  C   -0.35020235802280      1.36737726778723      0.79017811209130
  N   -0.51476711933358      2.39195543228686      1.34550541203511
  N   2.13195026566917      0.01153154641907     -0.08038485609793
  O   2.30363322411756      0.89117168741270      0.75801734209301
  O   3.00272010530935     -0.50277580154376     -0.78384582846117
