12
Coordinates from ORCA-job run
  C   -0.28796660339480      0.28943411900846      0.42299519772729
  C   1.04320664401833      0.09468378368630      0.33533676046515
  H   1.75320601409844      0.42963319538150      1.08110378047403
  C   -1.35875860932054     -0.17158534384566     -0.52903042061207
  H   -1.14526673467019     -1.16672141983284     -0.91479729920883
  H   -2.32525360172500     -0.16999150696874     -0.02564960103388
  H   -1.40831335837969      0.50353225694224     -1.38664533969472
  C   -0.71599617919377      1.05112252768437      1.56193309493149
  N   -1.09902102424192      1.67535221021310      2.48363286949636
  N   1.67512476015276     -0.65332597511049     -0.73970174968154
  O   2.79503354817619     -1.09581377262202     -0.48332592363646
  O   1.07500514448021     -0.78532007453620     -1.80585136922681
