12
Coordinates from ORCA-job run
  C   -0.32147601614957      0.07709313017799      0.16354311546648
  C   0.73917141310567     -0.39235005714746     -0.51478019428869
  H   0.65508358652502     -1.10392666226333     -1.32608353703123
  C   -1.71309589433899     -0.40574626130925     -0.14938579091853
  H   -2.16042301857593     -0.84712253353519      0.74135037717941
  H   -1.70091088495227     -1.15055740022495     -0.94663471772225
  H   -2.33677372827109      0.43634293747683     -0.45386137992550
  C   -0.23685890338485      1.05472370084979      1.20782934472907
  N   -0.32022605173354      1.85391408079434      2.06745782468879
  N   2.11269814068364      0.05115426693335     -0.30370877714323
  O   2.89437192573767     -0.23353112693650     -1.20984199527481
  O   2.38843943135421      0.65900592518438      0.72511573024047
