12
Coordinates from ORCA-job run
  C   -0.32864024831235      0.06522484044778      0.15622180689952
  C   0.76384017685650     -0.33427899755070     -0.51702256803635
  H   0.72916114112469     -1.04861742136999     -1.32972508307630
  C   -1.68773777391687     -0.49040028490867     -0.17461622917451
  H   -2.11650956241884     -0.97636063133792      0.70499970875391
  H   -1.63066976980035     -1.21449418739444     -0.98808598800681
  H   -2.36206207000826      0.31870373048853     -0.46504376320141
  C   -0.30397203927947      1.03019001351484      1.21595620902507
  N   -0.44969548467299      1.80561450348158      2.08926077232092
  N   2.11349181600655      0.16220955874118     -0.27871847978294
  O   2.94708606105043     -0.18425559913290     -1.11733903153156
  O   2.32570775337096      0.86546447502071      0.70411264581045
