12
Coordinates from ORCA-job run
  C   -0.29521057958381      0.45149686558564      0.22127668259478
  C   1.03906248193811      0.36056579063110      0.06224593307526
  H   1.73013187877084      1.15716692968593      0.31014904417142
  C   -1.34743901102915     -0.56565886694810     -0.12597285267925
  H   -2.29955764382173     -0.06344362729084     -0.29704342492692
  H   -1.07082901006659     -1.14953842376555     -1.00181679221187
  H   -1.47110413512926     -1.26265629309702      0.70854438337588
  C   -0.75593758757904      1.66935278067322      0.82598092148317
  N   -1.16413088177708      2.65694691331159      1.31962781800513
  N   1.69790836084196     -0.79372042410320     -0.52477033015088
  O   2.78427576209969     -0.56688518921447     -1.05764561429674
  O   1.15183036533607     -1.89362645546828     -0.44157576843998
