12
Coordinates from ORCA-job run
  C   -0.32138880605640      0.12421903589838      0.13175053537944
  C   0.73217289054515     -0.53430003741466     -0.38014701755805
  H   0.63913618248858     -1.44979901848537     -0.95055752589292
  C   -1.72063564852134     -0.40714656834706     -0.02529906580584
  H   -2.33778950423357      0.31581291131500     -0.56378385701618
  H   -2.17339451256736     -0.56042715732652      0.95713089034788
  H   -1.72452891555361     -1.35217035600971     -0.56926580664596
  C   -0.21150661251113      1.36364880148559      0.84337158757708
  N   -0.27833092923165      2.38315519237761      1.42759944900296
  N   2.11096008427114     -0.06895487541027     -0.30056219804917
  O   2.88027735108250     -0.59211700494179     -1.10778752662703
  O   2.40502842028770      0.78007907685879      0.53555053528778
