12
Coordinates from ORCA-job run
  C   -0.33261905420458      0.12281571246276      0.10531898975453
  C   0.76555166512036     -0.46362845869986     -0.40088906137528
  H   0.73262357592317     -1.36550651314781     -0.99877111989723
  C   -1.70246859632461     -0.44311082377065     -0.15726964234700
  H   -2.18951957235826     -0.69653265930584      0.78732353598651
  H   -1.64755510893670     -1.33688058717807     -0.77967410871770
  H   -2.32425331168655      0.30247912287912     -0.65850199810270
  C   -0.30467265977618      1.30227204052284      0.91953817142645
  N   -0.44591080889096      2.25235306512683      1.59968087107314
  N   2.13005914186745      0.00235567686754     -0.18614249490614
  O   2.31188244930071      1.08462559229829      0.36263887572498
  O   3.00688227996615     -0.76224216805514     -0.59225201861956
