12
Coordinates from ORCA-job run
  C   -0.32328236648807      0.14343737713449      0.10969375734170
  C   0.72994804169160     -0.51379429946660     -0.40511171155248
  H   0.63539254143583     -1.43229677954625     -0.97018629238575
  C   -1.72615316429876     -0.36126541680256     -0.09746680283560
  H   -1.73283466561565     -1.27699729561434     -0.68958339109575
  H   -2.32436890274627      0.39707847315405     -0.60818091384195
  H   -2.19888866213991     -0.55843816851872      0.86763611615921
  C   -0.21385505964493      1.34554134741135      0.88282346557123
  N   -0.28813572007432      2.32252289100633      1.53478962351061
  N   2.12145144543946     -0.11103655317139     -0.24252289742078
  O   2.37241541953525      0.97927581934263      0.26160472126548
  O   2.94731109290576     -0.93302739492897     -0.64349567471592
