12
Coordinates from ORCA-job run
  C   -0.26123014401700      0.23383500646388      0.47114042627705
  C   1.05430463773447     -0.01719392390683      0.32188926447739
  H   1.79415790944165      0.14664082676162      1.09541594793750
  C   -1.36928564393318     -0.00610259522328     -0.51814138083901
  H   -1.43690046564355      0.83804314864429     -1.20902346662042
  H   -2.31860713151518     -0.10076142542012      0.00891750493030
  H   -1.18689430498002     -0.89809069816363     -1.11410866521092
  C   -0.63213529196483      0.82037371621999      1.72768690310948
  N   -0.97162854893547      1.30663658242768      2.74454358774925
  N   1.62057956038475     -0.61905263071640     -0.87456132167485
  O   2.67601488790226     -1.22952853823967     -0.70569780523463
  O   1.03262453552607     -0.47579946884751     -1.94606099490114
