12
Coordinates from ORCA-job run
  C   -0.25538250383221      0.38986305246779      0.35732705001376
  C   1.06625248159504      0.24000547064577      0.14021771827883
  H   1.82729719445518      0.87128844087472      0.58147920290993
  C   -1.38900986036886     -0.39629227001067     -0.24334549402455
  H   -1.54832917538527     -1.31268002797190      0.33021382685231
  H   -1.17181996770369     -0.68927319514695     -1.26851649569318
  H   -2.30367141769416      0.19574281549544     -0.21424198994475
  C   -0.60635082613736      1.41690309111038      1.29688909101851
  N   -0.92664657592782      2.24937942431047      2.06507079323820
  N   1.61723899860245     -0.74169930490542     -0.78018127161497
  O   0.96973903829341     -1.76068227610777     -1.01836926819925
  O   2.72168261410329     -0.46255522076186     -1.24654316283484
