12
Coordinates from ORCA-job run
  C   -0.31176571561180      0.10105717570028      0.17157886793383
  C   0.71048350106607     -0.44379870185447     -0.50983620066978
  H   0.60327565046708     -1.31913415882525     -1.13787520217762
  C   -1.68868847471497     -0.50429293517990      0.11515915984991
  H   -2.40269476661713      0.22689127813762     -0.27137224490819
  H   -2.01504385960065     -0.78384566853878      1.11969966315407
  H   -1.70524176004746     -1.38851476789823     -0.52293936784542
  C   -0.19288199553269      1.27401660709786      0.98693076707692
  N   -0.25810651010120      2.22276208249289      1.68032750346897
  N   2.07018262343489      0.08144992845945     -0.52864434428222
  O   2.36952788755513      0.99104863559806      0.23853809576214
  O   2.82095341970273     -0.45763947518954     -1.34356669736262
