12
Coordinates from ORCA-job run
  C   -0.31933346270712      0.15560035382353      0.10282029681127
  C   0.71719225004900     -0.55499564364296     -0.37340285249473
  H   0.60108375904834     -1.50760705837424     -0.87441801453207
  C   -1.73294942143344     -0.33597023968988     -0.05758374572423
  H   -2.32176922301922      0.39693865415843     -0.61424584014026
  H   -1.76180064167394     -1.28978460906071     -0.58549919140609
  H   -2.19993058958994     -0.45738219836094      0.92267987472856
  C   -0.18197514349808      1.40655587440499      0.78918804698441
  N   -0.23374201056494      2.42838623022970      1.37089525877607
  N   2.11698387442094     -0.16649278853161     -0.25165901581138
  O   2.39193557325220      0.94512680510390      0.18911539548489
  O   2.92430503571620     -1.02237538006021     -0.61789021267644
