12
Coordinates from ORCA-job run
  C   -0.28283730964211      0.50960170680234      0.01319307747295
  C   0.95446580833897      0.28827298558044     -0.47224607059157
  H   1.59256403846124      1.06994052112055     -0.86498663275317
  C   -1.22941863352931     -0.48245802462701      0.63181332490546
  H   -1.85996884687104     -0.92231363986832     -0.14693199010579
  H   -1.88153740077045      0.03227995532584      1.33634565984250
  H   -0.70221884414810     -1.29206297253130      1.12942984102500
  C   -0.75168862421733      1.86046771077539     -0.09933375971627
  N   -1.16857924213768      2.95784274962110     -0.18534719328399
  N   1.60051280888757     -1.01188105727909     -0.45225586085924
  O   2.83023721328629     -0.98593323914942     -0.40261966772797
  O   0.89946903234196     -2.02275669577052     -0.48506072820791
