16

C	-0.422433	0.058659	-1.457066
C	0.0	0.0	0.0
F	-0.312264	-1.233282	-2.03197
H	1.101372	0.0	0.0
H	-1.480882	0.333156	-1.56102
C	0.514459	0.982557	-2.203323
H	1.533638	0.736492	-1.888078
H	0.304872	2.012486	-1.909653
H	0.389174	0.879079	-3.285469
N	-0.596992	-1.16738	0.67215
H	0.041148	-1.403668	1.428436
H	-0.534058	-1.941359	0.018189
N	-0.439939	1.247693	0.630864
H	-1.265728	1.032417	1.180013
H	0.296902	1.541802	1.260486
F	2.765081	0.0	0.0
