16

C	-0.566504	0.048527	-1.403566
C	0.0	0.0	0.0
F	-0.266041	1.302833	-1.984066
H	1.100518	0.0	0.0
H	-0.040509	-0.702349	-1.99944
C	-2.067553	-0.130814	-1.492266
H	-2.568649	0.624728	-0.883404
H	-2.334653	-1.120417	-1.120558
H	-2.401952	-0.033445	-2.529193
N	-0.40743	-1.274178	0.6017
H	-1.184828	-1.08723	1.225811
H	0.377316	-1.595175	1.155906
N	-0.53339	1.140664	0.782154
H	-0.439369	1.95715	0.185661
H	0.151343	1.286455	1.518967
F	2.730321	0.0	0.0
