16

C	-0.349458	-0.037875	-1.462704
C	0.0	0.0	0.0
F	-1.747473	-0.249835	-1.650573
H	1.095428	0.0	0.0
H	-0.143356	0.949548	-1.883848
C	0.443337	-1.108906	-2.169505
H	0.115033	-2.088285	-1.82067
H	0.336576	-1.045629	-3.255204
H	1.483781	-0.961693	-1.865015
N	-0.417175	-1.253793	0.636778
H	-1.39393	-1.201284	0.910509
H	0.14678	-1.379298	1.468804
N	-0.490812	1.237257	0.610699
H	-1.478048	1.142273	0.828733
H	0.008601	1.372659	1.481941
F	2.728904	0.0	0.0
