15

C	0.0	0.0	0.0
C	-0.523821	-0.057794	-1.43157
F	1.386145	0.0	0.0
H	-1.606561	0.113154	-1.399406
H	-0.273902	-1.009272	-1.894153
C	-0.472469	1.193088	0.805736
H	-0.129599	2.108315	0.324574
H	-1.563	1.178377	0.850736
H	-0.047569	1.125504	1.809188
C	-0.388652	-1.263448	0.663994
N	-0.553448	-2.283762	1.221272
N	0.134611	0.982523	-2.26449
O	-0.157978	2.158895	-2.056344
O	0.941499	0.600894	-3.113699
Cl	-3.63199	0.0	0.0
