15

C	0.0	0.0	0.0
C	-0.535088	0.351427	-1.370605
F	1.389212	0.0	0.0
H	-1.620903	0.16979	-1.366422
H	-0.325302	1.393669	-1.604442
C	-0.480565	1.025698	1.009947
H	-0.085368	0.769321	1.994479
H	-1.572705	1.019833	1.029311
H	-0.106896	2.011032	0.719592
C	-0.382237	-1.356673	0.446789
N	-0.562537	-2.418992	0.912006
N	0.095548	-0.441115	-2.459281
O	0.272475	-1.641591	-2.273029
O	0.377313	0.163783	-3.4942
Cl	-3.639728	0.0	0.0
