15

C	0.0	0.0	0.0
C	-0.516327	-0.055556	-1.433731
F	1.38567	0.0	0.0
H	-1.605713	0.072807	-1.405601
H	-0.22204	-0.989461	-1.908217
C	-0.480626	1.189398	0.802647
H	-0.053005	1.126666	1.805671
H	-1.570913	1.164857	0.848335
H	-0.147579	2.109447	0.323178
C	-0.39037	-1.266301	0.658394
N	-0.564247	-2.288878	1.208062
N	0.104009	1.024958	-2.244832
O	-0.292474	2.175552	-2.068774
O	0.986381	0.698196	-3.040461
Cl	-3.640721	0.0	0.0
