15

C	0.0	0.0	0.0
C	-0.482294	-0.108003	-1.441805
F	1.385883	0.0	0.0
H	-0.013184	-0.968557	-1.919122
H	-1.576452	-0.140684	-1.444128
C	-0.443779	1.265164	0.704612
H	-0.087819	1.233931	1.736218
H	-1.530954	1.343261	0.675277
H	0.017934	2.118376	0.203401
C	-0.405045	-1.218853	0.725574
N	-0.563789	-2.220875	1.31643
N	-0.023991	1.088637	-2.201187
O	1.099733	1.041118	-2.707291
O	-0.782546	2.055366	-2.25699
Cl	-3.572959	0.0	0.0
