9
Coordinates from ORCA-job run
  C   0.31670359483342      0.40667874682459      0.26356036927778
  C   -1.00680492348388     -0.18770510572785     -0.19829351825608
  Br  0.80920641001970      1.94027287430046     -0.84686839492916
  H   -0.92941827690214     -0.53972148390497     -1.22703166684587
  H   0.23702524866030      0.80306273689883      1.27690838174356
  H   -1.27135617823916     -1.03012457554637      0.44568527625369
  H   -1.79262356383623      0.56585220279839     -0.13980596945306
  C   1.39767699432238     -0.57090518386841      0.22441687440592
  N   2.23959069462560     -1.38941021177466      0.20042864780321
