9
Coordinates from ORCA-job run
  C   0.31782178046844      0.38180590570288      0.29745365729401
  C   -1.00651442796914     -0.15926923153903     -0.22336453119277
  Br  0.84195509797586      1.98896725611000     -0.68706857927594
  H   -0.91895806970620     -0.43644506174072     -1.27399115303481
  H   0.23112510898600      0.70042461699005      1.33734104402517
  H   -1.78394859523123      0.59826986610477     -0.12042076322331
  H   -1.29044274607940     -1.04272662055792      0.35402869247847
  C   1.38778059608557     -0.60354031320847      0.19648772857494
  N   2.22018125547010     -1.42848641786158      0.11953390435423
