18

C	0.0	0.0	0.0
C	-0.268292	-0.24422	-1.510771
F	1.391302	0.0	0.0
H	0.419023	0.409989	-2.039653
C	-0.422656	1.401687	0.405291
H	-0.010118	1.580501	1.404253
H	-1.514729	1.393403	0.421077
H	-0.031758	2.158994	-0.277419
N	-0.511273	-1.05026	0.801654
H	-0.329181	-0.796672	1.769781
H	-1.544548	-0.920057	0.637756
N	-1.611783	0.081623	-2.119927
O	-2.301538	-0.814687	-2.574538
O	-1.796297	1.284593	-2.256744
N	0.153455	-1.622024	-1.908172
O	-0.51987	-2.57813	-1.549862
O	1.18662	-1.681763	-2.584659
F	-2.760056	0.0	0.0
