18

C	0.0	0.0	0.0
C	-0.567684	-0.019874	-1.420228
F	1.403146	0.0	0.0
H	-1.669142	0.051673	-1.262065
C	-0.406847	1.270951	0.731703
H	-1.496178	1.312795	0.700186
H	-0.057506	1.166638	1.764122
H	0.048099	2.162671	0.299219
N	-0.530395	-1.193818	0.593686
H	-1.554849	-1.009526	0.534978
H	-0.262743	-1.208023	1.572979
N	-0.252801	-1.26974	-2.172592
O	0.839038	-1.804271	-2.02676
O	-1.136979	-1.652206	-2.940668
N	-0.087864	1.106979	-2.267468
O	-0.598432	2.201908	-2.044737
O	0.764816	0.884423	-3.126325
F	-2.865056	0.0	0.0
