18

C	0.0	0.0	0.0
C	-0.567364	0.127376	-1.414544
F	1.402926	0.0	0.0
H	-1.668056	0.199433	-1.248433
C	-0.405672	1.185022	0.864245
H	-0.050185	0.972425	1.877805
H	0.045847	2.117362	0.525272
H	-1.495011	1.228173	0.842091
N	-0.520849	-1.253763	0.464007
H	-0.246329	-1.358108	1.435859
H	-1.547194	-1.072198	0.437284
N	-0.272113	-1.059798	-2.26979
O	-1.187241	-1.410209	-3.017303
O	0.836031	-1.578618	-2.212592
N	-0.058965	1.318585	-2.15351
O	-0.524673	2.402407	-1.809914
O	0.767752	1.157996	-3.049258
F	-2.859868	0.0	0.0
