18

C	0.0	0.0	0.0
C	-0.205819	0.16957	-1.5428
F	1.394393	0.0	0.0
H	0.380902	-0.623751	-2.000813
C	-0.45717	1.145575	0.871341
H	0.080942	2.060128	0.632933
H	-1.535842	1.238795	0.733258
H	-0.237416	0.8468	1.89891
N	-0.55132	-1.215769	0.460198
H	-1.584248	-0.967845	0.454959
H	-0.410978	-1.944033	-0.23225
N	0.394271	1.423253	-2.094286
O	-0.018534	2.507511	-1.695028
O	1.284374	1.268447	-2.937194
N	-1.578174	-0.000265	-2.140262
O	-1.887164	-1.171973	-2.32394
O	-2.184672	0.984076	-2.528528
F	-2.785407	0.0	0.0
