15

C	-0.462964	-0.069583	-1.453924
C	0.0	0.0	0.0
Br	-2.594697	-0.182518	-1.358817
H	1.095922	0.0	0.0
N	-0.035755	1.001146	-2.214671
H	-0.172558	1.903636	-1.780982
H	-0.320458	0.980613	-3.181616
C	-0.140244	-1.348661	-2.076235
N	0.140521	-2.35107	-2.621163
N	-0.416657	-1.171251	0.737863
H	0.293033	-1.391868	1.424328
H	-1.313569	-1.044243	1.186164
C	-0.432374	1.283164	0.574922
N	-0.780758	2.30504	1.041304
Cl	3.222779	0.0	0.0
