15

C	-0.295961	0.068668	-1.503707
C	0.0	0.0	0.0
Br	-2.240892	0.409954	-1.824147
H	1.098282	0.0	0.0
N	0.467498	1.142832	-2.052903
H	1.427111	1.065231	-1.707234
H	0.464939	1.118361	-3.064667
C	-0.062759	-1.245258	-2.123256
N	0.17263	-2.242311	-2.700173
N	-0.490459	-1.219872	0.601753
H	0.170284	-1.529601	1.303141
H	-1.397119	-1.081908	1.027561
C	-0.447078	1.227496	0.668312
N	-0.820792	2.1515	1.29145
Cl	3.238693	0.0	0.0
