15

C	-0.573282	-0.049312	-1.43271
C	0.0	0.0	0.0
Br	0.38118	-1.567194	-2.380081
H	1.102537	0.0	0.0
N	-1.9719	-0.245812	-1.369128
H	-2.133954	-1.033583	-0.747655
H	-2.370292	-0.41557	-2.2832
C	-0.253975	1.142858	-2.215365
N	-0.070222	2.104037	-2.866519
N	-0.483433	-1.194772	0.717402
H	-0.778236	-0.938075	1.651671
H	0.311129	-1.819783	0.807565
C	-0.492536	1.213864	0.65136
N	-0.900501	2.159787	1.216448
Cl	3.258579	0.0	0.0
