15

C	-0.301299	0.040478	-1.509026
C	0.0	0.0	0.0
Br	-2.256445	0.286526	-1.787395
H	1.102383	0.0	0.0
N	0.396105	1.085555	-2.213493
H	0.15559	1.977787	-1.79208
H	1.394059	0.928186	-2.051974
C	0.024708	-1.258911	-2.105288
N	0.282814	-2.27806	-2.628942
N	-0.494295	-1.193144	0.645267
H	0.167595	-1.486301	1.352627
H	-1.40074	-1.04249	1.069726
C	-0.42831	1.260211	0.621088
N	-0.79336	2.246245	1.147515
Cl	3.231175	0.0	0.0
