13
Coordinates from ORCA-job run
  C   -0.56365104031041     -0.17597861030186      0.52087876231908
  C   0.79051182648731      0.50342221741261      0.48026412094638
  Br  -0.99534083044555     -0.50933525003223      2.38722941787656
  H   0.76283219329614      1.45357814502881      1.01304231241207
  H   1.55333812535802     -0.14551933096575      0.90850907003824
  C   -1.62207388560081      0.61320231342664     -0.08326906697412
  N   -2.45798049668815      1.31087054897476     -0.52719074996359
  N   -0.49228950420142     -1.55758117493939     -0.15610620280930
  O   -1.50876083050518     -1.94606431350486     -0.70509585291103
  O   0.56820872167064     -2.14882902937601     -0.03021335962106
  N   1.21140932500897      0.79893824544280     -0.92835832004112
  O   2.19834804311183      1.51167998425619     -1.04511051246893
  O   0.55544835281862      0.29161625457827     -1.83457961880318
