13
Coordinates from ORCA-job run
  C   -0.62885428096856     -0.08355470869930      0.46317960336429
  C   0.72208224726339      0.60322843126620      0.47447762317771
  Br  -1.31148674768201     -0.06065320449552      2.28392831891659
  H   0.62740973609315      1.63739312310672      0.80468939518687
  H   1.41598916456945      0.06475393022478      1.11863414856983
  C   -1.59178557859205      0.55247205363517     -0.41789228957224
  N   -2.36725835920600      1.13031304977090     -1.08665686714963
  N   -0.47456455278193     -1.56783652110298      0.08270111889558
  O   -1.41247457326833     -2.07720611146678     -0.50606601953405
  O   0.55772167261592     -2.10066828701441      0.45775703077697
  N   1.33206277663628      0.63069549893119     -0.89496588496929
  O   0.80025493799549     -0.05297603105206     -1.76621529995956
  O   2.33190355732519      1.32503877689607     -1.01357087770305
