13
Coordinates from ORCA-job run
  C   -0.50236055491809     -0.15558415013332      0.49395229093237
  C   0.38229183081904      0.87074944132730     -0.20054094312934
  Br  0.18376538419484     -0.62671267870821      2.22661764933414
  H   0.40733684404138      1.79996948733351      0.36563799165303
  H   0.01003680189836      1.04425347464479     -1.21192020056851
  C   -1.84055081407077      0.40108513987232      0.63443492415169
  N   -2.90819289543114      0.88348134155209      0.73902628744862
  N   -0.65901482469656     -1.41405862224567     -0.42068459918696
  O   -0.49998373705197     -2.51378505830580      0.06387688700135
  O   -0.98079954024505     -1.12568050475375     -1.56364647178025
  N   1.79141054287224      0.39272113817194     -0.33057571959832
  O   1.94899194127649     -0.79812635929178     -0.57992655215500
  O   2.66706902131122      1.24168735053658     -0.21725154410281
