13
Coordinates from ORCA-job run
  C   -0.44919225468157     -0.22991736249418      0.41002423532764
  C   0.78116429801943      0.03796375404745     -0.45438345113165
  Br  0.00999656010409     -0.23958794299889      2.27407846047621
  H   1.51797937201117     -0.75104180031667     -0.30821567533960
  H   0.48153488892419      0.11345816399275     -1.50116336095396
  C   -1.56495973580231      0.67046798471999      0.16949181962912
  N   -2.50461656779196      1.35175746018151     -0.02092282011778
  N   -0.92416570994385     -1.64709151497421     -0.05348556089298
  O   -0.85001989049841     -2.57993007011905      0.72236923600637
  O   -1.30293930089771     -1.66060727834553     -1.21727322878116
  N   1.43908810038109      1.32667059255097     -0.08637586638863
  O   0.71473155203046      2.31446647237509     -0.02863991034594
  O   2.65139868814539      1.29239154138076      0.09449612251238
