13
Coordinates from ORCA-job run
  C   -0.51118927497896     -0.15613240243275      0.48474074998042
  C   0.38644819976334      0.87096041274632     -0.19170533957583
  Br  0.14531179009492     -0.63229759219258      2.22703821333500
  H   0.03354469602435      1.04525308101857     -1.20984808732194
  H   0.40132716603240      1.79926636248978      0.37631909611169
  C   -1.85153577845004      0.40088027345615      0.60197246134880
  N   -2.91936456895728      0.88711773428686      0.68379873841170
  N   -0.65298780728445     -1.41219322113528     -0.43565485049396
  O   -0.49441437678293     -2.51305712418278      0.04662578294233
  O   -0.96385119832198     -1.12099479842114     -1.58092930336774
  N   1.79718296212340      0.39117621490318     -0.29493497450983
  O   2.67293994097185      1.23347662415775     -0.13955331495592
  O   1.95658824976534     -0.79445556469407     -0.56786917190470
