13
Coordinates from ORCA-job run
  C   -0.48093856462079     -0.21918451056025      0.30222096171792
  C   0.85860811503091     -0.01506167637333     -0.39361631771940
  Br  -0.24145632245700     -0.33090224344245      2.22272671157797
  H   0.70585306628077      0.06734292543067     -1.47162451048217
  H   1.53519419479598     -0.82935466573018     -0.15365243372511
  C   -1.48218644758156      0.78475462983415     -0.01296296382786
  N   -2.31277588389092      1.57199735603272     -0.28464928697655
  N   -1.05339950729740     -1.59093248137309     -0.14679464058549
  O   -2.24333826725567     -1.76409591786848      0.05212542848135
  O   -0.25275184520646     -2.37944262831844     -0.62945691583691
  N   1.49751157923440      1.25564892228850      0.06368032067594
  O   2.56624944033669      1.15326641829662      0.65785661769376
  O   0.90443044263105      2.29596387178357     -0.20685297099343
