13
Coordinates from ORCA-job run
  C   -0.54080200558802     -0.08194032790038      0.56505692720628
  C   0.77529699624670      0.63194720266490      0.33003794100032
  Br  -0.90989510635691     -0.01360635896051      2.47310728377840
  H   1.58054780951809      0.12853003528566      0.86349354643822
  H   0.71127095270156      1.67388751723978      0.64264552284816
  C   -1.65282229825664      0.50638010905875     -0.15981686967705
  N   -2.53858825795013      1.04575698341166     -0.71383469084460
  N   -0.41507510070233     -1.57399625322821      0.20615843997219
  O   0.67758477635951     -2.07442895164882      0.42055142407131
  O   -1.42365544161137     -2.11998656366477     -0.20667193456488
  N   1.14703188666683      0.62843989311429     -1.12258870861703
  O   0.49765081211701     -0.09625861751887     -1.87238507379599
  O   2.09245497685570      1.34227533214649     -1.42675380781533
