13
Coordinates from ORCA-job run
  C   -0.61752689866457     -0.11480429219177      0.47488774171828
  C   0.61015742048784      0.76880818124055      0.38013763081668
  Br  -1.32606563721854      0.05990978259803      2.27733583024360
  H   0.35014524407609      1.81201507175293      0.55791420698778
  H   1.36781802155662      0.44352048167617      1.09183435340775
  C   -1.65191007262357      0.23236020283835     -0.48300699248077
  N   -2.48325325458313      0.59118815208704     -1.23304944877417
  N   -0.22863354216638     -1.59547244805560      0.30939315230079
  O   -1.06406949900524     -2.32236806331457     -0.19997137904255
  O   0.86586930804296     -1.90291768579721      0.75404702144562
  N   1.23272175748508      0.69510253447130     -0.98215159664697
  O   0.83047336963239     -0.18158278509916     -1.74287516941856
  O   2.11327378298048      1.51424086779394     -1.20449535055753
