13
Coordinates from ORCA-job run
  C   -0.58669228939593     -0.10940916304755      0.51300858764830
  C   0.63873838055878      0.76518798493019      0.33947709536932
  Br  -1.17948083459022      0.07354025707051      2.35600742991188
  H   1.43776916801477      0.43438686701387      1.00173409931453
  H   0.39880061797878      1.81043477284240      0.53270316343007
  C   -1.67665260096247      0.24331276630321     -0.37896685166193
  N   -2.55281702410460      0.60409267007039     -1.07511680956999
  N   -0.21938499051654     -1.59331831361016      0.32678398015957
  O   0.89919992145633     -1.90762467193809      0.70102994292597
  O   -1.09111517317202     -2.31523453923490     -0.12557369125969
  N   1.17268650321520      0.68590968294875     -1.05962423366469
  O   0.71914886968166     -0.19088726578993     -1.79077699198095
  O   2.04079945183629      1.50060895244129     -1.33968572062239
