13
Coordinates from ORCA-job run
  C   -0.50094738984106     -0.15865119862446      0.49281726331909
  C   0.38168308778391      0.87418268954101     -0.19487590750180
  Br  0.19190709559152     -0.64508218749352      2.21806668387093
  H   0.40388715992078      1.80005525374346      0.37685407093071
  H   0.01012124382716      1.05122803239205     -1.20592526558089
  C   -1.84002605307619      0.39387045420770      0.64058400268809
  N   -2.91237280497285      0.86526501748317      0.74634717795315
  N   -0.65867112970777     -1.40914682495654     -0.43319208928522
  O   -1.00078666779676     -1.11102584112873     -1.56769628755230
  O   -0.48150085827317     -2.51264747789705      0.03644135847429
  N   1.79131349175301      0.39811438245951     -0.32409617353082
  O   1.94705447522405     -0.78140778396318     -0.62442143732001
  O   2.66933834956740      1.23624548423660     -0.15890339646522
