13
Coordinates from ORCA-job run
  C   -0.42234790465098     -0.31659417005608      0.38101479459927
  C   0.74531120120745      0.14146715220094     -0.49058023028653
  Br  0.16758657122422     -0.71838853448149      2.16293499959638
  H   1.48658188910338     -0.65322592519316     -0.56695645451670
  H   0.37356896309520      0.43362901532567     -1.47440803350343
  C   -1.54906265476524      0.60143582481168      0.41742206376433
  N   -2.48876458025285      1.30662319968313      0.47194495402257
  N   -0.93292404592491     -1.60747041949884     -0.34088140293855
  O   -1.41082844579377     -1.37385898713426     -1.44321505612898
  O   -0.78644412236720     -2.68591533672327      0.20051729319286
  N   1.43577788464250      1.32935975649052      0.09411833554469
  O   0.72233012734669      2.26814695038974      0.43055062070558
  O   2.65921511713552      1.27579147418541      0.15653811594851
