13
Coordinates from ORCA-job run
  C   -0.47143739456585     -0.25355232019612      0.37204018623851
  C   0.81664649480440      0.08960750124561     -0.37332144618894
  Br  -0.20647361770349     -0.17697431082217      2.27196275531763
  H   1.59291735897403     -0.63454332119607     -0.12857807635429
  H   0.62203557504888      0.11325860810955     -1.44707252461342
  C   -1.62375091353635      0.54553132211958     -0.01125501463642
  N   -2.58518825064614      1.14442582210683     -0.32789725997390
  N   -0.78424763035038     -1.71701447880696     -0.08681669621933
  O   -0.72623159079783     -2.61893952003945      0.72573122664007
  O   -1.03183671814934     -1.79248085371496     -1.28320841628688
  N   1.33592750868786      1.43539609246564      0.01302097164779
  O   2.53370402722186      1.50761647958334      0.26491195845147
  O   0.52793515101232      2.35766897914521      0.01048233597768
