13
Coordinates from ORCA-job run
  C   -0.58527379212468     -0.13553739447970      0.50786509090751
  C   0.55606517320796      0.84036670783067      0.30361844772744
  Br  -1.23543581479036      0.09776199577566      2.32567725185557
  H   1.36699757039434      0.62587534112266      0.99854340358094
  H   0.21456600094582      1.86737544385635      0.43021305097592
  C   -1.68263364369564      0.05902662512966     -0.42282944496149
  N   -2.57495751552907      0.29909123667839     -1.14989778265681
  N   -0.07578665500883     -1.58570158674581      0.41798019464298
  O   1.05769211395531     -1.77016679798558      0.83182433125362
  O   -0.86427811246579     -2.41226689574703     -0.00747642518701
  N   1.12732575177721      0.73129329267008     -1.07840383462446
  O   1.92130642615744      1.60743498901191     -1.39138542267099
  O   0.77541249717628     -0.22555295711726     -1.76372886084320
