13
Coordinates from ORCA-job run
  C   -0.51200405455427     -0.19626859835597      0.46622193922273
  C   0.38299120759761      0.88822683603337     -0.11808521407595
  Br  0.14035086434074     -0.81315759783820      2.16526965086187
  H   0.03593025248899      1.14073294938219     -1.12179042559836
  H   0.38712313204311      1.76797805506684      0.52270759459981
  C   -1.85668823687061      0.33990514778567      0.62338145033148
  N   -2.93800680374993      0.78754055776255      0.74054013575454
  N   -0.64198985969687     -1.37187292608787     -0.55710337205985
  O   -0.95581767256774     -0.98809418333414     -1.67386522820209
  O   -0.47116833861191     -2.50781052852624     -0.16960937501132
  N   1.79737783663855      0.42657095306006     -0.24769936369088
  O   1.96529712530478     -0.72586833054068     -0.63427344995538
  O   2.66760454763759      1.25111766559247      0.00430565782341
