15

C	0.0	0.0	0.0
C	-0.310326	-0.068915	-1.503369
F	1.369192	0.0	0.0
H	-1.326977	-0.4102	-1.651952
H	0.382225	-0.807845	-1.915349
C	-0.688804	1.083528	0.694104
N	-0.630889	2.131182	1.264488
N	-0.344546	-1.309342	0.699834
O	-0.366108	-2.328984	0.010702
O	-0.368646	-1.289725	1.928889
C	-0.087562	1.297856	-2.139494
H	-0.179003	1.23091	-3.227819
H	-0.828559	2.012112	-1.774169
H	0.906545	1.687307	-1.904984
H	-2.232478	0.0	0.0
