15

C	0.0	0.0	0.0
C	-0.325635	-0.159379	-1.49293
F	1.355587	0.0	0.0
H	0.393262	-0.890006	-1.875052
H	-1.328848	-0.54928	-1.609477
C	-0.67826	1.124356	0.637842
N	-0.641578	2.202583	1.146605
N	-0.342466	-1.267336	0.777347
O	-0.381155	-2.323638	0.146845
O	-0.338498	-1.17863	2.003613
C	-0.172684	1.180261	-2.203331
H	-0.962465	1.863406	-1.885734
H	0.790968	1.644095	-1.978949
H	-0.243473	1.047598	-3.286894
H	-2.243846	0.0	0.0
