15

C	0.0	0.0	0.0
C	-0.320998	-0.051831	-1.503697
F	1.355736	0.0	0.0
H	0.351097	-0.800951	-1.926802
H	-1.345391	-0.369277	-1.643759
C	-0.71875	1.063754	0.700651
N	-0.67708	2.117012	1.264667
N	-0.341514	-1.324773	0.678897
O	-0.365386	-1.3265	1.908437
O	-0.363701	-2.331618	-0.027305
C	-0.077229	1.311593	-2.138735
H	-0.774456	2.051857	-1.737297
H	0.941588	1.662167	-1.946159
H	-0.220471	1.254383	-3.223436
H	-2.236351	0.0	0.0
