15

C	0.0	0.0	0.0
C	-0.203187	0.063063	-1.540081
F	1.35884	0.0	0.0
H	0.321866	0.987915	-1.810679
H	0.419368	-0.75914	-1.902857
C	-0.610208	1.091383	0.739473
N	-0.617966	2.132166	1.313815
N	-0.397203	-1.311981	0.614223
O	-0.422152	-2.301936	-0.127528
O	-0.406396	-1.365688	1.847985
C	-1.539512	0.01675	-2.257084
H	-2.175338	0.86038	-2.000451
H	-1.3329	0.036434	-3.340197
H	-2.080478	-0.894505	-2.010662
H	-2.093211	0.0	0.0
