17

C	-0.44786	0.004964	-1.455576
C	0.0	0.0	0.0
Cl	0.158522	-1.404445	-2.272088
H	1.091269	0.0	0.0
N	-1.979543	0.048709	-1.554672
O	-2.4785	0.991314	-0.946375
O	-2.574079	-0.81458	-2.181564
N	0.046789	1.203109	-2.282487
O	1.244967	1.411257	-2.232702
O	-0.807909	1.835592	-2.902346
N	-0.539328	-1.119122	0.661031
H	-1.508548	-0.976119	0.936332
H	0.005285	-1.33469	1.487083
N	-0.411828	1.331702	0.663487
O	-0.969352	1.245065	1.763831
O	0.03083	2.360753	0.170986
F	2.503591	0.0	0.0
