17

C	-0.419088	-0.140186	-1.4499
C	0.0	0.0	0.0
Cl	-0.002616	1.367977	-2.349842
H	1.091391	0.0	0.0
H	-1.500275	-0.248677	-1.569646
C	0.381	-1.282992	-2.057393
H	0.003669	-2.243431	-1.694655
H	1.417769	-1.151639	-1.735468
H	0.308432	-1.277185	-3.146059
C	-0.448101	-1.186256	0.84701
H	-1.518193	-1.407085	0.739502
H	-0.230303	-0.966298	1.894934
H	0.143992	-2.06115	0.575511
N	-0.604574	1.202488	0.626583
O	-1.737508	1.539882	0.262579
O	0.014332	1.753424	1.53572
F	2.61988	0.0	0.0
