17

C	-0.247529	0.028231	-1.497585
C	0.0	0.0	0.0
Cl	-1.999462	0.318953	-1.919718
H	1.093289	0.0	0.0
H	-0.064219	-0.997354	-1.826398
C	0.674811	0.951201	-2.272087
H	0.384336	1.993042	-2.14987
H	0.670695	0.69222	-3.335199
H	1.666183	0.79522	-1.829252
C	-0.548393	-1.225751	0.688357
H	-0.272304	-1.224346	1.74186
H	-1.636598	-1.299317	0.611441
H	-0.089883	-2.102311	0.225165
N	-0.460404	1.237584	0.661749
O	-0.199792	2.316763	0.129782
O	-1.05975	1.142399	1.737205
F	2.599155	0.0	0.0
