17

C	-0.437562	-0.015011	-1.461711
C	0.0	0.0	0.0
Cl	0.154014	-1.527466	-2.245172
H	1.091992	0.0	0.0
H	0.097376	0.783161	-1.970784
C	-1.933039	0.087763	-1.698963
H	-2.156451	0.08471	-2.768584
H	-2.3062	1.021114	-1.272686
H	-2.457477	-0.752976	-1.24101
C	-0.493789	-1.135159	0.86769
H	-0.19542	-2.07739	0.406983
H	-0.008294	-1.070243	1.840614
H	-1.578643	-1.130725	1.022312
N	-0.398962	1.299375	0.568571
O	-0.372675	2.29472	-0.165894
O	-0.688917	1.361333	1.768709
F	2.532891	0.0	0.0
