17

C	-0.250371	0.061975	-1.495628
C	0.0	0.0	0.0
Cl	-2.0037	0.35693	-1.915062
H	1.093295	0.0	0.0
H	-0.068728	-0.956422	-1.844226
C	0.670702	0.998846	-2.251958
H	0.670616	0.754641	-3.317598
H	0.381582	2.036896	-2.115609
H	1.660653	0.838475	-1.8064
C	-0.548271	-1.243244	0.662748
H	-0.263319	-1.269905	1.714151
H	-0.099847	-2.110925	0.171192
H	-1.638082	-1.311121	0.595337
N	-0.458183	1.222288	0.693245
O	-1.03875	1.106845	1.779245
O	-0.208691	2.312639	0.175444
F	2.596534	0.0	0.0
