16
Coordinates from ORCA-job run
  C   -0.64387647910537      0.13147648296491      0.28179685615106
  C   0.87438622824719      0.23578653440779      0.54675584796170
  Cl  -1.34534448848771     -0.02821334903284      1.98428071809005
  H   1.06434051861936      1.04960156768706      1.24907893236255
  N   -1.05309224989749      1.30543905103028     -0.38845198858610
  H   -2.03125302916427      1.26884168408785     -0.64426284074372
  H   -0.87070735307213      2.14995747175090      0.13999237133985
  C   -1.05607030105846     -1.10576662268579     -0.48839936920678
  H   -0.73461909343934     -2.01185957586653      0.02318563332769
  H   -0.61976491896613     -1.07662838944992     -1.48681234603553
  H   -2.14484691188292     -1.12866151801267     -0.56949015666611
  N   1.57085585771009      0.63857542812265     -0.73420714153134
  O   1.90793559103171      1.81383839970403     -0.81083057247733
  O   1.71575461929859     -0.22877500426519     -1.58701474051140
  C   1.45047543878788     -1.00575634175033      1.04213595175574
  N   1.91582657137899     -2.00585581869220      1.44424284476966
