16
Coordinates from ORCA-job run
  C   -0.59823694633295     -0.02804026168343      0.12078411717091
  C   0.90574126680317      0.33075879033584      0.09349991489113
  Cl  -0.82375273473707     -1.32388470933025      1.39268584520940
  H   1.05541627867295      1.02186629626320     -0.73942946201136
  N   -1.28329398032753      1.18110138157957      0.42537218207250
  H   -1.09824189676177      1.49826891220114      1.37060387462262
  H   -2.28273473915143      1.06497838969020      0.31199222948215
  C   -1.09143544363236     -0.58680945055126     -1.20093840583275
  H   -0.91073289825775      0.14051815706273     -1.99500503727220
  H   -2.16493800313376     -0.77171683038172     -1.12326480333708
  H   -0.60139399462933     -1.52399881866171     -1.45205127986237
  N   1.77489278147028     -0.86536525312463     -0.20809928623847
  O   1.82133994506207     -1.18468463554974     -1.39295665615808
  O   2.34575146891419     -1.41674002166596      0.72366331196311
  C   1.33060211126642      0.95274811837047      1.34062693742812
  N   1.62101678477487      1.50999993544554      2.33251651787235
