16
Coordinates from ORCA-job run
  C   -0.59101964734884      0.16714206595730      0.30759413986051
  C   0.92933160139517     -0.11631095058555      0.36181437827965
  Cl  -1.06089193838444      0.90062812978775      1.87991086982564
  H   1.16625717689669     -0.62571088526916      1.29746739311047
  N   -0.84691263120446      1.14226014274526     -0.71584381930546
  H   -1.84130631061240      1.31952230726579     -0.79050835670460
  H   -0.49267104162445      0.83190363986997     -1.61443597414585
  C   -1.34733320037862     -1.15204300746238      0.18342748699742
  H   -1.13997118339989     -1.61212888204365     -0.78555640192111
  H   -1.07826205878863     -1.85119023867054      0.97884586683462
  H   -2.41827526028735     -0.95243675181174      0.25377974787958
  N   1.72188355025061      1.17197489875599      0.37073867653755
  O   2.01148561270552      1.65277893553559     -0.71763494208821
  O   1.99031149595718      1.62493344178408      1.47644761375225
  C   1.34979074046431     -0.91470013086596     -0.78445972311903
  N   1.64558309435962     -1.58662271499273     -1.70158695579343
