16
Coordinates from ORCA-job run
  C   -0.69762107252053      0.10645870704760      0.37104666634750
  C   0.84770441018703      0.22330863393026      0.57218551284549
  Cl  -1.30667782034933     -0.09767884970426      2.05861598520455
  H   1.04900891083844      1.02927714376408      1.27995931015191
  N   -1.28457258550271      1.28207309124770     -0.18103431340987
  H   -1.19408459692060      1.31387564230625     -1.18785928654929
  H   -0.93536996910494      2.13784439268169      0.23051318132955
  C   -1.09565337256560     -1.10898541000357     -0.44192574223405
  H   -2.18400673071937     -1.14378591746340     -0.49097147565661
  H   -0.68956710454475     -1.03993019588127     -1.45371924576600
  H   -0.72888513199335     -2.02652627737311      0.01637853068154
  N   1.46203168233276      0.66762060213110     -0.73028987498985
  O   1.68368133199867     -0.19158258220511     -1.57762302641446
  O   1.63104855225622      1.87796870848249     -0.85355565468263
  C   1.47379489200736     -1.01425133240771      1.01111611661910
  N   1.96816860460069     -2.01468635655273      1.37716331652312
