16
Coordinates from ORCA-job run
  C   -0.64965369193315      0.11993028637286      0.27389273987646
  C   0.86303415427595      0.25295717913096      0.55748217776321
  Cl  -1.36918105341271     -0.04934558523788      1.96760305869506
  H   1.02943743753752      1.07217649354202      1.25946159265236
  N   -1.07211514569198      1.28433192622141     -0.40458838009473
  H   -0.91422912001977      2.13371244361312      0.12377652138738
  H   -2.04475524180791      1.22767584306431     -0.67630222434874
  C   -1.02932889502192     -1.12638510014484     -0.49855685776703
  H   -0.58440490512699     -1.09002818751044     -1.49304412196676
  H   -2.11666131292050     -1.17078661261107     -0.58970640186706
  H   -0.69464959913747     -2.02539715523665      0.01724934864316
  N   1.56683230175487      0.66494181641710     -0.71686601691369
  O   1.87781777807798      1.84715369153438     -0.79556734391111
  O   1.73905736342790     -0.20272216728602     -1.56413871757675
  C   1.45714844287750     -0.97590737483094      1.06312307067576
  N   1.94065148712067     -1.96330749703832      1.47518155475249
