16
Coordinates from ORCA-job run
  C   -0.56508239235902      0.10200867185510      0.24502226950382
  C   0.94341425026116      0.29508691755258     -0.05296497662381
  Cl  -0.73773396996357     -0.53044028969552      1.91124412923437
  H   1.01043861665456      0.75271489678225     -1.04196433051152
  N   -1.12579788338806      1.43758050211590      0.16067591569262
  H   -1.63703202911802      1.68158831790496      0.99665415741904
  H   -1.74133560035545      1.51685114082946     -0.63895547221322
  C   -1.21334109134300     -0.87504585855350     -0.72056055099660
  H   -2.28171597177975     -0.92090325513061     -0.50345313748599
  H   -0.79841208422090     -1.87810349830975     -0.63277418224513
  H   -1.06797551687392     -0.53188339195833     -1.74899363612320
  N   1.66867082445298     -1.02049852976276     -0.16900001605857
  O   2.14344186356778     -1.50882834423076      0.84932231337996
  O   1.68090041614920     -1.51342108836866     -1.29529887210897
  C   1.59269705440930      1.14531812903244      0.93410687887880
  N   2.13086351390669      1.84697567993718      1.70593951025839
