16
Coordinates from ORCA-job run
  C   -0.57478818146897      0.03530752976286      0.27116833829437
  C   0.89787150516939      0.41465666045628     -0.01644675006618
  Cl  -0.68927793392302     -0.66000089540933      1.90981561718392
  H   0.91562142989830      0.94755708846832     -0.97057382122690
  N   -1.27698838857542      1.30730872707163      0.27472872101633
  H   -1.58887629424243      1.52867878248395     -0.66544007061749
  H   -2.08822365479854      1.26132857379728      0.87888016333451
  C   -1.10757782578287     -0.98058057911041     -0.72753679015147
  H   -2.16941352339552     -1.13553329969171     -0.53079219201120
  H   -0.98383873048409     -0.60299983695012     -1.74639523902099
  H   -0.59936715867491     -1.94160770625352     -0.65336302144519
  N   1.74676298550623     -0.81080967748626     -0.23813244573588
  O   1.81949539150606     -1.19638650087054     -1.40312730199662
  O   2.25165230576490     -1.34219255425396      0.74313369452536
  C   1.47479069337957      1.24660225633975      1.02900573068174
  N   1.97015738012132      1.93067143164578      1.84407536723569
