16
Coordinates from ORCA-job run
  C   -0.68272992330437      0.12575586093356      0.17262762919137
  C   0.85579432296627     -0.00344198748848      0.41497976098224
  Cl  -1.27235310059523      1.18387393420970      1.50218775373897
  H   1.04686380913473     -0.47140210433821      1.38205639672610
  N   -1.07708897364194      0.69770322696583     -1.07243460294870
  H   -0.58041138333012      1.55629471902488     -1.27318578404867
  H   -0.94201759603337      0.04068932498148     -1.83113485696352
  C   -1.30998828770745     -1.24907281441028      0.32795268134416
  H   -1.08335286064455     -1.67862483582961      1.30434195658618
  H   -2.39031994262578     -1.14471829363238      0.22734107177882
  H   -0.94606441211357     -1.92365181512339     -0.45235549292775
  N   1.52155051966758      1.34702869002527      0.48986227101466
  O   1.46927548890931      2.04438881146194     -0.51940592408657
  O   2.04250770398379      1.64220764874884      1.55782942366495
  C   1.45963136175377     -0.76425810929387     -0.67042912515041
  N   1.88870327358093     -1.40277225623528     -1.55823315890183
