16
Coordinates from ORCA-job run
  C   -0.70874857375968      0.09769623251773      0.35247874237228
  C   0.82966617579622      0.21296604562526      0.60159866682480
  Cl  -1.36689272904025     -0.14169932781308      2.01671169534876
  H   1.00778367305056      1.00567510512423      1.33023360798206
  N   -1.28145085208707      1.28364424390737     -0.19247067123513
  H   -1.16159267541803      1.33681832992553     -1.19524372232400
  H   -0.94666762875521      2.13105137958736      0.24736697475674
  C   -1.07987728405881     -1.10137802686550     -0.49665274144352
  H   -0.64491173077590     -1.01012206267571     -1.49462867261948
  H   -2.16623004795278     -1.13735596344269     -0.57825798359489
  H   -0.72387034747809     -2.02747039563064     -0.04715902904125
  N   1.48182636001400      0.68327135581418     -0.67302760920497
  O   1.73125810589226     -0.15915751354652     -1.52954687812618
  O   1.65263650665863      1.89597259857689     -0.76784498643176
  C   1.44537369977938     -1.03172084081778      1.03484953424330
  N   1.93069734813476     -2.03919116028663      1.39359307249324
