16
Coordinates from ORCA-job run
  C   -0.61130143399857      0.21941813446774      0.22190703343123
  C   0.89670079023966     -0.04305147075079      0.45016682446576
  Cl  -1.19679774141246      1.23456137246405      1.58467356077967
  H   1.05225709578163     -0.36752351788955      1.48053257791125
  N   -0.77331548148796      0.98305131099355     -0.98387054595639
  H   -1.75575224603241      1.14524142576904     -1.16827954755492
  H   -0.35486580642866      0.50963346735669     -1.77759238410321
  C   -1.37065774072642     -1.10234437585859      0.28840828110798
  H   -2.44117621678819     -0.89731146646788      0.23008903104594
  H   -1.09008635418554     -1.73777963174499     -0.55459753669386
  H   -1.17645539624674     -1.63546183225840      1.22194837596087
  N   1.70044031776271      1.22690326665368      0.28225857094748
  O   2.08425249014062      1.49566083812438     -0.84926652988004
  O   1.88289370370357      1.88068410464700      1.30176971247760
  C   1.39764564987117     -1.04021418875060     -0.48943139752829
  N   1.75721836980758     -1.87046743675534     -1.23871602641109
