16
Coordinates from ORCA-job run
  C   -0.61122281480801      0.11687428171769      0.15789249233439
  C   0.90444563331910     -0.11148949130897      0.30200979559350
  Cl  -1.05735652449792      1.13757861750000      1.63938904871030
  H   1.10080360522219     -0.64016862582196      1.23580364550390
  N   -0.93111649186033      0.71902778840169     -1.07207083873829
  H   -0.45722287332300      1.59954607242359     -1.22233085208713
  H   -1.92997509608018      0.82432914063226     -1.18879434545072
  C   -1.33673524414535     -1.20896478731776      0.30850164354099
  H   -2.41436181711543     -1.03512988590962      0.28264031670970
  H   -1.06770458628765     -1.86692143901513     -0.52047171269397
  H   -1.09519747800864     -1.68545975374502      1.25891301704347
  N   1.67437646128409      1.18499897416298      0.42898509343625
  O   2.37382866769317      1.30546374755385      1.42579237824503
  O   1.53972238961154      2.00277460529322     -0.47572606369297
  C   1.43654131095958     -0.85552169100410     -0.83458593600840
  N   1.87017485803683     -1.48793755356272     -1.72394768244605
