16
Coordinates from ORCA-job run
  C   -0.58523384349459     -0.05507334953752      0.16762808880897
  C   0.89121928764067      0.37864430887461      0.01407457708696
  Cl  -0.64372509901060     -1.32195993679861      1.48644396794979
  H   0.93981146415967      1.04996584759184     -0.84658062667027
  N   -1.30779557930574      1.12610658533151      0.49310625433185
  H   -1.06828891296137      1.48060413908493      1.41233019785318
  H   -2.30552315797522      0.95810979244258      0.45873627423663
  C   -1.14743242813360     -0.67795048846811     -1.09659926988750
  H   -2.20084559307684     -0.91383815382435     -0.93122990643026
  H   -1.06510787605807      0.03227562629775     -1.92182420850127
  H   -0.62974127099386     -1.59708399765637     -1.35903200029922
  N   1.79746304855401     -0.78021655745668     -0.32092580138313
  O   1.76930548649340     -1.13514455157201     -1.49628586561181
  O   2.46866640868236     -1.27012286157681      0.57781210431136
  C   1.37574296993705      1.06059016239561      1.20685363221947
  N   1.71148509554273      1.66409343487163      2.15649258198526
