16
Coordinates from ORCA-job run
  C   -0.61463004804965      0.21812593826856      0.21354155414558
  C   0.88543358361177     -0.06280920881696      0.47018950601363
  Cl  -1.22545464740488      1.19795716667824      1.59055407076433
  H   1.01408935241245     -0.41663237933224      1.49461626498459
  N   -0.74188488841518      1.01813390480776     -0.97338464859180
  H   -0.31386026150857      0.55914435488411     -1.77068291263516
  H   -1.71916867056146      1.19379308472920     -1.17375512098858
  C   -1.38472935404025     -1.09889102589333      0.22256487961440
  H   -1.08983026392939     -1.71095624236485     -0.63286699950384
  H   -1.21496159284280     -1.66172508309262      1.14342868461437
  H   -2.45230256808098     -0.88410761187480      0.14688090635903
  N   1.70221509662612      1.20538559973602      0.35703257576916
  O   2.11585418050787      1.50195674696805     -0.75673580798395
  O   1.86416014020918      1.82928247983078      1.39840962057961
  C   1.40205306508294     -1.03750244094439     -0.48423926513451
  N   1.77401687638283     -1.85115528358354     -1.24555330800687
