16
Coordinates from ORCA-job run
  C   -0.70041688124877      0.09501323097413      0.36893838611539
  C   0.84181398545361      0.23893543353747      0.57424192893971
  Cl  -1.31081229053776     -0.11611461911813      2.05525614543025
  H   1.02746068823567      1.04994025388130      1.28057157049310
  N   -1.30610348457216      1.25954701124601     -0.18694976709282
  H   -1.21177542809567      1.29158576836709     -1.19344888768817
  H   -0.97234672169893      2.12154199955802      0.22473274177681
  C   -1.07535268915583     -1.12873415543402     -0.44240930434415
  H   -0.69302042427118     -2.03867152484160      0.01827410078008
  H   -0.66888459294199     -1.05450605339599     -1.45368349607011
  H   -2.16282024927657     -1.18291539473868     -0.49337285796329
  N   1.45214453178582      0.69087085490974     -0.72776525906361
  O   1.60087862339568      1.90354932172429     -0.85335847660938
  O   1.69068137967980     -0.16641211309799     -1.57249224652818
  C   1.48860023018825     -0.98633032424080      1.01751674544741
  N   1.99995332306005     -1.97729968933084      1.38594867637696
