16
Coordinates from ORCA-job run
  C   -0.63089724658519      0.00384684916281      0.26613513265430
  C   0.86226506970930      0.28175919620410     -0.09246655748219
  Cl  -0.66017162726314     -0.69035540159595      1.91503665838880
  H   0.88803938506243      0.63854909369299     -1.12615738632891
  N   -1.39440101034459      1.21975436741650      0.29327077424358
  H   -1.48841823815108      1.61732004745179     -0.63356278194514
  H   -1.01310899241705      1.90458894097740      0.93517494039862
  C   -1.27129930321714     -0.97085940597049     -0.70408692738360
  H   -1.20622762135748     -0.58307812738824     -1.72500692929738
  H   -2.31989408796336     -1.07339462266496     -0.42651071316757
  H   -0.79182629438334     -1.94669953057176     -0.67676245843842
  N   1.71085047659678     -0.96614302242019     -0.09039752539688
  O   1.63049913792264     -1.65039453334414     -1.10757403544889
  O   2.37869439534714     -1.20805133103121      0.90695047267196
  C   1.44384701040674      1.28328045619405      0.79045200169315
  N   1.86104894663736      2.14187702388730      1.47450533483857
