16
Coordinates from ORCA-job run
  C   -0.62782162511424      0.10154285260806      0.08817292270373
  C   0.87395214041972     -0.04078408011800      0.39561045213993
  Cl  -1.25689559875855      1.22983964843125      1.41680194878018
  H   0.99856497789916     -0.47347398461214      1.38921033036046
  N   -0.84751212161226      0.57347574033253     -1.21839819457631
  H   -0.39532327155831      1.45809560763546     -1.40618934682521
  H   -1.83312578613664      0.62017924222082     -1.43897269459048
  C   -1.31305454774104     -1.23823866940312      0.29431655017763
  H   -0.93792599537129     -1.95519998408405     -0.43893386682385
  H   -1.14901145629545     -1.61430059310374      1.30439725566930
  H   -2.38863713817651     -1.11882972503361      0.14939355585637
  N   1.57718377926538      1.29727507859897      0.47173153836659
  O   1.50110906760179      2.02240666535917     -0.51498382889098
  O   2.16960934309047      1.54064016376156      1.51439261428542
  C   1.54335060719211     -0.85719206278781     -0.61135406230001
  N   2.08553762529565     -1.54543589980537     -1.39319517433279
