16
Coordinates from ORCA-job run
  C   -0.61657145602696      0.16641908293489      0.38361274268181
  C   0.91768433181067      0.12153589711909      0.53917952517680
  Cl  -1.21623535051030     -0.02724682332054      2.06771012705288
  H   1.19837491310305      0.82754670131787      1.32169475365450
  N   -0.94538773640402      1.51406248825184     -0.04232496773677
  H   -0.92801621723137      1.55387005067774     -1.05558591714743
  H   -1.87706335317469      1.75468354933779      0.27247824472644
  C   -1.20754139979845     -0.96043283539698     -0.44764263930719
  H   -0.84596898619167     -0.89077347190656     -1.47368309378232
  H   -2.29478805594783     -0.86358105478567     -0.44452469761092
  H   -0.94684979812156     -1.93848416219133     -0.04054592675126
  N   1.64199882468159      0.62761714597823     -0.69694426885314
  O   1.08428797751797      0.51686071772344     -1.78384130541728
  O   2.75471546864420      1.09372323743057     -0.49503758784896
  C   1.43880687269254     -1.20803929741211      0.83527211417136
  N   1.84255396495685     -2.28776122575828      1.06018289699149
