16
Coordinates from ORCA-job run
  C   -0.63165013297526      0.20009553120231      0.18247656494373
  C   0.86498597500769     -0.02081765488292      0.50667688969748
  Cl  -1.33196552327819      1.18697067700579      1.51252126856919
  H   0.96300214997516     -0.35038972684307      1.54251664363998
  N   -0.73911170551922      0.96784917316373     -1.02632280392574
  H   -0.24242737833652      0.52307750471880     -1.79046489354748
  H   -1.71165858563048      1.08799918518041     -1.28144077811713
  C   -1.35458122597046     -1.14344617647488      0.19233270740779
  H   -1.20528957298333     -1.67806231070570      1.13327743104676
  H   -2.42481901970008     -0.96884179500880      0.06674606873425
  H   -1.00211627841284     -1.76392570723029     -0.63480711859465
  N   1.64140564541886      1.27334209666635      0.40151454791801
  O   2.07927115522643      1.56899248800195     -0.70346061113515
  O   1.74991447345464      1.91586285673610      1.43835429145527
  C   1.45577769045628     -0.99413839600226     -0.40540362123508
  N   1.88826233326731     -1.80656774552754     -1.13551658685723
