16
Coordinates from ORCA-job run
  C   -0.58461734240269      0.06399459583693      0.16532632590622
  C   0.92523047249224      0.26908717901229     -0.09917919605632
  Cl  -0.74823928561088     -0.66670180007744      1.83425502738292
  H   1.02717976497437      0.59861655643151     -1.13590806975259
  N   -1.17884589621925      1.35223948884237      0.05697024722763
  H   -2.18885896997669      1.28316603353380      0.06390702457048
  H   -0.88975635196781      1.97104428285301      0.80625733372276
  C   -1.22823465829937     -0.89069004432377     -0.82281320591310
  H   -0.80940673240523     -1.89111411606977     -0.75018030242165
  H   -1.09033176119119     -0.51322232582552     -1.83800800564968
  H   -2.29688097009529     -0.95041322403206     -0.60572612792795
  N   1.70457766415812     -1.01934503999387     -0.00248796882511
  O   1.62074502163414     -1.74894809991342     -0.98670646391583
  O   2.33758658579667     -1.23854488267846      1.02196568774430
  C   1.49554237100756      1.26400770485456      0.79947550378692
  N   1.90531008810529      2.11682369154986      1.49485219012101
