16
Coordinates from ORCA-job run
  C   -0.70745818236259      0.09101005650317      0.35547188188863
  C   0.83050782268041      0.23466437961273      0.59251426106897
  Cl  -1.35066774710274     -0.13721224367561      2.02758184858854
  H   1.00079750557761      1.03994356865673      1.30915668949037
  N   -1.30326809285140      1.25964676110048     -0.20115405854405
  H   -0.98131660133552      2.11853436943967      0.22548336677220
  H   -1.19257988647470      1.30125119380604     -1.20557663947018
  C   -1.06441133550842     -1.12551746647946     -0.47480301654983
  H   -2.15054959743281     -1.18034993964691     -0.54833061503689
  H   -0.63716382587845     -1.04132436433621     -1.47672897339550
  H   -0.69025649294286     -2.03930042486740     -0.01502483529118
  N   1.46552486815214      0.69838273324086     -0.69305084104426
  O   1.61377628027877      1.91256297351131     -0.80554380248844
  O   1.72368994269703     -0.15125159767702     -1.53978510930296
  C   1.46917838581032     -0.99365687278097      1.03881267952888
  N   1.97319695669322     -1.98738312640741      1.40997716378569
