16
Coordinates from ORCA-job run
  C   -0.58019754439188     -0.06834113863904      0.17886073431041
  C   0.87601094770469      0.41297117624163     -0.02005955337645
  Cl  -0.57196122790380     -1.26179975255538      1.56551995208390
  H   0.88729638558393      1.03672668844107     -0.91705821816255
  N   -1.34476911790734      1.10026865628340      0.45015782469043
  H   -1.10742703044472      1.51386824003191      1.34488615976981
  H   -2.33533385102191      0.89143592494932      0.44090452668089
  C   -1.13342109619875     -0.78093477694002     -1.04113661095577
  H   -1.08960160841270     -0.11429051839995     -1.90478543771903
  H   -2.17468222402148     -1.04754150576783     -0.84771989131452
  H   -0.58357116401164     -1.69248676758579     -1.26110354474719
  N   1.82274587924975     -0.72690523098735     -0.30393124100757
  O   1.79366549682463     -1.14764166674765     -1.45732696264304
  O   2.52392791233768     -1.13969232738131      0.61050952656940
  C   1.34798441537499      1.17873850154239      1.12596401840267
  N   1.67033382723856      1.84662449751462      2.03631871741859
