16
Coordinates from ORCA-job run
  C   -0.63210992187689     -0.15544264616015      0.21358333700051
  C   0.83650662715940      0.35392401898716      0.07612709544141
  Cl  -0.62165778743754     -1.49036655596847      1.40476023726448
  H   0.84338173449889      1.12075813766417     -0.70377830822723
  N   -1.49381597354034      0.87452903833355      0.72273303311576
  H   -1.61270825699392      1.62179803038333      0.04943317501257
  H   -1.17419166992752      1.24604293107225      1.60947529392884
  C   -1.17886242003933     -0.66115435482308     -1.10799562619742
  H   -0.62387730395551     -1.52146189577918     -1.47534237462826
  H   -1.12934453666513      0.12893108989361     -1.86330489487044
  H   -2.22014250691903     -0.94143386234615     -0.95074656710373
  N   1.78591208815499     -0.71073625911306     -0.41698621817592
  O   1.77307029933990     -0.89610381940856     -1.63129743482669
  O   2.46246817780178     -1.30840595662757      0.41028038534066
  C   1.32342235697249      0.91618270895239      1.32809933402919
  N   1.65894909342776      1.42293939493977      2.33295953289626
