16
Coordinates from ORCA-job run
  C   -0.64207711537563      0.06149613337757      0.22945398724465
  C   0.89583467427819      0.17093783944859     -0.01292736602057
  Cl  -0.87474944953902     -0.78679491157673      1.78748205555113
  H   1.03899074574168      0.62451812200208     -0.99785703449778
  N   -1.24350885919828      1.36027364732889      0.34799263714494
  H   -1.22089643497799      1.85862148375868     -0.53360749347861
  H   -0.82098713912027      1.91907966778772      1.07990220687196
  C   -1.33296482138446     -0.71369233100158     -0.87645207297924
  H   -0.98724387014685     -1.74362673179170     -0.92914009555097
  H   -1.14572684332638     -0.23727438184926     -1.84352615735736
  H   -2.40324176091900     -0.70009606044292     -0.67212383552700
  N   1.57551850192604     -1.17380429783638     -0.10138580697956
  O   1.47913291308000     -1.73364862634362     -1.19048648390274
  O   2.13607033138284     -1.60368277405786      0.89885026184041
  C   1.53680346052731      0.98909778970576      1.00726228296254
  N   2.00804566705181      1.70859543149075      1.80656291467818
