16
Coordinates from ORCA-job run
  C   -0.58283876521526      0.12399048794501      0.13398118403640
  C   0.95660917927769      0.15342911559392     -0.01117293672490
  Cl  -0.96284821610632     -0.73973617122465      1.70142721237628
  H   1.17756282881398      0.56709473309322     -0.99806615225822
  N   -1.00224494853236      1.48334046439335      0.12758008747724
  H   -2.01045009168387      1.54783911174148      0.06268852663099
  H   -0.69643553504797      1.98235771196603      0.95545136829348
  C   -1.26304719566369     -0.63603158849651     -0.98925753999232
  H   -0.97895436266622     -1.68520857828085     -0.99762617196023
  H   -2.34422968300112     -0.57529782099536     -0.84767785223185
  H   -1.00205792998441     -0.18260812435363     -1.94760211281120
  N   1.55949559148300     -1.22979844381892     -0.00450909816480
  O   2.08047769107128     -1.63024392388527      1.02815198500181
  O   1.46024872127956     -1.84167324006574     -1.06464767174291
  C   1.57591784582781      0.97130936463301      1.02329043557308
  N   2.03379487014790      1.69023690175490      1.83098873649716
