16
Coordinates from ORCA-job run
  C   -0.65229021732743      0.11716774651752      0.26866708985842
  C   0.85746070287685      0.21487864433683      0.58089382050622
  Cl  -1.40093095959812     -0.11511486322055      1.94233290078980
  H   1.02419520117532      0.99951507579410      1.32130462244407
  N   -1.04714087609783      1.31650275275580     -0.36413598676682
  H   -2.01650558313407      1.28685403739008     -0.65146654487931
  H   -0.88511110635175      2.13913902553386      0.20388861859154
  C   -1.03707899961545     -1.08836737138348     -0.56354626105456
  H   -0.72688322130628     -2.01397302262237     -0.08051054375131
  H   -0.57216073808822     -1.01692006262621     -1.54693976864808
  H   -2.12298517102507     -1.11075423828819     -0.67702238503785
  N   1.58720485458118      0.67357380946822     -0.66225564280890
  O   1.91601317658775      1.85344677371960     -0.68195813555462
  O   1.76115109028493     -0.15688536221403     -1.54568885396325
  C   1.42567911879555     -1.04373879613621      1.04087323327557
  N   1.88838272824264     -2.05532414902497      1.41656383699907
