16
Coordinates from ORCA-job run
  C   -0.62883971939792      0.19595185567728      0.19352657280484
  C   0.87617119003528     -0.00839856351528      0.49083222388070
  Cl  -1.31414001152874      1.18521248136868      1.52825782026096
  H   0.99674457748941     -0.32583851455226      1.52806694993254
  N   -0.76541197688615      0.95464404542063     -1.01890878889945
  H   -1.74439818880438      1.07459733287239     -1.24916968175292
  H   -0.29293264940029      0.49748088172950     -1.79160643492978
  C   -1.33909725848175     -1.15403984180813      0.22400621497030
  H   -0.99660386325896     -1.77559202915170     -0.60644047059552
  H   -1.16728858825423     -1.68328099056776      1.16419112538845
  H   -2.41299509276982     -0.98904806815077      0.11810598852015
  N   1.63700773041926      1.29181968202186      0.35717969580422
  O   1.75057027681130      1.95105581678090      1.38317577610161
  O   2.05564750819632      1.57784079295328     -0.75770447240418
  C   1.45790930704057     -0.98655143485878     -0.42170592191256
  N   1.88665675879010     -1.80785344621985     -1.14380659716936
