16
Coordinates from ORCA-job run
  C   -0.69606224287528      0.14539135342160      0.08077193258992
  C   0.79930032844208      0.01395151153627      0.51470915556423
  Cl  -1.41894390824864      1.29586726134657      1.26018393803914
  H   0.86337885970308     -0.38831496412442      1.52696041913791
  N   -0.92827901687870      0.63923401608235     -1.23644859812355
  H   -0.39365004816953      1.47636601529513     -1.43044707912064
  H   -0.71612369612511     -0.06761200560402     -1.93005568147830
  C   -1.36448725901601     -1.20857881352942      0.24735998644590
  H   -2.42278914729392     -1.09832333920422      0.01098016855490
  H   -0.92340657606072     -1.93767942460708     -0.43831845608446
  H   -1.26473824090958     -1.57504292499423      1.26957140228768
  N   1.48041552493336      1.35736577578968      0.57895421161256
  O   1.56587057454847      1.98336848538350     -0.47403109119947
  O   1.87575699838918      1.71884611122728      1.67991497667491
  C   1.51234110192824     -0.82696229752046     -0.43718371892297
  N   2.03041674763308     -1.52887676049852     -1.22392156597773
