16
Coordinates from ORCA-job run
  C   -0.70589213100105      0.09420038926335      0.35852390305735
  C   0.83441323551738      0.20139412520938      0.60135770910369
  Cl  -1.35655767408426     -0.16573274600437      2.02276225319973
  H   1.01911444466583      0.97810884642577      1.34537046725653
  N   -1.27799847356573      1.28860539200391     -0.16810205268351
  H   -0.93764375370112      2.12975351396799      0.27945882897224
  H   -1.16418769242106      1.35300453632348     -1.17100158957570
  C   -1.08489228690537     -1.09273661736322     -0.50425448591728
  H   -2.17152999723464     -1.12122540580899     -0.58495631926204
  H   -0.64975348545508     -0.99320250205109     -1.50128058353300
  H   -0.73427033108098     -2.02587970033761     -0.06535227727333
  N   1.47920123056319      0.69723982403875     -0.66751645897573
  O   1.71739009683012     -0.12675144547663     -1.54475779911186
  O   1.65282247129325      1.91119957355543     -0.73702009782047
  C   1.44909567662327     -1.05402947762427      1.00327093078700
  N   1.93168866995625     -2.07294830612186      1.33249757177639
