16
Coordinates from ORCA-job run
  C   -0.59852108998270     -0.01100205198266      0.12299652831544
  C   0.93061736836874      0.21334064574845      0.16203223311764
  Cl  -0.93593355408962     -1.59540985171724      0.97346715226535
  H   1.14012662717025      1.10116906523807     -0.43935631957978
  N   -1.17573173038145      1.11101804653731      0.78065005824153
  H   -2.18137247834697      1.11658402279057      0.66391121723220
  H   -0.96301878261428      1.12451570512393      1.77178046347293
  C   -1.13860886532678     -0.12075067005297     -1.29053199147514
  H   -2.22419133324674     -0.22945837388917     -1.24210688657008
  H   -0.89524365218304      0.78738610473427     -1.84562672962666
  H   -0.73277586899092     -0.98301891302948     -1.81332878926452
  N   1.69262103789641     -0.91192998870881     -0.49538923887882
  O   1.71359960395447     -0.87303212720656     -1.72257544525646
  O   2.21331352847018     -1.75591808754050      0.22182288013363
  C   1.40901961157573      0.40746762209431      1.52439711997002
  N   1.74709957772674      0.61903885186047      2.62885774790272
