16
Coordinates from ORCA-job run
  C   -0.63408818216719      0.13441951429151      0.33922719830697
  C   0.89113571164029      0.21458693420828      0.60762225895942
  Cl  -1.35831677841001      0.01243311923245      1.97833981159949
  H   1.06284398079363      0.98150336314679      1.36293729848861
  N   -1.01005000513999      1.41120810253118     -0.23981078284296
  H   -1.12172176419914      1.31394494213581     -1.24303915844496
  H   -1.88322468971997      1.74066038349646      0.14803492381568
  C   -1.07018925664625     -1.07821019463424     -0.46319416709730
  H   -2.15734472103044     -1.05784352269231     -0.55701344270517
  H   -0.77679024875886     -2.00967308998058      0.02195840734118
  H   -0.61998092762319     -1.04476149178393     -1.45637548560604
  N   1.59241642217912      0.72376293752746     -0.63023488102731
  O   2.16454907413949      1.80109906151735     -0.52934816966623
  O   1.51526329857418      0.02387708956370     -1.63673765536453
  C   1.47748194488785     -1.06223512865341      0.99338559281139
  N   1.93001614148049     -2.10077201990651      1.30324825143177
