16
Coordinates from ORCA-job run
  C   -0.63195438218247      0.11376551148286      0.02708337128840
  C   0.83741350047902     -0.01374175904752      0.46752722766589
  Cl  -1.34912598348415      1.35901901531514      1.19722267503709
  H   0.87453397984751     -0.35770866622608      1.50209264754761
  N   -0.73785876827516      0.47196389191831     -1.32902951102797
  H   -1.70176431653017      0.50800322982800     -1.63229209727130
  H   -0.25880151204562      1.33362267555326     -1.55383000511320
  C   -1.35215272507256     -1.19721452303374      0.29086690044462
  H   -1.27713469537354     -1.48485332496582      1.33977788961096
  H   -2.41027193847112     -1.08248156802146      0.04716381593937
  H   -0.92933497892649     -1.97859852326640     -0.34406979803327
  N   1.55340158482210      1.31978623456284      0.48373414707114
  O   2.06340897029457      1.64869018950880      1.54631786753869
  O   1.56878358579402      1.95580661789190     -0.56526414087464
  C   1.57382720313210     -0.92194881650704     -0.40507458565375
  N   2.17703047599197     -1.67611018499307     -1.07322640416963
