16
Coordinates from ORCA-job run
  C   -0.63231081776318      0.10112215885428      0.03253412607606
  C   0.84032034073409     -0.01561715073397      0.46625834570393
  Cl  -1.37024095720426      1.28529856506400      1.25284965498421
  H   0.88528341927961     -0.39985847391587      1.48624706363703
  N   -0.74808693994177      0.51091025185635     -1.30765399339549
  H   -0.28563848182077      1.38941155084427     -1.49938919762734
  H   -1.71277353773770      0.53962130382573     -1.60904961701630
  C   -1.32748045633046     -1.23239666214907      0.24574668818927
  H   -1.24426016686729     -1.55970335507301      1.28232263593932
  H   -2.38822330834049     -1.12746579446630      0.00917409270528
  H   -0.89208535214741     -1.98008829618035     -0.42047187547440
  N   1.53051366248844      1.32967198140145      0.53450541029569
  O   2.03399286399981      1.62785624779719      1.60909335903440
  O   1.53329735036091      2.00530895005307     -0.48958373206139
  C   1.59128278941420     -0.87484123711797     -0.44277238321407
  N   2.18540959187626     -1.59823004005981     -1.15181057777621
