16
Coordinates from ORCA-job run
  C   -0.63049508576257      0.11453856677698      0.02433666339730
  C   0.83827725731715     -0.00608809999250      0.46992265722799
  Cl  -1.34979800578571      1.37544236060862      1.17739332198389
  H   0.87271388781900     -0.33625094376859      1.50907511056834
  N   -0.73454055277973      0.45472308144721     -1.33612875860200
  H   -1.69756131167185      0.48464116260758     -1.64268550145771
  H   -0.25549688357951      1.31312755260675     -1.57270299510304
  C   -1.35126688887739     -1.19258549812696      0.30480319079137
  H   -0.92716686307007     -1.98305150758836     -0.31788173905805
  H   -1.27860295145525     -1.46527239371409      1.35786116974029
  H   -2.40880265470453     -1.08084450900245      0.05724041997134
  N   1.55352225508461      1.32740396356311      0.46935541952141
  O   2.05951404105251      1.67266378211819      1.52860990773125
  O   1.57322909876832      1.94743393471612     -0.58915312925439
  C   1.57604914010107     -0.92673467377572     -0.38849497305496
  N   2.16142551754395     -1.69914677847588     -1.05155076440304
