15

C	-0.555043	0.05011	-1.417429
C	0.0	0.0	0.0
Br	0.291272	-1.486352	-2.456154
H	1.092789	0.0	0.0
N	-1.976665	-0.030116	-1.443323
H	-2.277713	-0.894234	-1.004408
H	-2.324517	-0.001108	-2.396275
C	-0.129474	1.268407	-2.111859
N	0.162304	2.198168	-2.769036
C	-0.499235	-1.194795	0.673647
N	-0.929559	-2.127539	1.249235
N	-0.331093	1.242738	0.673053
H	-1.185799	1.190269	1.209219
H	0.456371	1.48221	1.268644
H	2.609991	0.0	0.0
