15

C	-0.269615	-0.054088	-1.514558
C	0.0	0.0	0.0
Br	0.129031	1.846976	-2.252872
H	1.102559	0.0	0.0
N	0.587136	-1.027118	-2.035793
H	1.533759	-0.883924	-1.654064
H	0.584387	-1.073997	-3.045896
C	-1.668126	-0.245966	-1.891113
N	-2.797217	-0.451811	-2.150465
C	-0.451599	-1.248289	0.595987
N	-0.773127	-2.241643	1.138389
N	-0.587991	1.155319	0.667373
H	-0.905668	0.882555	1.588407
H	0.15824	1.833621	0.788418
H	2.69563	0.0	0.0
