15

C	-0.265476	-0.054353	-1.516011
C	0.0	0.0	0.0
Br	0.116255	1.850934	-2.250858
H	1.102527	0.0	0.0
N	0.600967	-1.01945	-2.032809
H	0.602522	-1.064593	-3.042688
H	1.544418	-0.87073	-1.645655
C	-1.658559	-0.259831	-1.904684
N	-2.772884	-0.460384	-2.22145
C	-0.459078	-1.245695	0.59511
N	-0.814884	-2.225644	1.14025
N	-0.589365	1.154765	0.667681
H	0.151657	1.842966	0.763537
H	-0.874368	0.887831	1.601776
H	2.701739	0.0	0.0
