12

C	-0.237957	-0.045477	-1.361446
C	0.005373	-0.180128	0.129357
Cl	-1.842338	0.92622	-1.612943
H	1.085105	-0.350839	0.164154
H	0.604555	0.597842	-1.673914
H	-0.152089	0.785888	0.607756
N	-0.270955	-1.29149	-2.018599
H	-0.255579	-1.173444	-3.021487
H	-1.076004	-1.845653	-1.751677
C	-0.807797	-1.21173	0.760977
N	-1.461865	-2.062099	1.240365
F	2.155964	0.941233	-0.98342
