16

C	0.0	0.0	0.0
C	-0.518445	0.368677	-1.389146
Cl	1.803578	0.0	0.0
H	-0.086404	-0.354944	-2.089318
H	-1.602676	0.20933	-1.350117
C	-0.369174	1.019841	0.990322
N	-0.584629	1.850522	1.792197
C	-0.500716	-1.36812	0.431527
H	-1.594082	-1.322672	0.454197
H	-0.111558	-1.633158	1.41598
H	-0.172334	-2.115221	-0.295471
C	-0.220171	1.796083	-1.823378
H	-0.725379	2.506063	-1.165783
H	0.85128	2.011157	-1.816439
H	-0.595941	1.959343	-2.837371
Br	-3.944313	0.0	0.0
