16

C	0.0	0.0	0.0
C	-0.516916	0.434727	-1.370708
Cl	1.803872	0.0	0.0
H	-1.598379	0.258372	-1.346854
H	-0.069372	-0.243234	-2.106072
C	-0.368177	0.97076	1.039052
N	-0.580019	1.762094	1.880349
C	-0.501194	-1.38691	0.366108
H	-0.175853	-2.099173	-0.396855
H	-1.594423	-1.341278	0.390677
H	-0.111619	-1.699648	1.336077
C	-0.237642	1.888273	-1.723852
H	0.828746	2.123755	-1.677379
H	-0.59077	2.097111	-2.736165
H	-0.774544	2.550785	-1.043488
Br	-3.948848	0.0	0.0
