14

C	0.0	0.0	0.0
C	-0.302473	-0.004241	-1.51387
F	1.38459	0.0	0.0
H	0.308032	-0.822784	-1.905698
H	-1.35761	-0.223592	-1.635223
C	-0.504439	1.155458	0.764545
N	-0.652471	2.068795	1.506863
C	-0.516453	-1.212399	0.68541
N	-0.696453	-2.208535	1.298919
C	0.087007	1.300198	-2.168942
H	-0.098754	1.25237	-3.253956
H	1.148875	1.533946	-2.027039
H	-0.507766	2.129974	-1.771877
H	-2.433202	0.0	0.0
