14

C	0.0	0.0	0.0
C	-0.17064	-0.196983	-1.55549
F	1.383246	0.0	0.0
H	0.359695	-1.137927	-1.741804
H	0.461299	0.596364	-1.970384
C	-0.535349	1.292322	0.441659
N	-0.506158	2.428694	0.779202
C	-0.63653	-1.09109	0.748456
N	-0.655501	-2.095904	1.385102
C	-1.498968	-0.210057	-2.287212
H	-1.28781	-0.331101	-3.361941
H	-2.137035	-1.025014	-1.953043
H	-2.049606	0.715825	-2.132685
H	-2.085184	0.0	0.0
