14

C	0.0	0.0	0.0
C	-0.287082	0.049708	-1.526999
F	1.384353	0.0	0.0
H	0.334608	0.872989	-1.899989
H	-1.333818	0.28375	-1.680319
C	-0.545492	1.192794	0.672579
N	-0.506421	2.247145	1.212672
C	-0.537856	-1.208546	0.640213
N	-0.519991	-2.264192	1.178854
C	0.0906	-1.257292	-2.210125
H	1.122354	-1.540447	-1.988266
H	-0.011302	-1.160742	-3.295514
H	-0.566302	-2.064352	-1.875992
H	-2.243596	0.0	0.0
