14

C	0.0	0.0	0.0
C	-0.264315	0.007721	-1.537703
F	1.384599	0.0	0.0
H	-1.283729	0.292769	-1.753018
H	0.402165	0.775289	-1.945145
C	-0.437129	1.280055	0.609087
N	-0.550335	2.323959	1.14129
C	-0.80276	-1.037954	0.696643
N	-0.796911	-1.971959	1.445718
C	0.045467	-1.34457	-2.161266
H	-0.599372	-2.121077	-1.728988
H	1.090677	-1.63716	-1.99914
H	-0.13743	-1.314044	-3.249774
H	-2.15528	0.0	0.0
