14

C	0.0	0.0	0.0
C	-0.280869	0.099825	-1.526197
F	1.391041	0.0	0.0
H	-1.334626	0.304567	-1.673682
H	0.310927	0.955013	-1.872122
C	-0.477801	1.203496	0.708343
N	-0.488663	2.234217	1.285766
C	-0.615964	-1.191652	0.599584
N	-0.564499	-2.26872	1.10223
C	0.145147	-1.171944	-2.247606
H	-0.461048	-2.01892	-1.915237
H	1.195408	-1.407503	-2.057692
H	0.008723	-1.057452	-3.328983
H	-2.239577	0.0	0.0
