17

C	0.0	0.0	0.0
C	-0.306568	0.227183	-1.509056
F	1.367678	0.0	0.0
H	0.293255	1.142645	-1.677858
N	-0.523704	0.99576	0.85125
H	-0.7599	1.808239	0.292825
H	-1.380516	0.672242	1.291271
N	-0.38137	-1.368516	0.57012
O	-0.336037	-2.330553	-0.191913
O	-0.62088	-1.433974	1.770029
N	-1.687424	0.504135	-1.756662
H	-2.36737	0.187163	-1.064051
H	-1.960187	0.148229	-2.662531
N	0.242389	-0.73735	-2.456191
H	1.249907	-0.776812	-2.341024
H	-0.125194	-1.651895	-2.228516
Br	-4.424418	0.0	0.0
