17

C	0.0	0.0	0.0
C	-0.394205	0.061147	-1.493898
F	1.403181	0.0	0.0
H	0.373978	-0.537737	-1.999332
N	-0.554978	0.972909	0.80564
H	-0.933551	0.591809	1.66183
H	-1.253252	1.498102	0.293193
N	-0.268288	-1.418112	0.537685
O	0.067058	-2.346749	-0.19259
O	-0.732293	-1.534943	1.667034
N	-0.373345	1.473585	-1.854655
H	0.572969	1.83337	-1.832283
H	-0.74248	1.538298	-2.794752
N	-1.674378	-0.455189	-1.874049
H	-2.450978	-0.076791	-1.324922
H	-1.69921	-1.460732	-1.77108
Br	-4.423367	0.0	0.0
