17

C	0.0	0.0	0.0
C	-0.52675	0.182025	-1.460543
F	1.397603	0.0	0.0
H	0.384115	0.179756	-2.068919
N	-0.550423	0.884982	0.895962
H	-0.579678	1.825028	0.536355
H	-0.261382	0.775114	1.852991
N	-0.222702	-1.431769	0.524725
O	-0.688305	-1.579053	1.647286
O	0.192059	-2.336538	-0.195571
N	-1.139591	1.503396	-1.52677
H	-2.048575	1.409726	-1.064383
H	-1.353336	1.654489	-2.505814
N	-1.426644	-0.816912	-1.993829
H	-1.016602	-1.738638	-1.940532
H	-2.303396	-0.801986	-1.468374
Br	-4.191763	0.0	0.0
