15
Coordinates from ORCA-job run
  C   -0.51443075042836      0.03617796538633      0.17362371634409
  C   0.93131404673454     -0.39707716424927      0.39209029635335
  Br  -1.30297010927973      0.56527992555736      1.86144419953728
  H   1.28494739545337     -0.83688193821700     -0.54784909901795
  H   0.90237851882334     -1.19350683817545      1.13962077786532
  N   -0.53073703692412      1.23362083384737     -0.77393263008197
  O   0.40805274900991      1.28889700489745     -1.56789847259713
  O   -1.49630082309153      1.98168781901826     -0.75859311571369
  C   -1.36760304575377     -1.03241405613498     -0.48425377928377
  H   -1.37617834168031     -1.92917474722661      0.13708754644138
  H   -2.39204587795390     -0.68064387717779     -0.60896330286787
  H   -0.94728639242838     -1.27846224965179     -1.46378196373531
  N   1.74730497343154      0.70386831793525      0.86515051800131
  H   2.22609494785191      1.14673595662119      0.09441245923580
  H   2.42745974623548      0.39189304756967      1.54184284951916
