15
Coordinates from ORCA-job run
  C   -0.50146869852897      0.20849240288701      0.04105524140928
  C   1.00039127103782      0.32208939741394      0.29813347603557
  Br  -1.45625354623865      0.34085931907194      1.74309663036342
  H   1.48025109739210      0.35528941475253     -0.68691319937109
  H   1.19942606585347      1.27481408736564      0.79580504445148
  N   -0.93494275327848      1.43311019751266     -0.75872546446187
  O   -1.78019989144687      1.26843281914394     -1.63238757926386
  O   -0.40792926030296      2.50261493805869     -0.46742692114346
  C   -0.90133908971697     -1.05670430134623     -0.67306444542500
  H   -1.97879388127079     -1.10989809729027     -0.81115847368826
  H   -0.54815732736621     -1.90299100595852     -0.08740443986914
  H   -0.42043971249218     -1.08047187699972     -1.65485628899874
  N   1.47560174593465     -0.85678984756345      1.00893188823899
  H   2.47484096201746     -0.94909491030379      0.88252391740017
  H   1.30001301840658     -0.75175253674436      2.00039061432253
