15
Coordinates from ORCA-job run
  C   -0.51467904196904      0.19882831916331      0.08135371727153
  C   1.00204308053249      0.31849910796236      0.24629049402625
  Br  -1.36130768297134      0.27692261115975      1.83797855080714
  H   1.41678035032176      0.36498044413080     -0.76773497276745
  H   1.21587847797671      1.27156722261181      0.74165042573686
  N   -0.95686186708221      1.45031448637549     -0.67201628232850
  O   -1.51430653491655      1.28747284346527     -1.75424349727275
  O   -0.67414265452203      2.53134334591376     -0.16764404340535
  C   -0.95283704703019     -1.05046352939842     -0.63801704515546
  H   -0.60382352397410     -1.90896065655996     -0.06760152063819
  H   -0.50316133468232     -1.07643573283267     -1.63250015252911
  H   -2.03621650934637     -1.08394057599928     -0.74279244392506
  N   1.53237882553815     -0.85897713446886      0.91278655232436
  H   2.51745715283709     -0.95731762052554      0.70721941770752
  H   1.43279830928795     -0.76283313099782      1.91527080014820
