15
Coordinates from ORCA-job run
  C   -0.46512755661136      0.24567521805226      0.10042195732694
  C   1.05880061867441      0.26672928024597      0.16531596144802
  Br  -1.17900002127878      0.45955434115174      1.90910442733542
  H   1.41923513123232      0.24861486749653     -0.86791975068219
  H   1.38325303402131      1.21299194196549      0.60765906651946
  N   -0.96175827491412      1.46205804130610     -0.67425785065466
  O   -2.14277993154069      1.46847772823143     -0.99922444008734
  O   -0.14586378469982      2.34664927155025     -0.92296203436929
  C   -1.03186384697573     -1.00006507987054     -0.53571262602866
  H   -0.69011373381743     -1.05145434232650     -1.57458296687910
  H   -0.65272911756513     -1.86715191899190      0.00087375306696
  H   -2.11938723532640     -0.98332457403234     -0.52253336347683
  N   1.53691035969837     -0.92853385312580      0.84890619278761
  H   2.50817500972104     -1.08494527370709      0.61394661482899
  H   1.48124934938201     -0.79627564794559      1.85096505886465
