15
Coordinates from ORCA-job run
  C   -0.46139232429289      0.26143989343859      0.07553920493671
  C   1.06054960963911      0.24942313060291      0.17996519910351
  Br  -1.21588343731639      0.58237735212643      1.85160714584066
  H   1.44609858418584      0.17097564358829     -0.84137431466597
  H   1.39688901191407      1.20863895598877      0.58367649697114
  N   -0.90720110993444      1.44961929876147     -0.77083298679419
  O   -0.06649692265872      2.30795682539915     -1.02864334838346
  O   -2.07578076544647      1.46199459408325     -1.13789085352728
  C   -1.04248697982833     -1.00098961369485     -0.51303101542700
  H   -2.12925623829909     -0.95896959558982     -0.52934393444793
  H   -0.69812989573883     -1.84836809956905      0.07596952032179
  H   -0.67619734135951     -1.11219112067032     -1.53874628618732
  N   1.49112467517536     -0.92115611126633      0.93421147541959
  H   1.41465048805476     -0.73700144731271      1.92666571932043
  H   2.46351264590553     -1.11274970588576      0.73222797751932
