15
Coordinates from ORCA-job run
  C   -0.59871857038615      0.14955843205504      0.27444688872193
  C   0.80080364687945     -0.04095821153703      0.84828551810785
  Br  -1.81528647181711      0.61879994754253      1.72563842668097
  H   1.04752156939873      0.81376423567779      1.48260276611276
  H   0.75924391752898     -0.92937207229578      1.48348883162669
  N   -0.57428209860940      1.36726310679742     -0.64551859477902
  O   0.27018565288087      2.22748909246358     -0.40822089205295
  O   -1.40872050871883      1.41623162197774     -1.54077075208629
  C   -1.12056342480967     -1.04741241525163     -0.48091988081699
  H   -1.16613106481653     -1.90149099810943      0.19708579869348
  H   -2.11302857331548     -0.85594212854890     -0.88211644513703
  H   -0.42918247284010     -1.26793851594306     -1.29514584517709
  N   1.72922132357924     -0.25158853443466     -0.25449349538302
  H   2.17515126366646      0.62098226823571     -0.50274531376556
  H   2.44478581137954     -0.91838582862933     -0.00261701074572
