15
Coordinates from ORCA-job run
  C   -0.51279122581854      0.03569703091505      0.11506270487831
  C   0.93811067960668     -0.35793071034787      0.36449325659054
  Br  -1.30803365975940      0.65333016709096      1.77548357594390
  H   0.93311531179869     -1.17508700410614      1.09914895963661
  H   1.32032112688416     -0.75142464684548     -0.58022852537495
  N   -0.48131988309864      1.17705434629825     -0.90131256389939
  O   0.02629933318738      0.85204258268161     -1.97165552367301
  O   -0.93780953941914      2.27292844403692     -0.62413196784447
  C   -1.35144984663545     -1.08762407789420     -0.46178884496373
  H   -2.37315058569699     -0.75068239764251     -0.64420638236885
  H   -0.90934124164883     -1.42099062191000     -1.40198977653114
  H   -1.38156833023055     -1.92021501571719      0.24221379144262
  N   1.72231150056941      0.80688356401386      0.72996190179465
  H   2.70290414963686      0.64361797577786      0.54841785870156
  H   1.61040221062436      1.02340036364888      1.71153153566735
