15
Coordinates from ORCA-job run
  C   -0.46652331394244      0.23118992274837      0.06925250814709
  C   1.03374661707345      0.38748392474385      0.38763121797765
  Br  -1.49306445246791      0.22773695619471      1.72808178525955
  H   1.16113540317337      1.30167281224862      0.96801750263914
  H   1.53861825208792      0.53769416851410     -0.57465402036851
  N   -0.87459940060626      1.48822573281925     -0.68923605218666
  O   -1.38381227528476      1.34253527494242     -1.79773044354598
  O   -0.61634001821402      2.56085604589123     -0.15456072864224
  C   -0.80247545364938     -1.00180213974269     -0.73253579027837
  H   -1.86075534552137     -1.03057392926365     -0.98507905782020
  H   -0.55998177139234     -1.88788102440828     -0.14603367893412
  H   -0.22383327459199     -1.00919868053309     -1.65919179955660
  N   1.66787347092150     -0.70941201266406      1.07671292645913
  H   1.64674597168074     -1.56199169888431      0.53471924684370
  H   1.23326559073350     -0.87653535260647      1.97460638400641
