15
Coordinates from ORCA-job run
  C   -0.47008264487889      0.22293088412971      0.07210309699714
  C   1.02800486272484      0.40153354861295      0.38913921544090
  Br  -1.49323324455305      0.18737194950111      1.73267495109103
  H   1.52825953731636      0.56902901010073     -0.57269991699364
  H   1.14125284453859      1.31245284713469      0.97753744573588
  N   -0.90103797502314      1.47941457992908     -0.67436318030140
  O   -1.41199412570518      1.33492518496464     -1.78216867529903
  O   -0.65850969253621      2.55152110236761     -0.13129253184951
  C   -0.78670417843222     -1.00846281018944     -0.73996706489110
  H   -1.84471814159153     -1.05262930713998     -0.99136953980418
  H   -0.52844880747239     -1.89547573391359     -0.16169794749328
  H   -0.20949827199059     -0.99801998651738     -1.66752296837479
  N   1.68176359615663     -0.69073734279452      1.06701271737185
  H   1.67394671138707     -1.53862598597693      0.51737820775223
  H   1.25199953005972     -0.87322794020867      1.96423619061791
