15
Coordinates from ORCA-job run
  C   -0.44661835240796      0.05042762480764      0.03964116018070
  C   0.94078517037068     -0.31627015553195      0.58384723985363
  Br  -1.40177592782817      1.12951938486706      1.35136499069478
  H   1.43733500426848     -0.90378935167548     -0.19377192328398
  H   0.75776301742259     -0.98593462659768      1.42939510916980
  N   -0.33476051965736      0.89343782323703     -1.22891217494053
  O   -1.37651167386422      1.29992708447953     -1.72577543049067
  O   0.79176368854917      1.05410085878209     -1.69704587325863
  C   -1.27400143250440     -1.16660437182308     -0.32087993754837
  H   -0.75545661796013     -1.73467890843769     -1.09967579732962
  H   -1.39643083794009     -1.80053034345449      0.55817662209595
  H   -2.25518039513000     -0.87033906792339     -0.68940091399151
  N   1.83477303370730      0.73188155705827      1.00915873745747
  H   2.05641827893577      1.33857817599259      0.23261419111125
  H   1.42089756403833      1.28127431621956      1.75026400027975
