18

C	-0.552325	-0.02646	-1.426858
C	0.0	0.0	0.0
Cl	-0.263728	1.55629	-2.24153
H	1.098507	0.0	0.0
C	0.19599	-1.074011	-2.240391
H	-0.018696	-2.061124	-1.822717
H	-0.131179	-1.051533	-3.284473
H	1.271577	-0.889027	-2.180027
N	-1.992794	-0.219964	-1.359469
H	-2.105646	-1.085002	-0.836628
H	-2.351973	-0.35675	-2.298744
N	-0.393677	-1.323507	0.597737
H	-0.668717	-1.135232	1.555449
H	0.468966	-1.863533	0.66
N	-0.488816	1.130891	0.737325
H	0.05858	1.242778	1.580727
H	-1.473882	1.034064	0.949543
H	2.973215	0.0	0.0
