18

C	-0.548564	-0.018533	-1.428546
C	0.0	0.0	0.0
Cl	-0.374306	1.599998	-2.207487
H	1.095206	0.0	0.0
C	0.260614	-0.994876	-2.268659
H	0.130986	-1.996947	-1.853725
H	-0.084837	-0.983115	-3.307234
H	1.320958	-0.734461	-2.218661
N	-1.979414	-0.303289	-1.369582
H	-2.337646	-0.357182	-2.316532
H	-2.03787	-1.23005	-0.957702
N	-0.358154	-1.332031	0.577147
H	-0.967306	-1.181204	1.374067
H	0.510098	-1.730064	0.931567
N	-0.480843	1.134698	0.747557
H	-1.472858	1.045959	0.933824
H	0.039705	1.195225	1.613833
H	2.966131	0.0	0.0
