18

C	-0.303159	-0.003863	-1.492043
C	0.0	0.0	0.0
Cl	-2.106712	-0.210115	-1.772758
H	1.104143	0.0	0.0
C	0.132042	1.286421	-2.154137
H	-0.480507	2.126331	-1.823432
H	0.040292	1.182918	-3.236467
H	1.18161	1.461625	-1.88963
N	0.363949	-1.117465	-2.130539
H	1.360833	-0.946586	-1.967656
H	0.143021	-1.926486	-1.553704
N	-0.435593	-1.236632	0.611415
H	-1.379387	-1.119512	0.963766
H	0.190229	-1.457552	1.377001
N	-0.547202	1.172274	0.702345
H	-0.057192	1.990937	0.348893
H	-0.221006	1.081331	1.662358
H	2.940447	0.0	0.0
