18

C	-0.390227	-0.040886	-1.485597
C	0.0	0.0	0.0
Cl	-0.238465	-1.88003	-2.085559
H	1.093675	0.0	0.0
C	-1.831409	0.304166	-1.790046
H	-2.032294	0.2279	-2.862011
H	-2.499102	-0.373567	-1.256147
H	-1.996167	1.33125	-1.455594
N	0.53264	0.759452	-2.16381
H	0.460329	0.682701	-3.168416
H	1.484264	0.584526	-1.83371
N	-0.594872	-1.072257	0.800814
H	-0.044852	-1.089132	1.657656
H	-0.398702	-1.955038	0.341266
N	-0.419264	1.290651	0.541331
H	-1.154067	1.123101	1.219272
H	0.379741	1.709385	1.003422
H	2.96647	0.0	0.0
