18

C	-0.65821	-0.017614	-1.380254
C	0.0	0.0	0.0
Cl	0.200301	-1.198996	-2.423713
H	1.097285	0.0	0.0
C	-2.114864	-0.458046	-1.303603
H	-2.571661	-0.414223	-2.296531
H	-2.187958	-1.472917	-0.91372
H	-2.643105	0.226142	-0.633133
N	-0.499661	1.296729	-2.004918
H	-0.708822	1.214758	-2.994692
H	-1.199482	1.903776	-1.588086
N	-0.397475	-1.164997	0.771701
H	-1.182219	-0.934432	1.376228
H	0.399098	-1.436429	1.341058
N	-0.452449	1.257126	0.660786
H	0.11264	1.986832	0.227573
H	-0.075122	1.191096	1.601883
H	2.973617	0.0	0.0
