18

C	-0.630548	-0.020321	-1.397974
C	0.0	0.0	0.0
Cl	-0.012571	-1.481193	-2.297231
H	1.092673	0.0	0.0
C	-2.144296	-0.199946	-1.327534
H	-2.577047	0.64996	-0.78787
H	-2.404869	-1.134848	-0.82895
H	-2.565517	-0.218808	-2.338153
N	-0.226808	1.153012	-2.116706
H	-0.165467	1.908186	-1.441744
H	-0.89196	1.377222	-2.847479
N	-0.398314	-1.175284	0.760399
H	0.384117	-1.425356	1.35797
H	-1.205576	-0.982181	1.345163
N	-0.319163	1.302572	0.621598
H	-1.09329	1.215425	1.269258
H	0.508413	1.566566	1.149313
H	2.871649	0.0	0.0
