15

C	-0.378515	-0.0068	-1.470486
C	0.0	0.0	0.0
Cl	-2.165305	0.094238	-1.666995
H	1.095286	0.0	0.0
H	0.025616	0.907463	-1.903319
C	0.172449	-1.236396	-2.161131
H	-0.281972	-2.144386	-1.759858
H	-0.030498	-1.187667	-3.232504
H	1.253149	-1.268251	-1.99318
C	-0.520289	-1.144084	0.729372
N	-0.891841	-2.105853	1.2917
N	-0.424334	1.283027	0.653769
O	-0.9463	1.228058	1.764941
O	-0.180618	2.308139	0.02451
Br	3.347877	0.0	0.0
