15

C	-0.508705	0.002378	-1.45
C	0.0	0.0	0.0
Cl	0.162606	1.405043	-2.326223
H	1.091412	0.0	0.0
H	-0.055616	-0.879491	-1.910122
C	-2.019289	-0.016779	-1.603273
H	-2.459763	0.903857	-1.219721
H	-2.275078	-0.109307	-2.66045
H	-2.449011	-0.860462	-1.057993
C	-0.500285	-1.185279	0.68431
N	-0.887254	-2.171485	1.191833
N	-0.499401	1.218807	0.727386
O	0.256715	2.181188	0.789977
O	-1.651017	1.175876	1.170765
Br	3.393957	0.0	0.0
