15

C	-0.53481	0.009899	-1.438572
C	0.0	0.0	0.0
Cl	0.006438	-1.488236	-2.243684
H	1.091528	0.0	0.0
H	-1.625073	-0.034499	-1.41018
C	-0.039299	1.22454	-2.198683
H	1.046766	1.292019	-2.119548
H	-0.329775	1.151438	-3.247919
H	-0.484079	2.133122	-1.785805
C	-0.527387	-1.113202	0.778536
N	-0.939776	-2.017841	1.403469
N	-0.489619	1.278195	0.634914
O	0.327466	2.166555	0.83397
O	-1.70188	1.354777	0.841231
Br	3.395363	0.0	0.0
