15

C	-0.531957	0.002138	-1.440673
C	0.0	0.0	0.0
Cl	0.002623	-1.499525	-2.241348
H	1.091628	0.0	0.0
H	-1.622699	-0.035418	-1.414341
C	-0.030909	1.21886	-2.194981
H	1.056032	1.28112	-2.117581
H	-0.471075	2.128229	-1.777937
H	-0.32424	1.15257	-3.243583
C	-0.534426	-1.102461	0.78626
N	-0.958108	-1.997804	1.41688
N	-0.499185	1.285362	0.615925
O	0.315247	2.174446	0.827907
O	-1.717736	1.366759	0.786739
Br	3.397791	0.0	0.0
