15

C	-0.521664	0.001394	-1.443486
C	0.0	0.0	0.0
Cl	0.001984	-1.516152	-2.222968
H	1.091595	0.0	0.0
H	-1.612656	-0.02141	-1.429302
C	0.008022	1.202627	-2.201426
H	1.094603	1.244937	-2.1138
H	-0.273759	1.127705	-3.252758
H	-0.41998	2.123888	-1.798141
C	-0.538817	-1.100802	0.785418
N	-0.974841	-1.992889	1.412745
N	-0.495413	1.284358	0.620324
O	0.323249	2.169492	0.83733
O	-1.714854	1.370322	0.792757
Br	3.419273	0.0	0.0
