11

C	-0.487979	0.006909	-1.433653
C	0.0	0.0	0.0
F	-0.512325	1.32885	-1.88689
H	1.087626	0.0	0.0
H	0.197121	-0.553083	-2.071692
H	-1.500201	-0.393481	-1.532794
H	-0.370986	0.853092	0.564831
N	-0.420808	-1.210535	0.676877
O	-0.523705	-2.239596	-0.012015
O	-0.551276	-1.190457	1.906885
H	2.667469	0.0	0.0
