11

C	-0.456378	-0.01034	-1.419839
C	0.0	0.0	0.0
F	-1.851089	-0.149471	-1.525586
H	1.092179	0.0	0.0
H	-0.000216	-0.861372	-1.930947
H	-0.178485	0.916712	-1.918062
H	-0.36756	-0.852814	0.568463
N	-0.441501	1.204255	0.711376
O	-0.396562	2.283438	0.112073
O	-0.753247	1.089654	1.901792
H	2.73383	0.0	0.0
