11

C	-0.423893	0.018897	-1.429469
C	0.0	0.0	0.0
F	-1.80834	0.209985	-1.578179
H	1.092159	0.0	0.0
H	-0.165367	-0.919907	-1.916123
H	0.080813	0.84932	-1.929636
H	-0.361075	0.858682	0.563417
N	-0.455588	-1.197233	0.709427
O	-0.463502	-2.272716	0.099742
O	-0.723736	-1.084271	1.911414
H	2.720822	0.0	0.0
