13

C	-0.385303	-0.254787	-1.452924
C	0.0	0.0	0.0
Cl	-0.565875	1.427838	-2.317599
H	1.094365	0.0	0.0
H	-1.391807	-0.656256	-1.545061
H	-0.371024	0.969565	0.335342
N	0.558121	-1.08978	-2.05797
H	1.509093	-0.78487	-1.870945
H	0.401167	-1.237707	-3.043761
N	-0.488486	-1.115188	0.819827
H	-1.171088	-0.777964	1.484361
H	0.284597	-1.502424	1.342467
Br	3.670029	0.0	0.0
