13

C	-0.488273	-0.006941	-1.426506
C	0.0	0.0	0.0
Cl	-2.407	0.086061	-1.331313
H	1.093024	0.0	0.0
H	-0.349934	-0.984425	-1.881628
H	-0.328826	0.942252	0.466941
N	0.053308	1.014971	-2.203155
H	0.037724	1.91578	-1.749986
H	-0.314897	1.06277	-3.140909
N	-0.455995	-1.195043	0.701428
H	0.202374	-1.400868	1.441911
H	-1.369663	-1.04175	1.109343
Br	3.716278	0.0	0.0
