13

C	-0.362128	-0.087786	-1.485787
C	0.0	0.0	0.0
Cl	-0.234197	1.627613	-2.251143
H	1.094969	0.0	0.0
H	-1.415386	-0.319155	-1.665297
H	-0.326277	-0.949873	0.437553
N	0.474514	-1.038109	-2.097306
H	1.450801	-0.871246	-1.859507
H	0.356734	-1.088094	-3.099342
N	-0.522032	1.106293	0.778254
H	-1.484616	1.292661	0.521807
H	0.011876	1.934422	0.551267
Br	3.677157	0.0	0.0
