15

C	0.0	0.0	0.0
C	-0.534673	-0.004853	-1.421878
Cl	1.79393	0.0	0.0
H	-1.627049	0.128147	-1.368646
H	-0.277092	-0.940279	-1.913012
C	-0.413952	1.174326	0.773976
N	-0.640123	2.071078	1.498412
C	-0.485294	-1.266357	0.702257
H	-0.09632	-2.14366	0.180725
H	-0.125615	-1.275082	1.731706
H	-1.578812	-1.266787	0.691556
N	0.035588	1.074655	-2.266068
O	0.022096	2.217091	-1.818884
O	0.466046	0.750927	-3.371917
Br	-3.817643	0.0	0.0
