15

C	0.0	0.0	0.0
C	-0.540556	-0.021487	-1.418351
Cl	1.79398	0.0	0.0
H	-0.286919	-0.96364	-1.900933
H	-1.633618	0.109978	-1.353056
C	-0.390348	1.194208	0.75939
N	-0.601541	2.105615	1.469449
C	-0.489	-1.249375	0.725995
H	-0.113948	-2.137562	0.211914
H	-1.583121	-1.235727	0.72265
H	-0.118851	-1.247279	1.752225
N	0.020058	1.047921	-2.282553
O	0.411482	0.713842	-3.401736
O	0.034958	2.192359	-1.838505
Br	-3.79175	0.0	0.0
