15

C	0.0	0.0	0.0
C	-0.548336	-0.017226	-1.426525
Cl	1.795914	0.0	0.0
H	-1.638931	-0.152369	-1.348192
H	-0.297792	0.902211	-1.951268
C	-0.385686	1.293919	0.578999
N	-0.607479	2.342209	1.060692
C	-0.488696	-1.135374	0.890188
H	-1.581903	-1.11519	0.888213
H	-0.112199	-0.982164	1.903189
H	-0.129663	-2.087485	0.505121
N	0.022213	-1.117683	-2.245207
O	-0.141023	-2.272715	-1.857084
O	0.612462	-0.799625	-3.278637
Br	-3.803678	0.0	0.0
