15

C	0.0	0.0	0.0
C	-0.550315	0.202134	-1.399669
Cl	1.792	0.0	0.0
H	-1.643174	0.324302	-1.306614
H	-0.311559	-0.655538	-2.025982
C	-0.400515	1.056645	0.937824
N	-0.632822	1.868087	1.754376
C	-0.486595	-1.351021	0.518182
H	-0.120299	-2.144217	-0.137596
H	-1.580907	-1.33632	0.527537
H	-0.10609	-1.516728	1.52748
N	0.002625	1.389695	-2.099974
O	0.122853	2.431491	-1.462626
O	0.277489	1.249519	-3.291625
Br	-3.795317	0.0	0.0
