15

C	0.0	0.0	0.0
C	-0.550998	0.15324	-1.405742
Cl	1.793325	0.0	0.0
H	-1.643479	0.277721	-1.313924
H	-0.306637	-0.723103	-2.003241
C	-0.389261	1.091194	0.901858
N	-0.613387	1.905247	1.718327
C	-0.489144	-1.328164	0.569125
H	-0.127163	-2.14663	-0.058182
H	-1.583026	-1.31029	0.579804
H	-0.105372	-1.459553	1.58168
N	0.003509	1.319174	-2.139814
O	0.060418	2.394074	-1.550095
O	0.34719	1.128415	-3.307298
Br	-3.802664	0.0	0.0
