15

C	0.0	0.0	0.0
C	-0.508244	0.107956	-1.428139
Cl	1.790509	0.0	0.0
H	-0.208701	-0.776999	-1.987132
H	-1.602786	0.213642	-1.385723
C	-0.398156	1.109649	0.871159
N	-0.594727	1.940064	1.678684
C	-0.462732	-1.332421	0.584053
H	-1.555037	-1.3592	0.564493
H	-0.101644	-1.429002	1.609072
H	-0.043626	-2.144136	-0.016153
N	0.063696	1.266254	-2.16076
O	-0.050761	2.375122	-1.646996
O	0.606731	1.035014	-3.242449
Br	-3.735283	0.0	0.0
