15

C	0.0	0.0	0.0
C	-0.556254	0.128837	-1.405859
Cl	1.792634	0.0	0.0
H	-1.647391	0.260008	-1.309909
H	-0.319382	-0.759686	-1.987797
C	-0.38682	1.108431	0.882725
N	-0.603432	1.942681	1.680755
C	-0.486914	-1.317323	0.59525
H	-1.580299	-1.298785	0.614413
H	-0.092816	-1.435042	1.605194
H	-0.132297	-2.146339	-0.022628
N	0.000221	1.278151	-2.163472
O	0.054388	2.365421	-1.596871
O	0.349786	1.06232	-3.324985
Br	-3.802199	0.0	0.0
