15

C	0.0	0.0	0.0
C	-0.551789	0.075153	-1.423486
Cl	1.794077	0.0	0.0
H	-0.293838	1.023303	-1.889405
H	-1.643304	-0.057127	-1.35543
C	-0.377043	1.258365	0.660233
N	-0.593841	2.273298	1.210997
C	-0.488181	-1.187367	0.820571
H	-0.140398	-2.114472	0.370021
H	-1.581091	-1.16105	0.833259
H	-0.097878	-1.102846	1.836231
N	0.011646	-0.976068	-2.308466
O	0.624448	-0.596854	-3.308735
O	-0.178297	-2.153061	-2.001391
Br	-3.813598	0.0	0.0
