15

C	0.0	0.0	0.0
C	-0.554776	-0.157926	-1.402614
Cl	1.79416	0.0	0.0
H	-1.64883	-0.02368	-1.338682
H	-0.31156	-1.142415	-1.79783
C	-0.387937	1.262397	0.64159
N	-0.624529	2.242176	1.244451
C	-0.489915	-1.17043	0.847388
H	-1.583474	-1.142788	0.855394
H	-0.105179	-1.076413	1.863798
H	-0.133715	-2.108305	0.414381
N	-0.015119	0.821477	-2.38144
O	0.112048	1.987725	-2.02145
O	0.237781	0.394009	-3.507887
Br	-3.803384	0.0	0.0
