18

C	-0.529016	-0.260535	-1.382878
C	0.0	0.0	0.0
Br	0.345543	0.900693	-2.641589
H	1.114453	0.0	0.0
N	-0.300381	-1.692022	-1.891535
O	0.237465	-2.475505	-1.124364
O	-0.69137	-1.925628	-3.028238
N	-2.054613	-0.081126	-1.504521
O	-2.47856	1.057429	-1.647384
O	-2.725931	-1.095845	-1.354
N	-0.557714	-0.968961	1.000526
O	-1.769167	-0.882747	1.247709
O	0.211973	-1.7339	1.569238
C	-0.340273	1.394327	0.52167
H	0.140143	2.139171	-0.111892
H	-1.411009	1.595451	0.595717
H	0.117029	1.473556	1.510235
F	2.498446	0.0	0.0
