17

C	0.0	0.0	0.0
C	-0.41515	-0.339943	-1.479131
Br	2.072629	0.0	0.0
H	0.483704	-0.4414	-2.08859
N	-0.443164	1.267292	0.369943
H	-0.287807	1.965642	-0.34005
H	-0.120775	1.533361	1.286275
N	-0.391158	-0.916796	1.018868
H	-0.242471	-1.857043	0.671308
H	-1.39865	-0.777531	1.122502
N	-1.172551	0.785256	-2.019344
H	-2.040943	0.854281	-1.485124
H	-1.432237	0.557429	-2.971611
N	-1.065499	-1.649198	-1.474211
H	-1.180374	-1.944408	-2.437706
H	-2.001292	-1.524959	-1.083451
Cl	-3.786035	0.0	0.0
