15

C	-0.471959	-0.004611	-1.435469
C	0.0	0.0	0.0
F	0.0883	1.015216	-2.140441
H	1.095907	0.0	0.0
H	-1.557067	0.043598	-1.566808
N	-0.081317	-1.30135	-2.107964
O	1.009234	-1.373543	-2.654462
O	-0.921361	-2.201427	-2.033387
C	-0.402329	-1.248491	0.787938
H	-0.114588	-1.098395	1.830104
H	-1.47256	-1.481401	0.740568
H	0.168269	-2.102028	0.41704
C	-0.525302	1.202891	0.617644
N	-0.957437	2.173607	1.124032
F	2.518392	0.0	0.0
