15

C	-0.504424	-0.037029	-1.421777
C	0.0	0.0	0.0
F	-0.009411	1.001979	-2.149362
H	1.095877	0.0	0.0
H	-1.594405	-0.03879	-1.524422
N	-0.068025	-1.31874	-2.094418
O	0.995332	-1.328974	-2.698876
O	-0.845685	-2.2669	-1.968634
C	-0.37268	-1.24575	0.80467
H	-0.067082	-1.083554	1.839712
H	-1.43627	-1.490429	0.778331
H	0.200125	-2.089911	0.427429
C	-0.533581	1.198319	0.616769
N	-0.980347	2.159879	1.126707
F	2.517774	0.0	0.0
