15

C	-0.381861	-0.100318	-1.442298
C	0.0	0.0	0.0
F	-1.721077	-0.351366	-1.660666
H	1.094355	0.0	0.0
H	0.207255	-0.87537	-1.931739
N	-0.067121	1.167801	-2.194869
O	0.977383	1.183171	-2.838716
O	-0.879831	2.084128	-2.107297
C	-0.347324	-1.305793	0.722045
H	0.175986	-2.127172	0.224748
H	-1.420554	-1.516016	0.749828
H	0.038459	-1.250942	1.741559
C	-0.579297	1.140503	0.678985
N	-1.057858	2.025755	1.288374
F	2.519533	0.0	0.0
