15

C	-0.31765	0.041974	-1.470019
C	0.0	0.0	0.0
F	0.133625	-1.07998	-2.093201
H	1.096476	0.0	0.0
H	0.100071	0.924084	-1.955006
N	-1.81083	0.098966	-1.73194
O	-2.433357	-0.959737	-1.755472
O	-2.299499	1.222559	-1.845726
C	-0.46682	-1.273145	0.698429
H	-1.554798	-1.364053	0.771759
H	-0.035969	-1.287304	1.701479
H	-0.072124	-2.133022	0.156129
C	-0.477831	1.199405	0.656625
N	-0.84208	2.164154	1.223302
F	2.519297	0.0	0.0
