15

C	-0.335509	0.089947	-1.463781
C	0.0	0.0	0.0
F	0.148997	-0.989022	-2.136781
H	1.096584	0.0	0.0
H	0.039022	1.005972	-1.920971
N	-1.833667	0.098174	-1.700339
O	-2.372389	1.20543	-1.716124
O	-2.408972	-0.983697	-1.802416
C	-0.439978	-1.308766	0.650519
H	-0.006349	-2.134639	0.087275
H	-0.023988	-1.342841	1.659466
H	-1.52453	-1.440163	0.70211
C	-0.489006	1.163851	0.706558
N	-0.861846	2.098911	1.315642
F	2.515547	0.0	0.0
