18

C	0.0	0.0	0.0
C	-0.413892	0.024336	-1.525348
Br	1.971204	0.0	0.0
H	0.287895	0.741585	-1.970771
C	-0.51346	1.210111	0.76125
H	-0.111241	1.230729	1.77551
H	-1.605543	1.148189	0.807337
H	-0.214065	2.125458	0.243823
C	-0.401485	-1.238482	0.660153
N	-0.67764	-2.257989	1.177024
N	-1.741642	0.48848	-1.81234
H	-2.480024	-0.059248	-1.365984
H	-1.890577	1.43981	-1.502048
C	-0.226399	-1.344402	-2.167152
H	-0.314991	-1.239568	-3.249499
H	0.734257	-1.798168	-1.923001
H	-1.021883	-2.012419	-1.829053
Br	-4.494456	0.0	0.0
