18

C	0.0	0.0	0.0
C	-0.51614	0.208271	-1.450214
Br	1.972421	0.0	0.0
H	-1.607366	0.193298	-1.321137
C	-0.499138	1.049473	0.980804
H	-0.200432	0.797045	2.000108
H	-1.592333	1.059092	0.910441
H	-0.089698	2.027715	0.726609
C	-0.363654	-1.34631	0.445489
N	-0.594272	-2.444415	0.796182
N	-0.164311	-0.864303	-2.368603
H	0.825151	-1.075428	-2.295033
H	-0.682078	-1.699776	-2.122238
C	-0.104606	1.547705	-2.042798
H	-0.466188	2.388308	-1.448689
H	0.981851	1.625154	-2.144766
H	-0.546216	1.614478	-3.038042
Br	-3.878181	0.0	0.0
