18

C	0.0	0.0	0.0
C	-0.442857	0.230168	-1.468282
Br	1.979759	0.0	0.0
H	0.101775	-0.515351	-2.063404
C	-0.567216	1.008798	0.977366
H	-1.651565	0.867926	1.030778
H	-0.142841	0.866217	1.972007
H	-0.345736	2.010787	0.611613
C	-0.327568	-1.368824	0.405073
N	-0.578508	-2.479851	0.696798
N	-0.087669	1.59278	-1.851941
H	-0.826303	1.990047	-2.415721
H	0.77337	1.610986	-2.379397
C	-1.933857	-0.006826	-1.633775
H	-2.548332	0.724753	-1.111585
H	-2.254695	-0.979524	-1.26293
H	-2.177058	0.03928	-2.699724
Br	-5.014508	0.0	0.0
