18

C	0.0	0.0	0.0
C	-0.411116	-0.133248	-1.521681
Br	1.972771	0.0	0.0
H	0.28916	0.5348	-2.0386
C	-0.52917	1.27299	0.636257
H	-0.244707	2.135705	0.027448
H	-0.126438	1.40206	1.642271
H	-1.62009	1.200566	0.688957
C	-0.39226	-1.168687	0.781549
N	-0.667025	-2.1161	1.421609
N	-1.739676	0.296421	-1.858009
H	-2.48208	-0.186929	-1.350215
H	-1.876567	1.279852	-1.66453
C	-0.212225	-1.55812	-2.024335
H	0.777385	-1.953762	-1.7877
H	-0.967859	-2.211182	-1.580585
H	-0.356633	-1.563415	-3.106383
Br	-4.493175	0.0	0.0
