11
Coordinates from ORCA-job run
  C   1.15454844397386      0.10456315830198      0.06137868743281
  C   -0.30345623267725      0.01820624124905     -0.38765268477708
  F   1.78330814802860      1.16071965968225     -0.56814277920345
  H   -0.31314738243994     -0.08367827212364     -1.47750803756305
  H   1.21301511103531      0.25676950819873      1.14275691674278
  H   1.67117284501486     -0.81985574540977     -0.21204557195376
  C   -1.00018879337294      1.26791171533847     -0.05374293257621
  N   -1.53692853859399      2.26453158726859      0.25399384921916
  N   -1.03220045207455     -1.10816513622872      0.17936892459103
  H   -1.01034517802980     -1.07872114128345      1.19162361215559
  H   -0.62577797086416     -1.98228157499352     -0.13002998406782
