11
Coordinates from ORCA-job run
  C   1.22877328032086      0.18329696435672      0.12779996289859
  C   -0.20755440457454     -0.02204317273380     -0.33435814825725
  F   1.26400170214143      0.63914957487933      1.42356624494290
  H   -0.15732519794425     -0.24188509007580     -1.41484136157951
  H   1.72718061893508      0.91448523726460     -0.51363222126303
  H   1.76467261194231     -0.77016673445426      0.08124876094904
  C   -0.96239786531905      1.23060521089242     -0.19437422124369
  N   -1.57359451408038      2.22859400995839     -0.11612927541152
  N   -0.85478538453203     -1.06111079684647      0.45836196493594
  H   -0.39990637464813     -1.95027504341327      0.28836366888416
  H   -1.82806447224132     -1.15165015982786      0.19499462514437
