11
Coordinates from ORCA-job run
  C   1.18069008282784      0.23944545445485      0.17743820513470
  C   -0.23495447337725      0.01135838407591     -0.32954859367043
  F   1.88839447796811     -0.94139005970941     -0.00683385430376
  H   -0.16560741101633     -0.24119872639281     -1.39905051281429
  H   1.68102853478000      1.03128544029607     -0.38243150942985
  H   1.16030808010948      0.46568338637423      1.24445637649756
  C   -0.98600578218176      1.26758861146443     -0.21800484136856
  N   -1.57447934408425      2.27949831858584     -0.13819739993180
  N   -0.86392248532298     -1.01864458191678      0.48825940610170
  H   -1.78622467216709     -1.23744054387642      0.13208941040170
  H   -0.29822700753577     -1.85718568335589      0.43182331338304
