11
Coordinates from ORCA-job run
  C   1.21491429913810      0.17688909664583      0.20948290466569
  C   -0.19876801699570     -0.01508216039795     -0.32564396027991
  F   1.85781942578716      1.15614135584789     -0.52305679978104
  H   -0.13128636068128     -0.17784740296243     -1.41119260114508
  H   1.77441382490737     -0.75662494748739      0.10495692123569
  H   1.17956592772038      0.47414516828727      1.25800015888928
  C   -0.98530712002471      1.20625790380896     -0.12242264438029
  N   -1.62913413478352      2.17275897097254      0.04416139267078
  N   -0.80918780834574     -1.11935162269082      0.41476233918477
  H   -0.45811756084392     -1.99945844342974      0.05661811258225
  H   -1.81391247587815     -1.11682791859416      0.29433417635786
