11
Coordinates from ORCA-job run
  C   1.24844130480192      0.18272232851014     -0.01991873648604
  C   -0.19121479804121     -0.07578593186042     -0.42594504050104
  F   1.28718803126055      0.43066849617413      1.34378520971102
  H   -0.19701321348277     -0.27930544559468     -1.50254269313030
  H   1.83946973738134     -0.71203846285898     -0.22123208140917
  H   1.66157969032936      1.05036986676276     -0.53781555064811
  C   -1.00869438667767      1.13585754255034     -0.19453762801601
  N   -1.69004385803449      2.07142536599515      0.00325714656814
  N   -0.67359366198783     -1.25928578237229      0.26929802053182
  H   -1.63465477009906     -1.45317529246374      0.01695693433740
  H   -0.64246407545014     -1.09045268484241      1.26769441904228
