11
Coordinates from ORCA-job run
  C   1.21587105403168      0.17795162622358      0.20066174971476
  C   -0.19852052872574     -0.03636408324889     -0.32429592831673
  F   1.87449477274609      1.08765780775197     -0.60438756404638
  H   -0.12876978894216     -0.27883421024343     -1.39471265607861
  H   1.18191725627040      0.55778053466536      1.22236266331854
  H   1.76267657351435     -0.76853092425647      0.17243444385776
  C   -0.97125856554974      1.20539326539769     -0.21330659736105
  N   -1.60341089374131      2.18900173645438     -0.11875599699813
  N   -0.82412432222051     -1.07649148029265      0.49232730027569
  H   -1.82809172186535     -1.07359566742319      0.36527423690504
  H   -0.47978383551770     -1.98396860502835      0.20239834872909
