11
Coordinates from ORCA-job run
  C   1.17858630547197      0.25663568972948      0.15766887223636
  C   -0.23638785940321     -0.01590740475791     -0.32899693389285
  F   1.89061530412883     -0.93264764763509      0.06819754021434
  H   -0.16600051895414     -0.35317241232396     -1.37484693250096
  H   1.15767733936955      0.56726598650523      1.20324907999708
  H   1.67594665382734      1.00300324176925     -0.46386594598737
  C   -0.99003395840923      1.24385442796034     -0.31969311441154
  N   -1.57895874067173      2.25864343763760     -0.32315732749002
  N   -0.86246720721596     -0.97829370829971      0.56888366917907
  H   -1.78045054637871     -1.23484265615246      0.22732225179678
  H   -0.28952677176471     -1.81353895443277      0.58723884085910
