11
Coordinates from ORCA-job run
  C   1.14569677210254      0.14340534376265      0.06836350398640
  C   -0.30586879512927      0.05278935386541     -0.39901472275082
  F   1.77373486454593     -1.04266467430745     -0.28308163417045
  H   -0.29477825862320     -0.06163781412188     -1.48849763494287
  H   1.67467094403682      0.96994570026316     -0.41203426913844
  H   1.19315830224985      0.24705584583790      1.15561284379990
  C   -0.97660776534854      1.32037479015656     -0.08523549721169
  N   -1.46734996148084      2.34572996929935      0.20559746994621
  N   -1.06073973725196     -1.06321043623334      0.15191493941471
  H   -1.10682007151695     -0.98863783763441      1.16185956696560
  H   -0.57609629358438     -1.92315024088794     -0.07548456589856
