11
Coordinates from ORCA-job run
  C   1.25395568476844      0.13606155406385      0.04205813971636
  C   -0.17422529609036     -0.05181217631222     -0.43640211493694
  F   1.24097858241499      0.32467538464161      1.41590327331722
  H   -0.13821105113796     -0.21353286647700     -1.51942882892669
  H   1.82185968649255     -0.77062924453503     -0.17280148001865
  H   1.71987842194343      1.00901980586445     -0.41912310751840
  C   -0.95799818564386      1.17943658905069     -0.19232483077822
  N   -1.61393302025070      2.13139431681546      0.01287241770593
  N   -0.72984348698273     -1.24239432127520      0.18871944304010
  H   -1.68493940366150     -1.38959109022226     -0.11297120261713
  H   -0.73752193185231     -1.11362795161436      1.19349829101641
