11
Coordinates from ORCA-job run
  C   1.16697572442206      0.08892750332173      0.01558855015559
  C   -0.29237275014929      0.02151791848844     -0.42403831652204
  F   1.21013073868151      0.23804719388287      1.39194156984406
  H   -0.30845433077268     -0.13118403023272     -1.50985240494310
  H   1.67000162879342     -0.84831466811953     -0.23882207713611
  H   1.69189116855819      0.93245651250276     -0.43933238809537
  C   -0.94637314064970      1.31278442848333     -0.15621338680697
  N   -1.43877735126397      2.35491887641714      0.06104075614256
  N   -1.06956426967378     -1.04280273471774      0.19657747681985
  H   -0.71555131063639     -1.94373826756440     -0.10175974837038
  H   -0.96890610730938     -0.98261273246189      1.20286996891191
