11
Coordinates from ORCA-job run
  C   1.25349996510520      0.11784864438890      0.10877353618823
  C   -0.17927666294947     -0.02986108686651     -0.38471611549572
  F   1.80769315067821      1.27029612542942     -0.41286360950260
  H   -0.14687472923051     -0.10878485446299     -1.47510276329657
  H   1.83064777632020     -0.74381278371779     -0.22838611591055
  H   1.28130696682369      0.18361389709079      1.19991836991694
  C   -0.96989582551714      1.17017943188949     -0.04411457543433
  N   -1.63521690567371      2.08365873879285      0.27496046540198
  N   -0.72213580658568     -1.27198674666764      0.14976620901097
  H   -0.93498062858630     -1.16297656585374      1.13441204324265
  H   -1.58576730038450     -1.50917480002278     -0.32164744412100
