11
Coordinates from ORCA-job run
  C   1.15453700759464      0.06859880040508      0.10231945115011
  C   -0.28932497527649      0.04286380617974     -0.39646230112529
  F   1.83259823389057      1.13114505731848     -0.46198560718814
  H   -0.26654574974465     -0.01188379138687     -1.48963763100967
  H   1.65492154066239     -0.85808146720962     -0.19268610792025
  H   1.18077022342621      0.17474704492737      1.19043460455181
  C   -0.96304805909022      1.29658696089983     -0.03161905482540
  N   -1.48333304643720      2.29376108978504      0.30163135019492
  N   -1.06730502160959     -1.08505426905592      0.09785420358215
  H   -1.08373044896039     -1.09466917696983      1.11039619372529
  H   -0.67053970445527     -1.95701405489331     -0.22924510113554
