11
Coordinates from ORCA-job run
  C   1.23021159043959      0.19503143157209      0.08345806602834
  C   -0.21983676112344     -0.02326357822016     -0.32778121527120
  F   1.30681222351469      0.65027440674857      1.37785558978366
  H   -0.20608158122765     -0.24030374378192     -1.40981863445076
  H   1.77330817953026     -0.75323249082077      0.01726513874136
  H   1.69841590921344      0.93161663306674     -0.57440671067197
  C   -0.98058949708253      1.22166220200398     -0.15622845493524
  N   -1.59758904799477      2.21365608862090     -0.05077665678288
  N   -0.82823305154063     -1.07009745977904      0.48534673833417
  H   -1.80835652967520     -1.17265079228515      0.25325821029263
  H   -0.36806143405377     -1.95369269712523      0.30082792893189
