17

C	0.0	0.0	0.0
C	-0.295001	0.531793	-1.464815
Cl	1.776304	0.0	0.0
H	0.483393	0.027125	-2.053322
N	-0.373338	1.001671	1.137827
O	-0.992508	0.558658	2.088076
O	0.058088	2.14943	1.035635
N	-0.528897	-1.242545	0.369082
H	-0.453022	-1.865771	-0.422771
H	-1.540247	-1.085936	0.522375
N	-0.33801	1.934611	-1.610598
H	-0.113265	2.224939	-2.548711
H	0.18731	2.425591	-0.909434
N	-1.50494	-0.08875	-2.204525
O	-1.484389	-1.315931	-2.294611
O	-2.230961	0.658533	-2.833663
Cl	-3.484537	0.0	0.0
