17

C	0.0	0.0	0.0
C	-0.4658	-0.151878	-1.479969
Cl	1.767509	0.0	0.0
H	0.317227	0.237973	-2.134977
N	-0.366865	1.486551	0.321809
O	0.218438	2.337636	-0.329748
O	-1.208265	1.67445	1.185117
N	-0.568002	-0.803063	1.007984
H	-1.562824	-0.584319	1.093458
H	-0.443267	-1.77643	0.763585
N	-1.670414	0.498599	-1.730384
H	-1.906104	0.49816	-2.712126
H	-2.48419	0.225243	-1.157358
N	-0.460536	-1.674061	-1.86519
O	-1.083951	-1.949921	-2.884022
O	0.208689	-2.475048	-1.209615
Cl	-4.190879	0.0	0.0
