17

C	0.0	0.0	0.0
C	-0.398569	-0.376567	-1.466927
Cl	1.798619	0.0	0.0
H	0.332811	0.101485	-2.112956
N	-0.308953	1.531005	0.155971
O	-0.18509	2.240805	-0.835144
O	-0.600389	1.907728	1.282891
N	-0.584637	-0.776286	0.986187
H	-1.58351	-0.888472	0.794391
H	-0.467883	-0.351444	1.898007
N	-1.70108	-0.117338	-1.939998
H	-1.804336	0.864099	-2.153692
H	-2.462364	-0.365829	-1.30019
N	-0.137285	-1.861462	-1.60244
O	0.943449	-2.206985	-2.082044
O	-1.034639	-2.614458	-1.242703
Cl	-4.10609	0.0	0.0
