17

C	0.0	0.0	0.0
C	-0.291785	-0.157154	-1.550323
Cl	1.807711	0.0	0.0
H	0.539842	-0.769882	-1.904981
N	-0.396956	1.357326	0.632695
O	-0.134686	1.451397	1.822475
O	-0.900928	2.23003	-0.058302
N	-0.48512	-0.98538	0.874377
H	-1.505111	-0.844919	0.919231
H	-0.322418	-1.89595	0.463309
N	-0.328593	1.031942	-2.306202
H	-0.384548	0.797401	-3.288909
H	-1.134152	1.5855	-2.047486
N	-1.43202	-1.1577	-1.929751
O	-2.166741	-0.834013	-2.849403
O	-1.353562	-2.284226	-1.445902
Cl	-3.36016	0.0	0.0
