17

C	0.0	0.0	0.0
C	-0.633047	0.100767	-1.44222
Cl	1.757905	0.0	0.0
H	-1.36281	0.905883	-1.422617
N	-0.314448	1.342123	0.763577
O	-0.365225	2.37453	0.111302
O	-0.414378	1.245099	1.980619
N	-0.514591	-1.110839	0.677023
H	-0.204302	-1.088567	1.641496
H	-1.539426	-1.029398	0.653596
N	-1.242476	-1.079815	-1.936721
H	-0.756373	-1.901262	-1.604846
H	-2.194417	-1.07769	-1.577886
N	0.420416	0.534995	-2.44349
O	0.476407	1.730209	-2.729695
O	1.125741	-0.346416	-2.92376
Cl	-3.542105	0.0	0.0
