17

C	0.0	0.0	0.0
C	-0.273664	0.123669	-1.539843
Cl	1.816768	0.0	0.0
H	0.485267	-0.534893	-1.963619
N	-0.359139	1.247359	0.887338
O	-0.249567	1.030923	2.08827
O	-0.687272	2.311192	0.387241
N	-0.483492	-1.178052	0.554525
H	-1.507959	-1.15913	0.446492
H	-0.248962	-1.196503	1.540618
N	-0.094326	1.42986	-2.054116
H	-0.145735	1.38935	-3.06294
H	-0.827144	2.039477	-1.716572
N	-1.522587	-0.592257	-2.144521
O	-2.193344	0.064614	-2.929404
O	-1.593816	-1.801515	-1.975166
Cl	-3.378677	0.0	0.0
