17

C	-0.247807	0.035464	-1.423402
C	0.046685	0.195395	0.064042
F	-1.675805	-0.21121	-1.523813
H	1.102035	0.488625	0.132347
C	-0.106098	1.336103	-2.134702
N	0.054014	2.307911	-2.775939
N	0.483117	-1.006811	-1.976869
H	0.612662	-0.89786	-2.975079
H	1.459625	-1.16447	-1.488359
C	-0.124005	-1.137543	0.78653
H	-0.032692	-0.973269	1.866781
H	0.656051	-1.832453	0.473252
H	-1.108892	-1.561897	0.574522
N	-0.785389	1.287794	0.576396
H	-0.556646	1.433839	1.553199
H	-1.752673	0.985881	0.534358
H	2.700581	-1.331126	-0.825358
