17

C	-0.173312	-0.079944	-1.495512
C	0.04665	-0.145624	0.020511
F	0.106209	-1.416043	-1.978782
H	1.074557	-0.546172	0.097454
C	-1.603398	0.103858	-1.858297
N	-2.73257	0.241252	-2.151588
N	0.623071	0.895821	-2.070912
H	1.533666	1.06614	-1.564281
H	0.693412	0.82197	-3.075732
C	-0.9337	-1.093547	0.690685
H	-0.944657	-2.064682	0.193309
H	-1.940637	-0.667931	0.672337
H	-0.64533	-1.246295	1.735808
N	-0.059833	1.193925	0.579104
H	-0.027342	1.099322	1.591059
H	0.815919	1.666778	0.318157
H	2.658152	1.474527	-0.481687
