17

C	-0.24043	0.020342	-1.451904
C	-0.027948	0.074451	0.062013
F	-1.572275	-0.385046	-1.729243
H	1.057378	0.23067	0.187397
C	-0.186795	1.404579	-2.013127
N	-0.093025	2.489229	-2.45675
N	0.675744	-0.873591	-2.024409
H	0.78451	-0.70662	-3.018184
H	1.64532	-0.807647	-1.543861
C	-0.391267	-1.263098	0.681381
H	-1.46256	-1.444831	0.573118
H	-0.132963	-1.258715	1.746258
H	0.169766	-2.059501	0.195194
N	-0.859534	1.135654	0.649332
H	-0.838188	1.020684	1.656923
H	-0.430791	2.035088	0.454694
H	2.929012	-0.649067	-0.78925
