17

C	-0.159691	-0.090212	-1.488035
C	0.022618	-0.182117	0.04361
F	0.225317	-1.384013	-2.000961
H	1.040008	-0.58094	0.136888
C	-1.591542	0.006665	-1.885478
N	-2.72566	0.117019	-2.173577
N	0.566604	0.967923	-2.015619
H	1.481203	1.149533	-1.501945
H	0.66434	0.91196	-3.020994
C	-0.972681	-1.150227	0.667481
H	-0.987362	-2.107117	0.140065
H	-0.692906	-1.315679	1.709616
H	-1.982537	-0.728933	0.653148
N	0.023188	1.094498	0.733002
H	0.920482	1.537108	0.496522
H	-0.710717	1.684399	0.353696
H	2.635298	1.470496	-0.498274
