14

C	0.0	0.0	0.0
C	-0.391793	-0.011294	-1.529492
F	1.374685	0.0	0.0
H	0.322487	-0.742705	-1.931408
C	-0.474318	1.17835	0.72953
N	-0.735748	2.156556	1.32563
C	-0.453521	-1.249981	0.626447
N	-0.67838	-2.290446	1.122706
C	-0.002011	1.298905	-2.081665
N	0.334168	2.333247	-2.523908
N	-1.706999	-0.384132	-1.928901
H	-2.459666	0.075688	-1.397421
H	-1.847479	-1.374473	-1.768012
Cl	-4.075882	0.0	0.0
