14

C	0.0	0.0	0.0
C	-0.338703	0.033474	-1.558213
F	1.374947	0.0	0.0
H	0.480884	-0.583244	-1.949411
C	-0.481053	1.146882	0.769637
N	-0.700054	2.126659	1.380605
C	-0.447003	-1.280262	0.566047
N	-0.661333	-2.35535	0.988755
C	-0.081239	1.405515	-2.025275
N	0.174828	2.487185	-2.403945
N	-1.566691	-0.477945	-2.071648
H	-1.57798	-1.483968	-1.950846
H	-2.375182	-0.128266	-1.537976
Cl	-3.750466	0.0	0.0
