14

C	0.0	0.0	0.0
C	-0.365985	0.236218	-1.526821
F	1.373247	0.0	0.0
H	0.397337	-0.379771	-2.018691
C	-0.474862	1.038144	0.916531
N	-0.698565	1.928044	1.65044
C	-0.446343	-1.344091	0.392556
N	-0.615258	-2.482712	0.628996
C	-0.035066	1.637655	-1.837535
N	0.217803	2.752473	-2.104823
N	-1.64562	-0.122168	-2.039461
H	-1.746765	-1.130302	-2.020662
H	-2.421187	0.231355	-1.462195
Cl	-3.927896	0.0	0.0
