14

C	0.0	0.0	0.0
C	-0.339577	-0.091585	-1.55412
F	1.375048	0.0	0.0
H	0.496484	-0.713729	-1.898857
C	-0.47857	1.204613	0.678333
N	-0.682076	2.237126	1.201609
C	-0.442778	-1.232773	0.666755
N	-0.646943	-2.270914	1.177283
C	-0.120752	1.246593	-2.128093
N	0.08629	2.298672	-2.605762
N	-1.554633	-0.670767	-2.024951
H	-1.552303	-1.661681	-1.808047
H	-2.371977	-0.280737	-1.533412
Cl	-3.723195	0.0	0.0
