14

C	0.0	0.0	0.0
C	-0.340769	-0.076731	-1.556219
F	1.375082	0.0	0.0
H	0.495208	-0.696547	-1.907556
C	-0.480306	1.196775	0.689445
N	-0.685136	2.223173	1.224873
C	-0.443826	-1.239721	0.650598
N	-0.646745	-2.287365	1.142381
C	-0.122472	1.267359	-2.116876
N	0.089145	2.324972	-2.579662
N	-1.557823	-0.653656	-2.030546
H	-2.373167	-0.264833	-1.533335
H	-1.554317	-1.645006	-1.814322
Cl	-3.731227	0.0	0.0
