14

C	0.0	0.0	0.0
C	-0.349671	0.030979	-1.553797
F	1.374937	0.0	0.0
H	0.470279	-0.578799	-1.953558
C	-0.472791	1.149525	0.773314
N	-0.666676	2.135664	1.382659
C	-0.444014	-1.279188	0.570155
N	-0.645779	-2.351796	1.00444
C	-0.110101	1.40454	-2.025922
N	0.119301	2.488502	-2.414684
N	-1.582777	-0.485139	-2.050605
H	-1.602272	-1.489731	-1.917392
H	-2.389668	-0.119376	-1.523459
Cl	-3.796362	0.0	0.0
