14

C	0.0	0.0	0.0
C	-0.320694	-0.011712	-1.543567
F	1.377818	0.0	0.0
H	-1.397391	-0.059898	-1.711981
C	-0.387723	1.257608	0.649958
N	-0.63069	2.245139	1.23705
C	-0.415888	-1.207406	0.720811
N	-0.564426	-2.134812	1.42864
C	0.271828	-1.238108	-2.106362
N	0.631513	-2.25041	-2.580901
N	0.210497	1.146435	-2.237418
H	-0.351654	1.957254	-2.006145
H	1.172278	1.317502	-1.964689
Cl	-3.19097	0.0	0.0
