14

C	0.0	0.0	0.0
C	-0.352342	0.128808	-1.544837
F	1.375038	0.0	0.0
H	0.439384	-0.489019	-1.986119
C	-0.472037	1.105522	0.835693
N	-0.720275	2.044324	1.497236
C	-0.448365	-1.308449	0.496199
N	-0.654019	-2.41028	0.848022
C	-0.054738	1.518024	-1.938172
N	0.210284	2.610225	-2.278064
N	-1.610333	-0.304559	-2.056881
H	-1.650341	-1.316145	-2.025457
H	-2.403347	0.02184	-1.484245
Cl	-3.860131	0.0	0.0
