17

C	-0.425617	0.005006	-1.471383
C	0.0	0.0	0.0
F	0.075041	1.151262	-2.001804
H	1.093563	0.0	0.0
C	0.004362	-1.171219	-2.305119
H	-0.508453	-2.078432	-1.997549
H	1.081265	-1.297391	-2.180603
H	-0.229931	-0.939834	-3.347387
N	-1.947891	0.132882	-1.544248
O	-2.56668	-0.768595	-0.98399
O	-2.429013	1.082399	-2.147666
N	-0.420676	-1.235831	0.742254
O	0.032181	-2.293756	0.318733
O	-1.137247	-1.10465	1.730195
C	-0.511726	1.186071	0.670345
N	-0.90448	2.171726	1.174286
Cl	3.13587	0.0	0.0
