17

C	-0.380994	-0.150984	-1.480323
C	0.0	0.0	0.0
F	-0.076563	1.034731	-2.071629
H	1.107952	0.0	0.0
C	0.313125	-1.271617	-2.203389
H	0.084051	-1.184241	-3.268138
H	1.385866	-1.153937	-2.034381
H	-0.006776	-2.238962	-1.828359
N	-1.897521	-0.306612	-1.593562
O	-2.551763	0.638659	-2.011804
O	-2.338284	-1.393029	-1.226402
N	-0.441831	-1.183043	0.813509
O	0.129973	-2.241432	0.580542
O	-1.326646	-1.01079	1.649587
C	-0.535762	1.22727	0.564821
N	-0.925926	2.236859	1.021292
Cl	3.152127	0.0	0.0
