17

C	-0.487054	0.111771	-1.439616
C	0.0	0.0	0.0
F	-1.806551	0.454808	-1.499012
H	1.103175	0.0	0.0
C	0.351059	1.102481	-2.207346
H	1.404146	0.827965	-2.127923
H	0.018924	1.112164	-3.24763
H	0.213193	2.095409	-1.778082
N	-0.35107	-1.232758	-2.140943
O	0.617797	-1.911288	-1.829665
O	-1.179061	-1.482327	-3.007398
N	-0.513769	-1.214594	0.723465
O	-1.424693	-1.852635	0.199205
O	0.000683	-1.446355	1.808819
C	-0.441757	1.168383	0.749981
N	-0.779296	2.125579	1.341251
Cl	3.165922	0.0	0.0
