17

C	-0.481328	-0.081188	-1.442052
C	0.0	0.0	0.0
F	-1.808686	0.222841	-1.545621
H	1.106176	0.0	0.0
C	0.340872	0.824337	-2.326597
H	1.400057	0.583636	-2.209023
H	0.016042	0.692831	-3.360455
H	0.177804	1.86078	-2.02768
N	-0.313352	-1.497452	-1.977488
O	0.647983	-2.129528	-1.563562
O	-1.108944	-1.845238	-2.840422
N	-0.515617	-1.104361	0.879631
O	-0.050081	-1.145152	2.010769
O	-1.373296	-1.85454	0.419225
C	-0.445864	1.259819	0.581408
N	-0.80518	2.285307	1.027156
Cl	3.169461	0.0	0.0
