17

C	-0.316894	0.002992	-1.498137
C	0.004225	-0.10402	0.004041
Cl	-0.008127	-1.853788	-2.1244
H	1.019404	-0.530424	0.063624
C	-1.775523	0.23153	-1.825736
H	-2.404951	-0.582645	-1.466378
H	-1.903515	0.322407	-2.907368
H	-2.064796	1.169222	-1.345124
N	0.535464	0.905683	-2.062668
H	1.468775	1.031098	-1.597079
H	0.500455	0.99249	-3.066363
C	-0.929529	-1.000824	0.688215
N	-1.667726	-1.681773	1.297575
N	-0.056619	1.233285	0.600707
H	-0.035208	1.114108	1.610867
H	0.865858	1.631892	0.346635
H	2.545739	1.335663	-0.414845
