17

C	-0.462989	-0.087236	-1.545477
C	0.158733	-0.071947	-0.127907
Cl	0.431095	1.242118	-2.497207
H	1.253142	-0.018725	-0.209684
C	-0.212363	-1.370029	-2.31202
H	0.856811	-1.587239	-2.352068
H	-0.734394	-2.191434	-1.817967
H	-0.582117	-1.277224	-3.336274
N	-1.841487	0.204504	-1.420686
H	-1.901019	1.012015	-0.800496
H	-2.252662	0.418828	-2.320906
C	-0.18492	-1.33518	0.538125
N	-0.465876	-2.336432	1.087344
N	-0.272213	1.093605	0.62026
H	0.6825	1.52818	0.929981
H	-0.740223	0.798405	1.470946
H	2.086046	1.659234	1.180853
