17

C	-0.212134	-0.005231	-1.429127
C	0.035655	0.04883	0.075075
Cl	-2.056405	-0.16004	-1.703067
H	1.134277	0.083038	0.124484
C	0.216166	1.288896	-2.094106
H	-0.306583	2.154094	-1.688143
H	1.293558	1.372857	-1.911484
H	0.039678	1.219074	-3.171262
N	0.445217	-1.174307	-1.897637
H	0.457714	-1.164175	-2.913688
H	1.448508	-1.053013	-1.569371
C	-0.399449	-1.196547	0.731823
N	-0.778386	-2.099304	1.382629
N	-0.536903	1.237106	0.69767
H	-1.541989	1.11816	0.766621
H	-0.170258	1.316747	1.638736
H	2.789144	-0.388044	-0.864114
