17

C	-0.469771	-0.165511	-1.537592
C	0.152833	-0.082245	-0.122592
Cl	0.425862	1.114166	-2.55319
H	1.2466	-0.037498	-0.207933
C	-0.22173	-1.484694	-2.240559
H	-0.591904	-1.441205	-3.267945
H	-0.745052	-2.280095	-1.706903
H	0.847066	-1.705404	-2.27038
N	-1.847732	0.134264	-1.425986
H	-1.905008	0.970534	-0.844821
H	-2.259233	0.306206	-2.335107
C	-0.195628	-1.309754	0.604855
N	-0.47975	-2.280694	1.204549
N	-0.274798	1.120169	0.566871
H	-0.737105	0.86884	1.434625
H	0.681931	1.570636	0.848996
H	2.085164	1.714462	1.088496
