17

C	-0.244647	0.146422	-1.4121
C	0.030552	0.037805	0.084165
Cl	-2.09505	0.018684	-1.665651
H	1.128422	0.071617	0.119482
C	0.169734	1.506512	-1.940782
H	1.250477	1.573073	-1.771648
H	-0.02827	1.554296	-3.015338
H	-0.345168	2.32098	-1.432581
N	0.403141	-0.962753	-2.01725
H	0.399903	-0.840476	-3.026016
H	1.41244	-0.87922	-1.693523
C	-0.387994	-1.274188	0.609267
N	-0.737474	-2.24741	1.168486
N	-0.534408	1.148478	0.842295
H	-0.151287	1.126788	1.779878
H	-1.537838	1.019035	0.915076
H	2.765265	-0.302986	-0.950338
