18

C	-0.406301	-0.049221	-1.476287
C	0.0	0.0	0.0
F	-1.731497	-0.497281	-1.61019
H	1.103054	0.0	0.0
C	-0.382073	1.306432	-2.062004
N	-0.366169	2.381242	-2.533018
C	0.497523	-0.966099	-2.279269
H	0.20318	-0.957298	-3.331014
H	1.536368	-0.648844	-2.165509
H	0.408276	-1.983507	-1.896689
C	-0.497768	-1.232718	0.738647
H	-1.583612	-1.191977	0.847823
H	-0.224099	-2.155871	0.227124
H	-0.0348	-1.262172	1.728433
N	-0.569504	1.196529	0.638288
H	0.023187	1.987154	0.402151
H	-0.472542	1.077962	1.641406
Cl	3.492977	0.0	0.0
