18

C	-0.430378	0.01424	-1.470043
C	0.0	0.0	0.0
F	-0.159722	-1.234359	-2.043591
H	1.100949	0.0	0.0
C	-1.896672	0.198055	-1.561656
N	-3.06351	0.322882	-1.616671
C	0.317564	1.066565	-2.260657
H	1.386927	0.884382	-2.126083
H	0.051792	1.001424	-3.318347
H	0.070192	2.054565	-1.873756
C	-0.518366	-1.220288	0.742369
H	-0.203472	-2.141329	0.251071
H	-0.111468	-1.218434	1.756423
H	-1.614214	-1.210285	0.802212
N	-0.433111	1.274216	0.583715
H	-1.222136	1.132219	1.202473
H	0.331916	1.660232	1.122994
Cl	3.46143	0.0	0.0
