18

C	-0.432595	0.018934	-1.46906
C	0.0	0.0	0.0
F	-0.172199	-1.228338	-2.046121
H	1.100977	0.0	0.0
C	-1.897254	0.213943	-1.562325
N	-3.062694	0.347119	-1.619813
C	0.319896	1.067876	-2.256249
H	1.38844	0.874773	-2.126214
H	0.04528	1.008488	-3.312494
H	0.084881	2.057367	-1.86388
C	-0.514458	-1.223317	0.740559
H	-0.112227	-1.216665	1.756289
H	-1.61063	-1.221737	0.796477
H	-0.190592	-2.143328	0.25317
N	-0.430393	1.272916	0.584557
H	0.325179	1.65187	1.139125
H	-1.23523	1.13923	1.183299
Cl	3.463365	0.0	0.0
