18

C	-0.441957	0.005831	-1.476594
C	0.0	0.0	0.0
F	0.048042	1.171883	-2.069728
H	1.09657	0.0	0.0
C	0.12859	-1.136846	-2.21347
N	0.501631	-2.064095	-2.830239
C	-1.948618	0.011589	-1.695731
H	-2.402351	-0.915597	-1.343574
H	-2.397184	0.8569	-1.170614
H	-2.156101	0.1235	-2.76156
C	-0.505549	-1.231732	0.733604
H	-0.250357	-2.154132	0.207032
H	-0.02894	-1.255565	1.713591
H	-1.590732	-1.196945	0.88318
N	-0.394183	1.208094	0.712761
H	-1.366938	1.442907	0.55783
H	0.181448	1.974484	0.391036
Cl	3.459457	0.0	0.0
