18

C	-0.44204	-0.000682	-1.477374
C	0.0	0.0	0.0
F	0.053333	1.158343	-2.078394
H	1.096592	0.0	0.0
C	0.120704	-1.152445	-2.208665
N	0.498706	-2.077018	-2.825123
C	-1.949663	0.011287	-1.694165
H	-2.390975	0.864472	-1.175896
H	-2.40828	-0.908966	-1.331549
H	-2.160014	0.114972	-2.759896
C	-0.502939	-1.229576	0.739181
H	-1.589215	-1.2017	0.882724
H	-0.030897	-1.242707	1.721525
H	-0.237241	-2.15407	0.219966
N	-0.39553	1.20993	0.708861
H	-1.371484	1.43749	0.558647
H	0.170171	1.980407	0.373732
Cl	3.461599	0.0	0.0
