15
Coordinates from ORCA-job run
  C   0.52108768366309      0.30721073531645     -0.22693764601162
  C   -0.59274593944428     -0.56044024348093      0.38839717161672
  F   -0.00375440542843      0.82525170082147     -1.42768127053766
  H   -0.17602345967167     -1.01830454340547      1.29121336159146
  N   0.85672853964528      1.35608515583702      0.67557137054846
  H   1.64690134927619      1.88046562332443      0.32078016569105
  H   0.07943725377878      1.99104470027471      0.81917001295090
  N   1.63323279247463     -0.49765058334229     -0.62171568297907
  H   2.26150730668600      0.04975321949158     -1.19742216491508
  H   2.12778779099108     -0.83247561834861      0.19450942995305
  N   -1.00605491972866     -1.60198318073614     -0.53142871296074
  H   -1.20947578243397     -1.18701614889181     -1.43231163396136
  H   -1.84559082140551     -2.05424788859193     -0.19148557185760
  C   -1.69575319924701      0.33000751947587      0.81236981011818
  N   -2.59928418915553      1.01229955225565      1.12597136075330
