15
Coordinates from ORCA-job run
  C   0.61801087540047      0.28743708627352      0.33139646139122
  C   -0.70228962839088     -0.49546192689360      0.33834805920034
  F   0.96432001402292      0.51007215085538      1.66787034357378
  H   -0.51021002441590     -1.43337804486487      0.88316010350409
  N   1.61290350903162     -0.54420771016079     -0.29073534618952
  H   2.42692886347421      0.00653990195349     -0.53474188887311
  H   1.90497737006470     -1.27380246488326      0.35090700391323
  N   0.41385342068335      1.54613190980622     -0.28491477176033
  H   1.27747556426983      2.05582242686244     -0.41573199903817
  H   -0.07678409123206      1.42025431095856     -1.16054288455047
  N   -1.12189063434101     -0.67657190489581     -1.04652014781999
  H   -2.03003851063918     -1.12122630604073     -1.09061017005816
  H   -0.43710926230752     -1.26584465525584     -1.50524001760329
  C   -1.73397565941620      0.23361575453075      1.08252154449702
  N   -2.60517180620436      0.75061947175455      1.67383370981337
