15
Coordinates from ORCA-job run
  C   0.67423406220868      0.22878165963180      0.33123904193782
  C   -0.59915763480495     -0.62520331967574      0.40830983935913
  F   0.97742945629454      0.61706442648054      1.64069062521042
  H   -0.37119947884680     -1.45959405732000      1.07571200917364
  N   1.73605806194071     -0.59910976661394     -0.12618440026718
  H   1.44499778627208     -1.06953133889094     -0.97347414493362
  H   2.57986453577597     -0.06311256049412     -0.28568977880496
  N   0.41267260127081      1.38305218732993     -0.47690738339964
  H   1.27790493856766      1.85218864949354     -0.71443391116653
  H   -0.18049700990780      2.03796532543693      0.02218826779784
  N   -0.88894819728539     -1.13616259892626     -0.92170061134035
  H   -1.14363611227905     -0.35964717165787     -1.52119002144896
  H   -1.65602333329003     -1.79586689384321     -0.89323136790314
  C   -1.68842224963215      0.17266238035779      1.00472478804681
  N   -2.57627742628430      0.81451307869152      1.42794704773868
