15
Coordinates from ORCA-job run
  C   0.67505407053871      0.23512538911658      0.18544512822956
  C   -0.72138987898192     -0.35892523081082      0.43691723344302
  F   1.50826464254508     -0.40854747952642      1.14150708166719
  H   -0.86715914691305     -0.39069394169472      1.52128753031303
  N   1.11108331658990     -0.09815142761478     -1.12723309921520
  H   1.51914900031843     -1.02345309204758     -1.11968836771906
  H   1.77598632177889      0.57484816806173     -1.48260501888233
  N   0.68339216561408      1.63766909400861      0.37912456002566
  H   0.24538158773537      1.88597287365035      1.25710275898947
  H   1.63778470670577      1.97782039518312      0.39354927081943
  N   -0.74794126727950     -1.72319015823552     -0.06778936887139
  H   -0.84842274852492     -1.69581947194207     -1.07564739084053
  H   -1.54169059220250     -2.22080746763703      0.31477386143586
  C   -1.76880216744657      0.50039303607965     -0.14667773237410
  N   -2.66069001047780      1.10875931340889     -0.60906644702060
