15
Coordinates from ORCA-job run
  C   0.69540035944384      0.36597188099095      0.19525411870082
  C   -0.50487851037134     -0.56991848785275      0.45995666670286
  F   1.09918237312254      0.82003647194046      1.45779807990698
  H   -0.16641657364178     -1.33259768345699      1.16709307195999
  N   1.83066569222660     -0.28889061448215     -0.37982762857289
  H   1.50676205559129     -0.88686840131685     -1.13142400487148
  H   2.27111794962506     -0.86437690081714      0.32724374410980
  N   0.28671074574439      1.41351722019562     -0.66353211139638
  H   1.10173513598392      1.92759034852008     -0.97180479430546
  H   -0.36970131181632      2.03482739091396     -0.20645680234721
  N   -0.86169511055692     -1.21061727904035     -0.79544562930160
  H   -1.59347103868565     -1.89564370808671     -0.65404593032799
  H   -1.19602340070081     -0.50276047306065     -1.43929760929470
  C   -1.60303036743689      0.18749481554942      1.09113471696167
  N   -2.49635799852793      0.80223542000306      1.54335411207560
