15
Coordinates from ORCA-job run
  C   0.69411100731574      0.33556113857931      0.24949603220159
  C   -0.53038428103508     -0.59538983635925      0.39248652934920
  F   1.05785351120508      0.67433581887515      1.55988995200733
  H   -0.23102607245062     -1.41958079563100      1.04621150624302
  N   1.83920591629878     -0.29067642485330     -0.33726621918182
  H   2.23984887250989     -0.93692160464129      0.33131116846370
  H   1.53503875027250     -0.81166109292731     -1.15174875475040
  N   0.33532262956159      1.45839048729617     -0.53232603313347
  H   -0.33132260967383      2.04990456831822     -0.05123672747298
  H   1.16868834117338      1.98316261928223     -0.76387633180257
  N   -0.85168590846469     -1.12439038642684     -0.92265894732702
  H   -1.59480502708781     -1.80911664555678     -0.86310277840343
  H   -1.15560934179944     -0.36215026874619     -1.51743049090645
  C   -1.63858506618424      0.12890995460610      1.04516232667942
  N   -2.53765072164121      0.72162246818480      1.51508876803387
