15
Coordinates from ORCA-job run
  C   0.76104381394519      0.05853523190776     -0.11470193988280
  C   -0.62352797491143     -0.57125213597992      0.15808761722838
  F   1.30785088258653     -0.81690950047645     -1.08568822130595
  H   -0.46151769924397     -1.55581732565520      0.62510355571571
  N   0.73898596603243      1.35081027004689     -0.70585171431197
  H   0.46832208023621      2.03524253880511     -0.01118721562408
  H   0.06617221965619      1.35746070685877     -1.46331307843180
  N   1.52955975652353      0.10056306859669      1.06633569095623
  H   1.66659106991122     -0.82309023581424      1.45447694850704
  H   2.42745651017615      0.52446999295446      0.86791920686870
  N   -1.35005125122988     -0.62898680590452     -1.10608108266930
  H   -2.30823283493008     -0.91614759204778     -0.95191989494616
  H   -0.90022114967650     -1.31051976059274     -1.70464669281783
  C   -1.35807255407265      0.26713269941309      1.10767711512090
  N   -1.96335883500294      0.92850884788809      1.86478970559290
