15
Coordinates from ORCA-job run
  C   0.48444731611507      0.31102257339054     -0.30386536272182
  C   -0.68483495441379     -0.44726190557205      0.37763690923977
  F   0.04160012512136      0.62937273980351     -1.57524765951707
  H   -0.32270258503508     -0.79228514177898      1.35538288924529
  N   0.87403495240628      1.56206623157222      0.28653949049567
  H   1.22579813322741      1.42790012552838      1.22579986676866
  H   0.09541965895500      2.21090269116855      0.31326862814367
  N   1.57482514425452     -0.60839037809609     -0.45166844147930
  H   2.32546396089919     -0.12900903382762     -0.93705542111941
  H   1.91996933381322     -0.90194353217208      0.45467239138364
  N   -1.18372121117850     -1.59732003041283     -0.35743261036160
  H   -1.55744672082528     -1.27057503351311     -1.24183118830623
  H   -0.38534269787848     -2.18241625031613     -0.57979833035474
  C   -1.77911025828633      0.49872291318302      0.62865918275439
  N   -2.62840019717461      1.28921403104269      0.80393965582907
