15
Coordinates from ORCA-job run
  C   0.59220503693272      0.33712814403310     -0.05290584144550
  C   -0.65176270536686     -0.46061331375044      0.35645978904632
  F   0.27200750915662      0.83530906689177     -1.36693987031019
  H   -0.42037801771524     -0.90242216312248      1.32838666388695
  N   0.80829218688453      1.42220931337248      0.83078424057123
  H   0.19579541400819      2.19508468439035      0.60457753003407
  H   1.77121618035634      1.72904823753675      0.81164181427645
  N   1.70409459053075     -0.52929737845146     -0.10339815063385
  H   1.42936629877966     -1.37799308746871     -0.58401580888759
  H   2.46842172003737     -0.09177450043420     -0.60364834868559
  N   -0.87908512239106     -1.52272241369264     -0.61200115840242
  H   -1.18705473327629     -1.11549883353354     -1.48702819834821
  H   -1.59676430255281     -2.15588461150595     -0.28286768738866
  C   -1.79054897359421      0.46146633920802      0.52534451497411
  N   -2.71580508178966      1.17596051652696      0.63661051131287
