15
Coordinates from ORCA-job run
  C   0.59663927218040      0.17296916205752      0.21436121926074
  C   -0.73812272442495     -0.58531674610600      0.37887013710800
  F   1.02973958333005      0.45529240430348      1.54213801393948
  H   -0.52867053596047     -1.45406878413116      1.01284579991506
  N   1.53649290990434     -0.68235700116551     -0.42784159809673
  H   1.91689683927281     -1.33270482666365      0.24827256478569
  H   2.29917555633618     -0.15820929866341     -0.83716522435034
  N   0.40548223228425      1.36359913317555     -0.52597191603810
  H   1.28103777783315      1.85783708121724     -0.64990072963294
  H   -0.23571300939543      1.97668415652684     -0.03638319071419
  N   -1.32792956294894     -1.04417557822474     -0.86473128655728
  H   -0.62789234451323     -1.60944684196547     -1.33293623667368
  H   -1.48754803327223     -0.23641976531752     -1.45729675445445
  C   -1.68987379010890      0.27049947322463      1.09864051234020
  N   -2.42971417051698      1.00581743173219      1.63609868916854
