15
Coordinates from ORCA-job run
  C   0.56571832247682      0.43090027683317     -0.18367011534621
  C   -0.55877795837938     -0.49840932963052      0.32276679295919
  F   0.03200604769034      0.97803089371145     -1.37389221020719
  H   -0.16641457425491     -1.01707260156235      1.20165142952035
  N   0.87853309182131      1.41805340614970      0.77525715093841
  H   1.63411876930609      1.99186131957079      0.42078024206344
  H   0.07869240519162      2.00410678816015      0.97840659212541
  N   1.75926723452504     -0.24835513870002     -0.55914300870877
  H   2.25785885257284     -0.53541162841546      0.27288799243320
  H   1.51686476288366     -1.06489190060263     -1.10747933052341
  N   -0.84568278582083     -1.47847707650440     -0.71318033611640
  H   -1.47080928265278     -2.19309941371288     -0.36286092122116
  H   -1.29475518522513     -1.01645367698530     -1.49474673146130
  C   -1.72726446593490      0.29652749986075      0.74670817734143
  N   -2.65935523419978      0.93169058182752      1.07551427620302
