15
Coordinates from ORCA-job run
  C   0.62120538842543      0.38045219327174     -0.12497662983172
  C   -0.62715124244685     -0.43206750392852      0.28342783892620
  F   0.33533697090436      0.78267962468361     -1.45328459046195
  H   -0.44241999975712     -0.80936034017543      1.29321905900799
  N   0.86915540293372      1.58842472083141      0.58731362391455
  H   1.12184165252432      1.39173009682839      1.54527329466240
  H   0.07988925159182      2.21940135420785      0.54392606893323
  N   1.74916000349880     -0.45428466964615     -0.02713832274937
  H   1.57683238217250     -1.33034741628383     -0.50308797382708
  H   2.55956266112897      0.01883089269346     -0.40497589281886
  N   -0.77525535295343     -1.56707615522088     -0.61567386141893
  H   -1.03703504294821     -1.22966062909735     -1.53434036244849
  H   -1.49946230644548     -2.19283544282736     -0.28604192733371
  C   -1.79710313169116      0.46553746042999      0.33301892321048
  N   -2.73755663693770      1.16857581423307      0.36334075223522
