15
Coordinates from ORCA-job run
  C   0.68106859399655      0.22135634741227      0.32262247505386
  C   -0.60039158116144     -0.61886576244699      0.41452506759105
  F   1.00588844283338      0.60222890159244      1.62914405183496
  H   -0.37351788963876     -1.45749160597116      1.07704816313749
  N   1.72766841162356     -0.61642371419616     -0.15170194510642
  H   1.41959100895177     -1.08141155582454     -0.99598593724804
  H   2.57497399151020     -0.08926108869638     -0.32157961250044
  N   0.42095553007692      1.38090154301102     -0.47862172119574
  H   -0.15556089161282      2.04190591298350      0.03185357600150
  H   1.28807342717731      1.83960300811020     -0.72925301426338
  N   -0.91307472509262     -1.12370998962826     -0.91289057124348
  H   -1.17089585168720     -0.34385856234522     -1.50663724923522
  H   -1.68465422100964     -1.77767078352945     -0.87475395274732
  C   -1.67285216584436      0.18878653716073      1.02694489595830
  N   -2.54827208012282      0.83491081236795      1.46928577396292
