15
Coordinates from ORCA-job run
  C   0.71625670514302      0.12322219819231      0.35402641955220
  C   -0.77408918859171     -0.29687200258502      0.31860702426946
  F   1.29506755277491     -0.82644940311794      1.19762534799635
  H   -1.16641215041977     -0.16532569847388      1.33670262909068
  N   1.41170467290071      0.00680817328558     -0.88939329844532
  H   1.19865458888475     -0.88746644772774     -1.31792300482857
  H   1.12737550600131      0.74717107441995     -1.51798554408951
  N   0.84899632960229      1.40016215528509      0.96366816814742
  H   0.17429721155133      2.06681408200183      0.61317488439194
  H   1.78691404997465      1.75091453818428      0.81373039207220
  N   -0.84589978921235     -1.66306498602515     -0.18799281563444
  H   -0.41923367341342     -2.27391787198992      0.49844053384141
  H   -1.81115150295961     -1.94454082959255     -0.30627864594876
  C   -1.49853198486084      0.60515142674123     -0.57970324387471
  N   -2.04494832737524      1.35539359140191     -1.29869884654031
