15
Coordinates from ORCA-job run
  C   0.61265910737243      0.29372869544355      0.33593875093357
  C   -0.70838272943252     -0.48834024838138      0.33639717187302
  F   0.93749027827236      0.54117216820884      1.67343828280065
  H   -0.52602557020859     -1.41661343163130      0.90063490730703
  N   1.61692840974722     -0.55045960250649     -0.25367537144114
  H   1.89923618890716     -1.26615898453951      0.40770061444578
  H   2.43471449735852     -0.00450437329583     -0.49600319921094
  N   0.41916695060332      1.53994009273283     -0.30826934680237
  H   -0.06647698179613      1.39754580728744     -1.18422034774009
  H   1.28594025214744      2.04267829900871     -0.44479592265265
  N   -1.10597988842056     -0.69454704510241     -1.05193461780223
  H   -0.41311625268608     -1.29125910741337     -1.48852198145167
  H   -2.01231662976237     -1.14248860076600     -1.10143342867284
  C   -1.75104198834671      0.25376369280729      1.05128546808012
  N   -2.62479564375547      0.78454263814760      1.62645902033378
