15
Coordinates from ORCA-job run
  C   0.53807785676136      0.44163171194247     -0.23470010670009
  C   -0.51828722718282     -0.50338364295140      0.37804714259003
  F   -0.08761942918842      0.92172958913960     -1.40863814417994
  H   -0.05277155075369     -0.97298648333175      1.24872842118979
  N   0.87425692264887      1.47647807946593      0.66413678498468
  H   0.06853311341882      2.04445518474156      0.89371603114573
  H   1.58634097923669      2.05965294879218      0.24141095636590
  N   1.72975664532286     -0.21176365799988     -0.65901107315333
  H   2.28832003446305     -0.45036540852030      0.14989247272562
  H   1.48365829671874     -1.05612987534499     -1.16158036609336
  N   -0.83598197114883     -1.53288750646236     -0.59911514996339
  H   -1.41373837342951     -2.25184211764424     -0.18251778006586
  H   -1.34881441891562     -1.11687885861431     -1.36722334473110
  C   -1.68598137557074      0.26907479053676      0.84465541223822
  N   -2.62574950238080      0.88321524625074      1.19119874364710
