15
Coordinates from ORCA-job run
  C   0.70291382272326      0.23705651429942      0.27594765808430
  C   -0.66159291401787     -0.48786197260985      0.33960550722237
  F   1.05128444957737      0.49809704025415      1.60455954175859
  H   -0.52357227399773     -1.40863492138321      0.92897535113044
  N   1.62876858556625     -0.62610479877894     -0.36673127215991
  H   2.47216389572531     -0.10422383337011     -0.56991840261937
  H   1.84888292575666     -1.41976951284893      0.22276943941982
  N   0.69256991574477      1.49427054726414     -0.40225043129746
  H   0.21083750835599      2.17657279463116      0.17088961952435
  H   0.18428474722466      1.38505903758130     -1.27256208632331
  N   -1.11091588949086     -0.69957699263557     -1.03040971736698
  H   -2.01910047631774     -1.14611095918775     -1.04645312817229
  H   -0.43540964520042     -1.29577045072780     -1.49371595451473
  C   -1.62854811695461      0.35457289235410      1.04892310558211
  N   -2.41056653469505      1.04242461515789      1.58937076973206
