15
Coordinates from ORCA-job run
  C   0.56444470126242      0.38862144701284     -0.10746321167958
  C   -0.66664267273376     -0.41855345336130      0.33966765009266
  F   0.14629493271392      1.15679549822752     -1.22936790375625
  H   -0.40885026111508     -0.83400968448927      1.32044204922218
  N   1.00265925654911      1.24036127139997      0.94018695677425
  H   0.27278352095148      1.90751450249830      1.16258980250294
  H   1.81702364112322      1.76661929789226      0.64521595253351
  N   1.57385476562549     -0.52972870149076     -0.49149007652344
  H   1.27860541278081     -0.96655004895487     -1.35625198030821
  H   2.45635297559918     -0.05673500061930     -0.64206627962165
  N   -0.96200793074198     -1.45150041287797     -0.65347690979950
  H   -0.59093222999265     -2.33575561074360     -0.33324758221665
  H   -1.95657258643208     -1.55557312588163     -0.79717551933993
  C   -1.80791792385886      0.48287529115123      0.52075624353091
  N   -2.71909560173122      1.20461873023658      0.68268080858880
