15
Coordinates from ORCA-job run
  C   0.60389169287724      0.11637902806179      0.26822600141634
  C   -0.83991457927701     -0.39789003400205      0.46141998371328
  F   1.42287146748440     -0.71994627497684      1.00644884470371
  H   -1.08154393905882     -0.26004560240765      1.51942679625764
  N   0.99960642006476     -0.10299531443357     -1.10761133356586
  H   2.01065408807626     -0.13153371497232     -1.16816453294900
  H   0.65664879395874      0.64531339762650     -1.69775967547298
  N   0.73518969794912      1.42351993927015      0.84179283824788
  H   1.67345322545679      1.77900948023436      0.69993871906289
  H   0.07342341518236      2.07066803302799      0.43111396442001
  N   -1.03264414793991     -1.78758096677715      0.10237700233858
  H   -0.53148256143696     -2.35740283453072      0.77337126813391
  H   -0.59856365206554     -1.93544159202458     -0.80322244019684
  C   -1.72782964498984      0.46331677334096     -0.33232832947745
  N   -2.36276027628160      1.19462968256311     -0.99602910663209
