15
Coordinates from ORCA-job run
  C   0.73016431100622      0.13384446563299      0.31912899674596
  C   -0.75470959205054     -0.27530584251695      0.46968335164566
  F   1.40557983691812     -0.47213977457119      1.35013488148229
  H   -1.09069151350142      0.10654981279294      1.43980629728770
  N   1.23326134944064     -0.41175469173556     -0.90830185488062
  H   0.78442409446511      0.02474383833992     -1.70575835633767
  H   2.22665734193221     -0.21412814405305     -0.95408896586869
  N   0.98944474100421      1.54187369462910      0.46173864481663
  H   0.67469442701517      1.88050478745102      1.36350837027905
  H   0.54253464659172      2.07669685784885     -0.27172273573145
  N   -0.89293053149138     -1.71521361910279      0.44902060269372
  H   -1.86643103585793     -1.98725105917760      0.40238290798170
  H   -0.39673692758806     -2.08207666274321     -0.35399324088944
  C   -1.50796351866647      0.43571727102727     -0.58859904308344
  N   -2.07729762921762      0.95893906617823     -1.47393985614138
