15
Coordinates from ORCA-job run
  C   0.59830192733091      0.19591328929789      0.19107884199374
  C   -0.71435123099678     -0.58094672647533      0.43052975406099
  F   1.05936611996160      0.55637134657765      1.48931641933190
  H   -0.46752996653210     -1.40922551118640      1.10389301408240
  N   1.54145858054701     -0.67311104234228     -0.42974990431693
  H   1.97829255991820     -1.25486431987296      0.27412004965571
  H   2.26126437151361     -0.15567851857911     -0.91734288366927
  N   0.36308577715019      1.34061608220513     -0.60712346632815
  H   1.22142994330416      1.85772145120795     -0.75660474978450
  H   -0.29755077655255      1.95529700692750     -0.14605060688285
  N   -1.32283764028175     -1.12062788273796     -0.77086636672127
  H   -0.61819645438085     -1.69050275184855     -1.22661676657664
  H   -1.52155133643511     -0.35084175361396     -1.40089481872032
  C   -1.66830505274908      0.29085022793805      1.12788892164542
  N   -2.41187682179743      1.04002910250237      1.64042256222976
