15
Coordinates from ORCA-job run
  C   0.64964297686335      0.24672267361876      0.13926398989252
  C   -0.67403085502910     -0.48260597918310      0.41713597425161
  F   1.10721452188691      0.65801157416681      1.41882818600464
  H   -0.41196157858768     -1.32682432366682      1.07344866777454
  N   1.58413395319910     -0.68121800004283     -0.41542253196760
  H   2.23355563375224     -0.20733994647305     -1.02782903312996
  H   2.08359143616030     -1.16805030792919      0.31770781325099
  N   0.48306791191464      1.35111008349967     -0.72924619824067
  H   -0.43071798024871      1.77297721374188     -0.63513541298131
  H   1.19697688835619      2.04419618591061     -0.54231110818955
  N   -1.28416934894270     -0.85610568476579     -0.84813881917579
  H   -0.57028180309412     -1.31937639524037     -1.40004513217246
  H   -2.04601656865769     -1.50399363016157     -0.68957169243056
  C   -1.58726521574453      0.39000312982009      1.16838729067852
  N   -2.33273997182818      1.08249340670497      1.75292800643505
