15
Coordinates from ORCA-job run
  C   0.61488975388829      0.39009018072893     -0.12773192935809
  C   -0.61586638324263     -0.44667425201597      0.28522960696442
  F   0.29737238462140      0.82343844373476     -1.43855310486982
  H   -0.40626846264032     -0.84729937936806      1.28105969413534
  N   0.86459343618124      1.58227042478347      0.61082119469001
  H   1.13239599188464      1.36350411062777      1.55993178309323
  H   0.06898456964244      2.20664034557152      0.59534295433444
  N   1.75352784784920     -0.43397315707586     -0.07421451619994
  H   2.55164270931965      0.05921295462211     -0.45254123753237
  H   1.58267657613048     -1.29842212962142     -0.57139743158849
  N   -0.77063532549943     -1.55956712875053     -0.63976449753731
  H   -1.48053293346887     -2.20224782118696     -0.31154154008416
  H   -1.05597227189932     -1.20165675021183     -1.54354885959940
  C   -1.79425880455863      0.43627993010047      0.38192294029651
  N   -2.74254908820812      1.12640422806160      0.44598494325559
