15
Coordinates from ORCA-job run
  C   0.66672265438867      0.24222005838747      0.20944492746970
  C   -0.72466152388985     -0.38448011766639      0.40232765448179
  F   1.48751979289371     -0.42576908679322      1.16191842210693
  H   -0.89358928431245     -0.46428494064708      1.48077471921962
  N   1.13816142461307     -0.03040559865144     -1.10339732497757
  H   1.83531466261619      0.63984649536634     -1.39766123622179
  H   1.52277307942710     -0.96555918777767     -1.12951421670157
  N   0.64508838222241      1.63523583154954      0.46166331530761
  H   0.20982746063538      1.83303790980936      1.35380096650837
  H   1.59102741363339      1.99776186429169      0.48468112112298
  N   -0.71833870807304     -1.72714175735028     -0.15968145462949
  H   -0.82372058479316     -1.66168244400088     -1.16524028091105
  H   -1.49755153078517     -2.26060752384100      0.20377922979937
  C   -1.77324587872596      0.48092619668359     -0.16940136087370
  N   -2.66432735985028      1.08990230063994     -0.63249448170118
