15
Coordinates from ORCA-job run
  C   0.69688852035593      0.35658251100542      0.20929965768853
  C   -0.50666136749714     -0.58380722328244      0.44062730614701
  F   1.09953237459368      0.76657384011348      1.48701391553900
  H   -0.17106383637739     -1.37089540163679      1.12190504644428
  N   1.83109159312395     -0.28192769616249     -0.38574714267238
  H   1.50696388984502     -0.85033595463750     -1.15987154436439
  H   2.26646496849625     -0.88552587765539      0.30077686082685
  N   0.29298475204719      1.43373378384240     -0.61464221476294
  H   -0.36276854179411      2.04078062942499     -0.13777271571461
  H   1.11018091698773      1.95629916500163     -0.90232523080672
  N   -0.86495749293707     -1.17999620864511     -0.83571446950108
  H   -1.59998035280396     -1.86609020645606     -0.71870823965290
  H   -1.19478074805242     -0.44940421669497     -1.45603480520235
  C   -1.60356164999851      0.15562796561761      1.09550266082712
  N   -2.50033302598913      0.75938489016525      1.55569091520458
