15
Coordinates from ORCA-job run
  C   0.43375713190237      0.30127883160436     -0.21404271020537
  C   -0.67087285326575     -0.50441183936953      0.50463706763712
  F   -0.12030300347830      0.69961318714644     -1.44817064362192
  H   -0.21185205699135     -0.90312809147865      1.41502575014037
  N   0.85623289015620      1.40282699519939      0.56596170891196
  H   0.08349422713275      2.00849757238148      0.81583032551331
  H   1.55645448523427      1.94162347032258      0.07079216574181
  N   1.51611402023014     -0.58995981894690     -0.54845306696148
  H   2.27048557037389     -0.48032250635561      0.11606179063689
  H   1.84731922398348     -0.38895318301756     -1.48233333210495
  N   -1.19865775556235     -1.61066830660390     -0.26965159247346
  H   -0.40838429098025     -2.19044223753197     -0.53153017376848
  H   -1.60305902838300     -1.24644057801493     -1.12489739924830
  C   -1.75917139189745      0.39580093183853      0.90735337456697
  N   -2.58855716845461      1.16368557282618      1.22341673523554
