15
Coordinates from ORCA-job run
  C   0.75879281166898      0.06882953752195     -0.12810423955049
  C   -0.60673092965190     -0.57941716154954      0.19230002280372
  F   1.30845769544751     -0.83077007181294     -1.07516066583506
  H   -0.41472981383682     -1.54241939243736      0.69173154917301
  N   0.69904883418821      1.33718060831945     -0.76648398056307
  H   0.42384083820056      2.04116843630145     -0.09345216273437
  H   0.01423340272707      1.30089280619866     -1.51228202079401
  N   1.54567526657863      0.17132631537100      1.03720377191671
  H   1.71000622072184     -0.73436657882431      1.45593537416922
  H   2.43047167133797      0.60683577934328      0.80738904200976
  N   -1.35398151143455     -0.69919266785100     -1.05538381978400
  H   -0.90089739285593     -1.39424394343397     -1.63572899450742
  H   -2.30333207121240     -0.99881685318580     -0.87287857436491
  C   -1.34386782290420      0.27961180300609      1.12127375834553
  N   -1.96698719897499      0.97338138303298      1.83364093971540
