15
Coordinates from ORCA-job run
  C   0.58100351529344      0.16978385049643      0.17161902535989
  C   -0.84825740075760     -0.35754528704120      0.42161673244052
  F   1.42202649277611     -0.68585555521557      0.91169969640288
  H   -1.09046457982085     -0.18852612481011      1.47787355677172
  N   0.94503580381569     -0.03939156554905     -1.20167983692487
  H   0.65162522540634      0.75087470800548     -1.76209627732275
  H   1.94639886810654     -0.16293812393852     -1.27899430290796
  N   0.69914796514904      1.51506919573244      0.59607287283205
  H   1.63715597239405      1.86455638238552      0.44334724231679
  H   0.45313684982780      1.62573766863143      1.57217843198184
  N   -1.01812602238773     -1.76822276114656      0.13433752727890
  H   -0.42926095934623     -2.29242760049715      0.77064401604055
  H   -0.66671770032200     -1.93312071144496     -0.80367531632975
  C   -1.77948525336792      0.43342418839888     -0.39282161318111
  N   -2.50421877676669      1.06958173599295     -1.06112175475871
