15
Coordinates from ORCA-job run
  C   0.59266357681375      0.33771789075826     -0.05248161905498
  C   -0.64757233351889     -0.46595147982057      0.35685385487133
  F   0.25561143336074      0.86767739921013     -1.34844105316583
  H   -0.40262235412669     -0.93187130872837      1.31402398842291
  N   0.82498091402390      1.40104141021701      0.85397996676760
  H   1.79168810549137      1.69583390747525      0.83791830500924
  H   0.22120701034796      2.18610354879536      0.64724234835493
  N   1.70163226505117     -0.53045111624592     -0.13902648833167
  H   1.41508681281123     -1.36842253826651     -0.63175056256243
  H   2.45618494826271     -0.08469430325827     -0.64703129713045
  N   -0.89366911501329     -1.50458176013719     -0.63234210154992
  H   -1.21823598704010     -1.07724803326010     -1.49164005671451
  H   -1.60511741304388     -2.14547874240814     -0.30460776179811
  C   -1.78098377601685      0.45537452217535      0.56170798845393
  N   -2.70985408740312      1.16495060349370      0.67459448842789
