15
Coordinates from ORCA-job run
  C   0.67852428574194      0.10089468427173      0.22866357159819
  C   -0.79770145109048     -0.33470140505049      0.41659456285710
  F   1.39573179477292     -0.70720968597860      1.09781758363889
  H   -1.05860467542764     -0.10808608269646      1.45655414703234
  N   1.09767202838201     -0.21501851011391     -1.10036547466976
  H   0.54254019531543      0.28328820740006     -1.78629107464603
  H   2.06774967177822      0.05921856539934     -1.20636882194689
  N   0.98726951166453      1.44961899947638      0.61610501426243
  H   0.53541028642707      2.11519212197599      0.00220715221104
  H   0.70700165325700      1.63314413231458      1.57262760884240
  N   -1.07170304255867     -1.73844477694893      0.17108300875773
  H   -0.64839279836624     -1.99143077855475     -0.71570995202726
  H   -0.59457540414433     -2.27599428681418      0.88534917498459
  C   -1.62805075811784      0.51143803388533     -0.45214414870352
  N   -2.21287129763392      1.21809078143393     -1.18512235219126
