15
Coordinates from ORCA-job run
  C   0.51853430061679      0.34924341893038     -0.33369982848891
  C   -0.72180110962097     -0.36159632757392      0.25947347444221
  F   0.17993489643850      0.78544716182387     -1.59066485876028
  H   -0.41970065797296     -0.70745165512477      1.26412009982697
  N   0.95464566370841      1.52294255918967      0.37383187386411
  H   1.19927028636806      1.30600868901826      1.33143580282453
  H   0.23209066679415      2.23416032777833      0.36867470948564
  N   1.55252011083893     -0.63595951007638     -0.49136328980912
  H   2.34683135500805     -0.18095159565022     -0.92836829250995
  H   1.84802920942089     -0.98901483350559      0.41150386382809
  N   -1.17214565063457     -1.41656459416747     -0.62923643558998
  H   -1.74990502466772     -2.08074569732055     -0.13081402040737
  H   -0.35399942520139     -1.88829136783972     -0.99582705108695
  C   -1.78930355803589      0.62954976884161      0.45711643601186
  N   -2.62600106306026      1.43322365567648      0.63381751636919
