15
Coordinates from ORCA-job run
  C   0.46605166236142      0.28896356031887     -0.15499099728722
  C   -0.73675959374238     -0.49357330446527      0.41682939565033
  F   0.03740604306793      0.79636663683462     -1.39983048389285
  H   -0.37846142302420     -0.97123621306875      1.33430151858759
  N   0.88114273858769      1.31154783802878      0.72890358424939
  H   1.64110807355240      1.84469458260427      0.32387335659716
  H   0.12179067680782      1.93902613345644      0.96541700594235
  N   1.52428447206622     -0.64078836757065     -0.45986094539908
  H   1.91828692964592     -0.42597320534769     -1.36560239115677
  H   2.24218222134319     -0.59345028357565      0.25049686086964
  N   -1.25188248105375     -1.52043726822379     -0.46744939255236
  H   -1.55978118630326     -1.08472503035765     -1.32940672660817
  H   -0.47391431870103     -2.13002886250292     -0.69626482635805
  C   -1.80815117324194      0.44161073939134      0.78364313530843
  N   -2.62230264136598      1.23700304447813      1.06994090604961
