15
Coordinates from ORCA-job run
  C   0.57201454713351      0.35495119548027     -0.11959951994747
  C   -0.60438683993459     -0.45623957289539      0.43679928254027
  F   0.14101945406670      0.73644044692154     -1.44076172614652
  H   -0.28717849959348     -0.81258622176035      1.41951381202746
  N   0.79988755060305      1.51313166690937      0.66277774874799
  H   1.74465792501249      1.85473026277573      0.55067001576060
  H   0.13983975913132      2.24162558754916      0.42321641454763
  N   1.71515207239596     -0.46892599260582     -0.18465218750851
  H   1.44548686802023     -1.36255865819715     -0.57902905034272
  H   2.42270086975027     -0.04282842542753     -0.77092832615096
  N   -0.85125040246861     -1.59799029583966     -0.43069454700490
  H   -1.51366658518041     -2.23267466533354     -0.00339821016406
  H   -1.23830943444435     -1.27287748026731     -1.30861954111002
  C   -1.76854054208292      0.43148549823896      0.61696274950855
  N   -2.71842674240916      1.11331665445167      0.72574308524267
