15
Coordinates from ORCA-job run
  C   0.61951908147919      0.37496944902498     -0.14747690645773
  C   -0.61966529301720     -0.42763507240074      0.30619966822045
  F   0.29076270726520      0.77605941526355     -1.46617045157449
  H   -0.40257833544619     -0.80337589119182      1.31011214957431
  N   0.90036365566048      1.58332596642630      0.55219898930189
  H   0.11580360205771      2.22125966513459      0.52894418273221
  H   1.17801364069438      1.38805696566688      1.50357068524576
  N   1.74417162575620     -0.46736960781889     -0.08588757537268
  H   1.55087586448381     -1.34329997410547     -0.55386203025601
  H   2.54528785008113     -0.00029641522517     -0.49005676701482
  N   -0.80669725896376     -1.56360643613202     -0.58407902265777
  H   -1.09528221165864     -1.22604600552761     -1.49465962279703
  H   -1.52533523650848     -2.18221784703814     -0.22964846313289
  C   -1.78081773390991      0.47895129517254      0.39433783359576
  N   -2.71342195797389      1.19022449275106      0.45747733059303
