15
Coordinates from ORCA-job run
  C   0.56169890328625      0.38514821066112     -0.10942469449760
  C   -0.68104595965137     -0.40718184482942      0.33110336465891
  F   0.16893314954292      1.13871774574156     -1.24793339112158
  H   -0.44466913561178     -0.80063202464328      1.32700048113786
  N   0.99435055973645      1.24694440622696      0.93206750974761
  H   0.24802601606126      1.88707154665762      1.17789226196572
  H   1.78016587101482      1.80383630573381      0.61601493216102
  N   1.57177939653500     -0.54622446005706     -0.46613016301105
  H   1.32402935688845     -0.94765389734993     -1.36197250220555
  H   2.47520280302851     -0.09554015445436     -0.53798360066868
  N   -0.95941483880511     -1.45663428338528     -0.64877598971215
  H   -0.52532215636347     -2.31630460520025     -0.33987478229074
  H   -1.95271844190952     -1.61726922815468     -0.74318650432351
  C   -1.82496031357203      0.49885979282030      0.46724635470595
  N   -2.73605521018037      1.22586249023290      0.60395672345377
