15
Coordinates from ORCA-job run
  C   0.61268112682296     -0.02354868195482     -0.14501216879660
  C   -0.72601435444173     -0.61494469986315      0.34622380148633
  F   1.13418211065351     -0.98460852561131     -1.03458475899368
  H   -0.50165393928857     -1.50113685009336      0.95201159014164
  N   0.36602573252231      1.13992185356645     -0.94962777813864
  H   1.10429256514454      1.25030247713126     -1.63285270845912
  H   0.31478855025533      1.96285508170756     -0.36239229437024
  N   1.48612300413386      0.20861197558440      0.94477121420161
  H   1.65610446231297     -0.63547996420993      1.47787806498911
  H   2.36899968120343      0.59104531666495      0.62916030772082
  N   -1.62851607566943     -1.00545305562961     -0.71856058353365
  H   -1.72487631842853     -0.21164640467767     -1.34383577382952
  H   -1.19021705451353     -1.75101747767046     -1.24620395601601
  C   -1.37688741333313      0.37795091158676      1.21041813455408
  N   -1.89503207737396      1.19714804346895      1.87160690904386
