15
Coordinates from ORCA-job run
  C   0.73867602672623      0.23777327449814      0.42011900383299
  C   -0.57047492674701     -0.58424889107933      0.38271514620538
  F   0.93455558662398      0.53262143324912      1.76077943671461
  H   -0.38361508307834     -1.48046798666862      0.98001805501730
  N   1.78416177342042     -0.59893893413337     -0.04584776055915
  H   1.46808314569471     -1.12592189624221     -0.84992023587452
  H   2.59267062783833     -0.03799211867950     -0.28207554282332
  N   0.70501588432446      1.51106937679413     -0.24300954981494
  H   0.59560929968089      1.40242835004808     -1.24160676613042
  H   -0.00867305518998      2.12285378536510      0.13425609479266
  N   -0.85925263805631     -0.98576173449402     -0.99093731333726
  H   -1.32638190746442     -0.23260926528114     -1.48215054489296
  H   -1.48382216765732     -1.78227343821090     -0.99897577724871
  C   -1.65290320133921      0.18864159635887      1.01111823792546
  N   -2.53464936477640      0.83082644847564      1.44651751619288
