15

C	-0.14035	-0.069627	-0.093425
C	-0.950926	-0.297185	-1.354739
F	1.10089	0.489834	-0.423768
H	-1.891888	-0.767488	-1.041669
H	-0.401977	-1.005827	-1.979582
N	-0.821638	0.590921	0.894193
H	-0.203148	1.008067	1.573254
H	-1.643549	1.193128	0.552117
N	0.340965	-1.439988	0.491745
O	1.091518	-1.379708	1.462159
O	-0.081176	-2.487672	0.001995
N	-1.120075	0.972548	-2.054295
H	-1.784334	1.511769	-1.472672
H	-1.594399	0.766107	-2.926529
F	-2.774465	1.860798	-0.136297
