15

C	-0.129318	-0.043565	-0.10726
C	-0.9345	0.003161	-1.39142
F	1.105922	0.589031	-0.300892
H	-1.869509	-0.536836	-1.194109
H	-0.375331	-0.543098	-2.154881
N	-0.820239	0.375797	0.998354
H	-1.648752	1.028572	0.792739
H	-0.207774	0.642707	1.754208
N	0.367551	-1.503596	0.163965
O	1.115001	-1.649899	1.127592
O	-0.040466	-2.422384	-0.546668
N	-1.119111	1.39379	-1.793855
H	-1.791827	1.783486	-1.111173
H	-1.588252	1.379062	-2.692792
F	-2.786577	1.820925	0.265864
