19

C	0.0	0.0	0.0
C	-0.462482	-0.010874	-1.458333
F	1.363505	0.0	0.0
H	-0.077214	0.949671	-1.837416
N	-0.503539	1.02791	0.832647
H	-0.656854	1.86348	0.28192
H	-1.398457	0.739747	1.218739
N	-0.369803	-1.338654	0.663849
O	0.410229	-2.269304	0.487134
O	-1.42404	-1.390236	1.286985
C	-1.980794	-0.030489	-1.586404
H	-2.257463	0.019378	-2.642641
H	-2.486666	0.784192	-1.071282
H	-2.421619	-0.938813	-1.174129
C	0.18136	-1.128299	-2.278256
H	-0.243239	-2.098975	-2.012191
H	1.261251	-1.175403	-2.133234
H	-0.023979	-0.955593	-3.33826
Cl	-5.018772	0.0	0.0
