19

C	0.0	0.0	0.0
C	-0.455482	-0.047117	-1.476721
F	1.359464	0.0	0.0
H	0.481149	-0.246225	-2.008836
N	-0.563762	1.013413	0.769408
H	-0.408391	0.841357	1.755348
H	-1.574157	1.01312	0.61399
N	-0.243336	-1.418639	0.659146
O	0.4104	-2.355026	0.2075
O	-1.041126	-1.485837	1.588893
C	-0.996225	1.307386	-1.939728
H	-1.993973	1.481791	-1.532465
H	-0.334941	2.125888	-1.651499
H	-1.078964	1.296004	-3.030436
C	-1.442206	-1.162532	-1.833472
H	-1.711121	-1.056368	-2.889202
H	-0.999164	-2.1497	-1.698465
H	-2.359072	-1.072097	-1.24921
Cl	-4.109127	0.0	0.0
