19

C	0.0	0.0	0.0
C	-0.431304	0.154542	-1.447986
F	1.400496	0.0	0.0
H	0.25461	-0.501182	-1.992319
N	-0.529424	0.920627	0.89295
H	-1.521376	1.050531	0.709497
H	-0.424424	0.599507	1.845899
N	-0.231994	-1.480642	0.465719
O	0.071189	-2.366487	-0.32511
O	-0.624481	-1.652502	1.616074
C	-0.185581	1.597199	-1.892449
H	-0.90611	2.27617	-1.431878
H	0.820661	1.930776	-1.63134
H	-0.304703	1.66479	-2.976905
C	-1.858206	-0.290023	-1.730627
H	-2.075565	-0.114322	-2.788019
H	-1.997347	-1.354287	-1.538065
H	-2.62556	0.227745	-1.152792
Cl	-4.767817	0.0	0.0
