17

C	-0.420159	-0.021273	-1.443141
C	0.0	0.0	0.0
Br	0.284101	1.485924	-2.400269
H	1.094603	0.0	0.0
N	0.041754	-1.268993	-2.203508
O	0.858138	-1.999851	-1.664758
O	-0.442377	-1.40713	-3.321446
N	-1.946927	-0.074129	-1.574734
O	-2.569691	0.959312	-1.769281
O	-2.426333	-1.183981	-1.350342
C	-0.45483	-1.181753	0.862136
H	0.065432	-1.082139	1.817462
H	-1.533263	-1.201439	1.041652
H	-0.141087	-2.121765	0.414265
C	-0.453953	1.241111	0.60017
N	-0.83828	2.209053	1.148363
F	2.475171	0.0	0.0
