17

C	-0.417595	-0.004186	-1.440527
C	0.0	0.0	0.0
Br	0.539174	-1.320312	-2.462856
H	1.093971	0.0	0.0
N	-1.930031	-0.227487	-1.567413
O	-2.351513	-1.339119	-1.857081
O	-2.602902	0.746496	-1.240681
N	-0.172544	1.328378	-2.152319
O	0.611846	2.103621	-1.62703
O	-0.755797	1.475449	-3.220474
C	-0.42167	-1.279301	0.727824
H	0.048525	-1.264748	1.712324
H	-0.046621	-2.153257	0.194759
H	-1.506079	-1.369241	0.852857
C	-0.494874	1.161063	0.714231
N	-0.868064	2.055494	1.38166
F	2.479076	0.0	0.0
