16
Coordinates from ORCA-job run
  C   0.76403758307373      0.10513706650496     -0.51959824225860
  C   -0.74271724991972     -0.17198701407485     -0.48237216030776
  Cl  1.29849008254328      0.52786299465199     -2.12131283315255
  H   -0.89587032079918     -0.99375688955934     -1.18936310621540
  N   1.57545753744728     -1.11988828317803     -0.09344816434025
  O   1.01366913508502     -2.20374958905641     -0.18233871843045
  O   2.73233717145964     -0.90282653467236      0.23009124659854
  N   1.10954346277992      1.20261183480040      0.49054520173713
  O   1.10083860738193      0.82002409760814      1.65442071654279
  O   1.29427425425185      2.33272731871589      0.07249918920703
  C   -1.43798373875990      1.01034385661373     -0.99686771827599
  N   -2.03804490053366      1.94954475132599     -1.36684458021121
  C   -1.32343961025059     -0.56332233234196      0.88268730447352
  H   -1.29668276815195      0.26923619963377      1.58344963958242
  H   -0.78782099532222     -1.40968581582117      1.30749293986199
  H   -2.36508825028543     -0.85227166115077      0.73195928518877
