16
Coordinates from ORCA-job run
  C   0.73661316596185      0.01624282614040     -0.45464944036192
  C   -0.78186117410597      0.14604968343057     -0.32741417248103
  Cl  1.17720027014463     -0.94418863988951     -1.83860926545529
  H   -1.13284047398737      0.47155529603976     -1.31135045244354
  N   1.29542153666480     -0.57836972115526      0.83873001453341
  O   1.18898388625215      0.17528228606931      1.79808296892880
  O   1.71912618140699     -1.72140636563612      0.82303703078778
  N   1.42213170453470      1.37285376054581     -0.61993553654084
  O   0.74096147983437      2.25390081133482     -1.12563567388150
  O   2.59924125571721      1.42066558498422     -0.29868181474653
  C   -1.17271943484499      1.17600260975020      0.63711790381883
  N   -1.57839514013463      1.96482345626700      1.40665559955988
  C   -1.42615519902243     -1.19482499809560      0.04772633699852
  H   -1.14785293692213     -1.48935076702661      1.06079737890410
  H   -1.13005822843346     -1.98034724097163     -0.64725716682143
  H   -2.51079689306572     -1.08788858178736      0.01338628920077
