16
Coordinates from ORCA-job run
  C   0.77771509657138      0.11220169463264     -0.49639685455119
  C   -0.72935467953236     -0.16505629481926     -0.50508199040420
  Cl  1.35689752694720      0.55632633761537     -2.07669983797204
  H   -0.86172465736969     -0.97897887893897     -1.22523529495105
  N   1.57683497083777     -1.11967626778749     -0.06510282422998
  O   2.72438831698665     -0.90820633417898      0.29321981183893
  O   1.01731038585551     -2.20178874349231     -0.18430237414771
  N   1.09608213432174      1.19472383821149      0.53799989033560
  O   1.29210421485495      2.33077471347453      0.14152888816631
  O   1.05738744347875      0.79571790870640      1.69585476547026
  C   -1.41047610031795      1.02265645293830     -1.02575004195231
  N   -2.00023780526658      1.96574061031759     -1.40225364584621
  C   -1.34779543500942     -0.57226252757370      0.83860864938171
  H   -1.34285228053773      0.25264040289929      1.54884582125188
  H   -0.82223609537227     -1.42192011221951      1.26937876873254
  H   -2.38404303644794     -0.86189279978538      0.65538626887746
