16
Coordinates from ORCA-job run
  C   0.67186104514594      0.36335230767914      0.21860362065676
  C   -0.71578245754008      0.03737999154051     -0.32730440292554
  Cl  0.64929064784301      1.18622298415424      1.74012677675931
  H   -0.56487066130590     -0.32399711588686     -1.34880427077442
  N   1.50079924458208      1.18287207837681     -0.78008268552615
  O   0.93526781838143      1.55872532933390     -1.79719353839989
  O   2.66453123400671      1.36518782676809     -0.45705836463329
  N   1.44062289647669     -0.96492262193570      0.30272575005814
  O   1.63083770937148     -1.47356748275628     -0.79600802887592
  O   1.73584880074668     -1.41018852206822      1.39665423153853
  C   -1.52422628233350      1.25401257041974     -0.38354809036189
  N   -2.22654341397482      2.19468726012056     -0.39773595190548
  C   -1.41350563209657     -1.04143960262953      0.50949151490522
  H   -0.87151103234790     -1.98647324769721      0.45005575386982
  H   -2.41716504498377     -1.20187090740509      0.11447398063354
  H   -1.49645487197149     -0.73898084801410      1.55360370498125
