15

C	0.0	0.0	0.0
C	-0.456625	-0.027526	-1.456596
Cl	1.845821	0.0	0.0
H	-1.545354	0.044878	-1.311255
H	-0.280319	-0.941454	0.471663
N	-0.537879	1.079807	0.750149
H	-0.440078	1.892914	0.145673
H	-1.558138	0.815268	0.701371
N	-0.140839	-1.276327	-2.165954
H	0.619419	-1.758539	-1.69621
H	-0.956689	-1.875144	-2.110659
N	0.016772	1.161758	-2.151473
H	0.962894	0.986754	-2.472405
H	-0.554784	1.269458	-2.97974
F	-2.832905	0.0	0.0
