15

C	0.0	0.0	0.0
C	-0.484027	-0.019918	-1.514254
Cl	1.79478	0.0	0.0
H	0.418713	-0.059962	-2.134395
H	-0.243742	-0.975405	0.435736
N	-0.55142	1.100926	0.731738
H	-1.570432	0.89912	0.627328
H	-0.316258	0.979721	1.712337
N	-1.253141	1.153486	-1.890076
H	-0.807424	1.952259	-1.449702
H	-2.138687	1.019922	-1.392471
N	-1.295269	-1.193311	-1.800537
H	-0.77237	-2.020264	-1.530656
H	-2.093982	-1.087166	-1.159545
F	-2.910493	0.0	0.0
