15

C	0.0	0.0	0.0
C	-0.455225	0.139315	-1.479167
Cl	1.784233	0.0	0.0
H	-1.548799	0.112451	-1.417192
H	-0.310012	-0.990529	0.346031
N	-0.548719	1.089785	0.765891
H	-1.579915	0.89548	0.651511
H	-0.30214	0.957946	1.734983
N	-0.025013	-0.940337	-2.355855
H	0.978576	-1.033889	-2.280582
H	-0.456275	-1.801441	-2.039127
N	0.090124	1.385896	-2.010107
H	-0.05423	2.087152	-1.286954
H	-0.472838	1.644374	-2.811189
F	-2.904615	0.0	0.0
