15

C	0.0	0.0	0.0
C	-0.493995	-0.276574	-1.433618
Cl	1.782308	0.0	0.0
H	-1.573827	-0.121473	-1.338915
H	-0.280165	-0.848016	0.635393
N	-0.573074	1.251244	0.409775
H	-1.59867	0.995777	0.341275
H	-0.355458	1.402149	1.390372
N	-0.149529	-1.645196	-1.827124
H	-0.470563	-1.737877	-2.78533
H	-0.728992	-2.263998	-1.269381
N	0.041524	0.6172	-2.445058
H	1.054725	0.546847	-2.412716
H	-0.196004	1.557464	-2.145971
F	-2.860004	0.0	0.0
