15

C	0.0	0.0	0.0
C	-0.489343	0.60554	-1.364017
Cl	1.805056	0.0	0.0
H	0.401474	0.834273	-1.957779
H	-0.220077	-1.07196	-0.052106
N	-0.542577	0.626539	1.165071
H	-1.561297	0.537794	0.98289
H	-0.336263	0.025923	1.958447
N	-1.218399	1.842431	-1.15304
H	-2.075345	1.533144	-0.681597
H	-1.505832	2.135731	-2.081719
N	-1.304868	-0.34713	-2.124124
H	-2.109403	-0.498802	-1.498189
H	-0.800044	-1.223802	-2.222202
F	-2.924399	0.0	0.0
