15

C	0.0	0.0	0.0
C	-0.614444	-0.125038	-1.358104
Cl	1.879247	0.0	0.0
H	-1.714893	-0.137189	-1.022291
H	-0.234044	-0.889213	0.579563
N	-0.42428	1.16974	0.632841
H	-0.436803	1.942663	-0.016437
H	0.063199	1.371523	1.491284
N	-0.219368	-1.394661	-1.956008
H	0.753651	-1.346117	-2.252192
H	-0.791101	-1.564677	-2.775442
N	-0.331393	1.087553	-2.129858
H	-1.028502	1.189039	-2.856357
H	0.583313	1.012597	-2.566349
F	-2.954251	0.0	0.0
