13
Coordinates from ORCA-job run
  C   0.65058440445329     -0.83477202339002      0.16330470804082
  C   -0.47079793189154      0.11269727030706      0.66373356753769
  F   -0.00960752884249     -2.04012763546571     -0.04183588941360
  H   -0.91712065918205     -0.28734761289401      1.57503864367571
  H   1.35103598115404     -0.97764301147980      0.99031851490695
  N   1.35051072576074     -0.44460338102711     -0.98889298560181
  H   0.79994369017061      0.06511740318141     -1.66324897869777
  H   2.23364476594765     -0.00010147230766     -0.80135947894687
  N   -1.58502813262016      0.14350834459661     -0.35170390682862
  O   -1.32448247251509      0.66149363485134     -1.43492966500329
  O   -2.64433621402335     -0.37226492665403     -0.02259074001936
  C   0.04801477820760      1.45669444482913      0.86760918563886
  N   0.51663859338075      2.51834896545279      1.04555702471129
