13
Coordinates from ORCA-job run
  C   0.91911041652222     -0.12738607104661     -0.04124554907500
  C   -0.48461088488154      0.07459950805213      0.54103011748871
  F   1.70967290653773     -0.52154640771068      1.04511318187416
  H   -0.87189702123140     -0.87370038580100      0.91937388454181
  H   1.31401849541652      0.82378777069201     -0.39947428103570
  N   0.86975812442917     -1.05807560172367     -1.09158490451407
  H   0.60922789996291     -1.98410648626642     -0.77865850421455
  H   1.73443209271842     -1.09718010756804     -1.61182429418588
  N   -1.38947983962731      0.49307867230592     -0.58797334229465
  O   -1.14825807753501      1.58302471690430     -1.09218406825476
  O   -2.25653049490056     -0.30407666921810     -0.92146097490632
  C   -0.49953211120146      1.08934968118068      1.58615913209178
  N   -0.50391150620970      1.90223138019949      2.43272960248448
