13
Coordinates from ORCA-job run
  C   0.45141972303346     -0.73366750109676     -0.26834777065806
  C   -0.45486520198473      0.24461946455558      0.48146301611766
  F   0.26535582347440     -0.47134012101933     -1.63074272107843
  H   -0.47305555061119     -0.02721943940670      1.53909714201698
  H   0.09588248555078     -1.74937675855473     -0.09257212195607
  N   1.78065895261166     -0.58995122893670      0.16894381448710
  H   2.37216475219245     -1.32593937391009     -0.19101212010935
  H   2.16735164391510      0.31063933736325     -0.08684846433408
  N   -1.86942641675095      0.06366299064935     -0.02287298321683
  O   -2.32806246938242     -1.05896800333331      0.15459463558435
  O   -2.43236717483165      1.01616456745053     -0.54316584920820
  C   -0.01007425417332      1.62057591631477      0.30757143658413
  N   0.43501768695638      2.69980014992417      0.18489198577077
