13
Coordinates from ORCA-job run
  C   0.44685838690592     -0.74372852313511     -0.24497511774376
  C   -0.42974848374764      0.27059207172624      0.49217583316512
  F   0.17813096429135     -0.57371051241342     -1.60815044320358
  H   -0.38316746299591      0.06696196284119      1.56416305396107
  H   0.11834682703802     -1.74988573355162      0.01706203700892
  N   1.79675612089451     -0.55551817064755      0.10312949044153
  H   2.37798812088298     -1.30677962663955     -0.24179623182336
  H   2.15413649882205      0.33018486556085     -0.23435322090668
  N   -1.86876511224717      0.04059861796207      0.08417914991624
  O   -2.47519972676097      0.94981484052120     -0.46350720935289
  O   -2.29581097802110     -1.07614455778083      0.35349061917555
  C   -0.01722841379738      1.63725308776595      0.20424461470914
  N   0.39670325873527      2.71136167779060     -0.02566257534727
