13
Coordinates from ORCA-job run
  C   0.48058942383437     -0.72402943806010     -0.08711469110245
  C   -0.36350122313361      0.49475006357658      0.30406226205548
  F   0.03554739680405     -1.16826285275878     -1.30804201489090
  H   -0.02364028860561      0.87406679468857      1.27167970933517
  H   0.29233644467344     -1.52749756188220      0.63460776777673
  N   1.84775107810476     -0.31504690154397     -0.23788459871112
  H   2.33098798712912     -0.98955460012945     -0.81843206120317
  H   2.31200449206859     -0.27395968212014      0.66110431262427
  N   -1.78354244987423      0.02564945668998      0.53448907319412
  O   -1.91172469065658     -0.74105940020134      1.48408821452302
  O   -2.66198423296252      0.41326824764258     -0.22226494110794
  C   -0.30941245184784      1.53740984301471     -0.70925579742678
  N   -0.24341148553393      2.39326603108355     -1.50903723506645
