13
Coordinates from ORCA-job run
  C   0.89130270860197     -0.25856061137458     -0.03941178430632
  C   -0.44411139295247      0.23619447880547      0.52812137791023
  F   1.67312649925374     -0.55809662510027      1.08311264874200
  H   -0.93359364771338     -0.56684160451569      1.08305190996961
  H   1.39130225054441      0.54929195352988     -0.57455680405088
  N   0.67026957100476     -1.34611648191769     -0.89992797404123
  H   0.30473334580976     -2.15585211229271     -0.41591398227103
  H   1.49793952505041     -1.59752811308458     -1.42127314815683
  N   -1.33954345553965      0.56846894327611     -0.63574403802600
  O   -0.98282160375570      1.50849926076780     -1.33549199991349
  O   -2.31874052099959     -0.14830958213765     -0.79770293111217
  C   -0.27411388798480      1.41266781651578      1.37036611147265
  N   -0.13474939131946      2.35618267752809      2.05437061378348
