13
Coordinates from ORCA-job run
  C   0.96819363867574     -0.25460474565690      0.07194622507122
  C   -0.45254349203875      0.07489986826928      0.57305281280411
  F   1.61229281272068     -0.73561569584617      1.20882823648406
  H   -0.92676345787014     -0.84266344921720      0.92741079636349
  H   1.47699786230190      0.66439324345946     -0.22460217854129
  N   0.98140689978399     -1.18729264823928     -0.97144296380086
  H   1.30070784632567     -0.84871475310609     -1.86134606237885
  H   0.19784841116781     -1.81601947485949     -1.04123554785251
  N   -1.24397932012852      0.54336625099579     -0.61411829791304
  O   -0.97394737977819      1.65854402529009     -1.04569942881647
  O   -2.03901509689209     -0.25981733872100     -1.09271994312066
  C   -0.45624396884617      1.09418199677065      1.61172453116886
  N   -0.44595475542196      1.90834272086085      2.45720182053189
