13
Coordinates from ORCA-job run
  C   0.75537513677116     -0.64506300313311      0.25118119715910
  C   -0.48625448695028      0.16066178636793      0.65799641097175
  F   0.26508621243240     -1.94851329072566      0.03501383643976
  H   -0.90088526313986     -0.25759058028402      1.57580662176633
  H   1.41866236705154     -0.71288456639321      1.11657311178826
  N   1.44588400548147     -0.09345947630358     -0.83316310159478
  H   2.30109551074340     -0.59180862099524     -1.03188057584990
  H   0.87287939298053     -0.00406806485629     -1.66047887646604
  N   -1.57380126242976     -0.02256861318204     -0.37826164706943
  O   -1.32122011806391      0.36248644530280     -1.51561864603369
  O   -2.61090882117865     -0.54724088776614      0.00374806896891
  C   -0.20003486002156      1.57983564815895      0.81346400747762
  N   0.03312218632352      2.72021322380961      0.96461959244210
