13
Coordinates from ORCA-job run
  C   0.49525089400508     -0.59553502819850     -0.41393954561403
  C   -0.42647298319636      0.26695245704748      0.45530555013388
  F   0.35027704545583     -0.18609008101001     -1.71713975359727
  H   -0.33722676674504     -0.04246309097942      1.50041576549468
  H   0.14876706082290     -1.63490586914580     -0.36872208392857
  N   1.85539795123443     -0.35947392487255     -0.02849910041688
  H   2.06655829507603     -0.81820936461461      0.84930282526673
  H   2.47208054216187     -0.72991480423839     -0.74141513075528
  N   -1.85565543928532     -0.04764618419104      0.06877124435927
  O   -2.20550369474073     -1.19506369028599      0.32703097988657
  O   -2.52655330632013      0.82453629445747     -0.46378638824123
  C   -0.14082374696096      1.68603653658733      0.30832232034483
  N   0.10190414849238      2.83077674944403      0.22335331706731
