13
Coordinates from ORCA-job run
  C   0.91380889298039     -0.15521244974744     -0.05169471645260
  C   -0.47365763177920      0.10933403216211      0.54413093555786
  F   1.71150903149128     -0.52838408008239      1.03671310682957
  H   -0.88151685432978     -0.81250831050536      0.96399849494687
  H   1.32877158701831      0.76929309879211     -0.45430873446945
  N   0.82076899221497     -1.12568021238103     -1.06283152908560
  H   0.54268484294857     -2.03081780953350     -0.70640638471522
  H   1.67601252598724     -1.21002682848652     -1.59345308351235
  N   -1.38512991316059      0.51230209644873     -0.58476252549986
  O   -2.28145496500234     -0.26989847557098     -0.87348775801063
  O   -1.12077582459021      1.57507751113052     -1.13366423874782
  C   -0.44144388990195      1.16200787839461      1.55066549294539
  N   -0.40857679387668      2.00551354937916      2.36610094021382
