13
Coordinates from ORCA-job run
  C   0.61974780730400     -0.77483949263548      0.40832804635218
  C   -0.48378810785880      0.29981336219414      0.59225470413683
  F   -0.07337289863174     -1.97396911796419      0.51313068195062
  H   -0.96717753513971      0.17463138009912      1.56200553905216
  H   1.29149940547844     -0.70303122827571      1.26783958094066
  N   1.36576877192982     -0.73152685497037     -0.78026764198639
  H   2.24942997968259     -0.25812925470447     -0.69001066928358
  H   0.84726214842124     -0.42068586094798     -1.58812564201439
  N   -1.56871378892461      0.07806976362609     -0.43109243439178
  O   -2.65569934315897     -0.29284675456003     -0.00983658715417
  O   -1.26293047034551      0.27465713349276     -1.60472037404586
  C   0.07206115986636      1.63565328021922      0.43865557686761
  N   0.56791287137687      2.69320364442692      0.31983921957608
