13
Coordinates from ORCA-job run
  C   0.90416613534517     -0.21062739165126      0.00100652759462
  C   -0.49599651138610      0.14198576278615      0.51615751969061
  F   1.61485036921921     -0.62276481916339      1.13501451348215
  H   -0.98122455188977     -0.75029160635792      0.91720220357045
  H   1.39708013449047      0.68383816904239     -0.38105545853353
  N   0.80967252140021     -1.18129758361205     -1.00944043707796
  H   0.45434896841893     -2.06452056557653     -0.66703961902229
  H   1.68696938811978     -1.32295273460681     -1.48938901337827
  N   -1.31688194214142      0.58881938104854     -0.66455635464870
  O   -0.96056350104944      1.63065067988560     -1.20148385164571
  O   -2.23992030165790     -0.14182388035817     -1.00031746860741
  C   -0.45652366894251      1.19962509221280      1.51710679682669
  N   -0.41797703992662      2.04935949635062      2.32579464174936
