13
Coordinates from ORCA-job run
  C   0.47543179351532     -0.69866651528451     -0.31438993037059
  C   -0.46280946242900      0.19830919142264      0.49531199793647
  F   0.27735187418370     -0.35849757962655     -1.65771302984637
  H   -0.46893269889613     -0.14001877255085      1.53370043613892
  H   0.15601849290162     -1.73525148734942     -0.20253141059065
  N   1.79973789305973     -0.53622224775414      0.13122501191236
  H   2.41603016764567     -1.22669262484185     -0.27443500752409
  H   2.15413973284089      0.39178157795508     -0.06683597887059
  N   -1.87116168358024     -0.00066863724437     -0.01946914375244
  O   -2.46544977182018      0.96048602445040     -0.48623893185766
  O   -2.28988683061873     -1.14749184610643      0.08835676006141
  C   -0.06731747214402      1.59736023898428      0.40823967944286
  N   0.34484796534137      2.69557267794577      0.36377954732039
