13
Coordinates from ORCA-job run
  C   0.89645443172497     -0.40429083853752      0.20878594529984
  C   -0.50638721340404      0.16566226534901      0.50564450317771
  F   1.29296716299285     -0.94719977113025      1.42630857097467
  H   -1.16693823096632     -0.65138266528557      0.80301353868962
  H   1.58275734973639      0.41149408330056     -0.02554908451932
  N   0.90241337403926     -1.36145787836501     -0.81414488008156
  H   1.35298312490836     -1.08438640468173     -1.66789972869218
  H   0.04889247967519     -1.87442756867205     -0.96588322452955
  N   -1.04373296043477      0.71130005571141     -0.78588307240730
  O   -0.53585437061216      1.74994838446768     -1.19367484563469
  O   -1.89072967001304      0.03110552359534     -1.35692297934143
  C   -0.48211649475103      1.20916723040731      1.51955967526396
  N   -0.44970898289565      2.04246758384081      2.34564558180021
