13
Coordinates from ORCA-job run
  C   0.50153951622221     -0.63160131285851     -0.40251220205308
  C   -0.48432497015688      0.10809380493889      0.50387660900962
  F   0.34402522278925     -0.08206016087075     -1.68044599675690
  H   -0.52099559733162     -0.39367746977029      1.47319946530024
  H   0.20081151354266     -1.67747074354571     -0.47129153051349
  N   1.80531329983069     -0.52229999176920      0.11399545885094
  H   2.45038648910397     -1.12878271092948     -0.37305976363090
  H   2.14640778853316      0.43089439831519      0.08038444275792
  N   -1.86891043126028     -0.02672426219737     -0.09088460269091
  O   -2.26426197921324     -1.18258136057889     -0.18999508332220
  O   -2.46702722762650      0.98797806957622     -0.41821980234638
  C   -0.11625654285594      1.50877829027691      0.65800387897396
  N   0.27229291842250      2.60745344941302      0.79894912642114
