13
Coordinates from ORCA-job run
  C   0.71184026736014     -0.74484678372123      0.29235744336139
  C   -0.51855387232355      0.13994792870880      0.62234063705934
  F   0.17703819225399     -2.02381420764330      0.19757201555129
  H   -0.98180856714149     -0.19759061779002      1.55031519372108
  H   1.37144826154410     -0.72570307658643      1.16391197986976
  N   1.44124752463688     -0.41949940258891     -0.86160962039779
  H   0.88943089158699     -0.04023067565754     -1.61612426914287
  H   2.27040814996736      0.12224346705954     -0.68386910183387
  N   -1.56708411298475     -0.04998706292313     -0.44461093436652
  O   -2.59214571708890     -0.62888994878097     -0.11207869368699
  O   -1.29000647674461      0.36970546798815     -1.56560752211525
  C   -0.13609629735564      1.54195569882273      0.69373275238781
  N   0.22228175628949      2.65770921311229      0.76467011959261
