13
Coordinates from ORCA-job run
  C   0.95432670919309     -0.28279304609436      0.14052819565263
  C   -0.48685445305093      0.09662122548685      0.54124440101213
  F   1.50296604807649     -0.77414042358945      1.32013968586677
  H   -1.01202178350402     -0.80111322254170      0.87380973283976
  H   1.50965378240012      0.61718827509227     -0.12976601206146
  N   1.01457389328786     -1.22667610961480     -0.89320237851304
  H   1.35863977294706     -0.88666711186124     -1.77376296505873
  H   0.22800868537828     -1.84867355581634     -0.99050818065902
  N   -1.18035204719599      0.57083866017642     -0.70306037149973
  O   -1.96850088064290     -0.21307563796360     -1.22307724317962
  O   -0.84247709109350      1.66857160338869     -1.13201343194417
  C   -0.52863112188450      1.13063318652895      1.56432232427986
  N   -0.54833151391101      1.95028615680829      2.40434624326457
