13
Coordinates from ORCA-job run
  C   0.75360184144588     -0.64404177841094      0.26204160057002
  C   -0.50128701555424      0.15192208429968      0.64685195551102
  F   0.27488222652900     -1.94791773143684      0.02161710909721
  H   -0.93558979475270     -0.27695472480210      1.55057408349936
  H   1.39666768757387     -0.71809868419614      1.14203910374811
  N   1.46585886227792     -0.07817214868820     -0.80031530690616
  H   2.32612281772753     -0.57211523973937     -0.98760914252662
  H   0.91098588294116      0.02382191613110     -1.63826642736876
  N   -1.56124363466790     -0.02712888094860     -0.41749777227717
  O   -2.59925277772178     -0.57380660965804     -0.07028265046286
  O   -1.28673802817790      0.38138113827589     -1.54169898458427
  C   -0.22682338215819      1.57081667751646      0.82450840638258
  N   -0.01918468546262      2.71129398165710      1.00903802531752
