13
Coordinates from ORCA-job run
  C   0.72402678238435     -0.74108535271415      0.27330236367511
  C   -0.51758273330612      0.11862063961236      0.62676077666846
  F   0.20608707563511     -2.02451647302860      0.14963381160718
  H   -0.97176828232126     -0.24542978483553      1.54922410037741
  H   1.38489304319041     -0.73351537431393      1.14408901592253
  N   1.44699628606133     -0.37981357674916     -0.87399966755836
  H   2.26621831537474      0.17324320193952     -0.68512926561960
  H   0.88765753720913      0.00547592522043     -1.61987048052506
  N   -1.56824710244002     -0.06289008168032     -0.43980742318439
  O   -2.58784363128223     -0.65467776855162     -0.11352229909014
  O   -1.29815052420815      0.37761197582598     -1.55442984209506
  C   -0.15644090715555      1.52448673423015      0.72719866389898
  N   0.18415414085827      2.64448993504482      0.81655024592291
