13
Coordinates from ORCA-job run
  C   0.65562175378915     -0.82365439728404      0.19696645254149
  C   -0.47807565865279      0.13073366370427      0.65462913123917
  F   0.00737692205347     -2.04055662792725      0.02580933495704
  H   -0.93034097757510     -0.24228314021119      1.57445427134057
  H   1.34911913457979     -0.93270294253144      1.03496623274448
  N   1.36381211480163     -0.46614214077458     -0.96083510650006
  H   0.81575139476096      0.01589867337810     -1.65722661756051
  H   2.24111128420741     -0.00763775595237     -0.77978972409589
  N   -1.58234544624211      0.11834186953894     -0.37202746399459
  O   -1.31552980600912      0.60319543030958     -1.46897875180449
  O   -2.64033558862365     -0.39598359923518     -0.03646943680843
  C   0.02766407980270      1.48505274755635      0.81891860878669
  N   0.48517079310763      2.55573821942884      0.96958306915450
