13
Coordinates from ORCA-job run
  C   0.73941196752192     -0.73661284424732      0.23705253745776
  C   -0.49388313413514      0.11002185506335      0.64699965425730
  F   0.22809735990737     -2.02334788715565      0.12428158609928
  H   -0.90915347577885     -0.26538578043713      1.58313248558844
  H   1.43602978436292     -0.72871005367537      1.07953255198007
  N   1.41227100914085     -0.36158107934267     -0.93651923316655
  H   2.22708356679465      0.20719699257327     -0.77683208132480
  H   0.81751722328989      0.01682209370648     -1.65832425894516
  N   -1.58377169363830     -0.07134997684054     -0.37883181832963
  O   -2.58010835343091     -0.68437451076827     -0.02067025073246
  O   -1.36357322114098      0.38397099177045     -1.49856856097961
  C   -0.13761634637140      1.51725662628625      0.74586795797681
  N   0.20469531347795      2.63509357306709      0.85387943011854
