13
Coordinates from ORCA-job run
  C   0.72631227452952     -0.74300777369641      0.26112165506516
  C   -0.50123219198103      0.12669890845688      0.63824460756786
  F   0.19798203274741     -2.02436073564424      0.16088770946948
  H   -0.93479041088022     -0.22739731409652      1.57440907440415
  H   1.40911554166969     -0.73177903971586      1.11477809715548
  N   1.42222330100395     -0.39520472954719     -0.90658592947393
  H   0.84707501221285     -0.01440216347629     -1.64261687729698
  H   2.25000935571068      0.15330108906887     -0.74402112509831
  N   -1.57855723656373     -0.05652923740562     -0.40054174260410
  O   -2.59274869530460     -0.64104166243064     -0.04516521185189
  O   -1.33372006811955      0.37414149585573     -1.52490037421052
  C   -0.12899716179671      1.53096687393545      0.71930911338727
  N   0.21932824677175      2.64961428869587      0.79408100348634
