11

C	0.0	0.0	0.0
C	-0.405721	-0.060848	-1.494029
F	1.356858	0.0	0.0
H	-0.091782	-0.972866	-2.055024
H	-0.399666	-0.800278	0.637139
H	-1.485703	-0.001901	-1.558854
H	-0.070395	0.869406	-1.994535
N	-0.506923	1.412356	0.500939
O	-1.595024	1.327346	1.325234
O	0.526885	2.046577	1.161752
H	-1.757169	0.0	0.0
