15

C	-0.496374	0.026407	-1.382801
C	0.0	0.0	0.0
Br	-2.834819	-0.082955	-1.200327
H	1.093504	0.0	0.0
H	-0.436353	-0.896539	-1.943474
N	-0.162344	1.158786	-2.036228
H	-0.181336	1.972973	-1.435497
H	-0.540983	1.281614	-2.960142
N	-0.355202	-1.267515	0.665163
O	-0.224535	-2.302047	0.00579
O	-0.642115	-1.232226	1.867058
N	-0.337568	1.184621	0.71488
H	0.356853	1.323066	1.440746
H	-1.25837	1.101366	1.129002
H	2.472261	0.0	0.0
