15

C	-0.36796	-0.073192	-1.498744
C	0.0	0.0	0.0
Br	-0.923784	1.774993	-2.176157
H	1.089403	0.0	0.0
H	-1.283219	-0.634494	-1.672373
N	0.692568	-0.573786	-2.279078
H	1.583762	-0.446393	-1.791311
H	0.542547	-1.550791	-2.480915
N	-0.349596	-1.346722	0.583755
O	-0.300541	-1.464177	1.804085
O	-0.548965	-2.294573	-0.192077
N	-0.47912	1.034136	0.851198
H	-1.122	1.643066	0.367893
H	0.318303	1.576324	1.162311
H	2.685609	0.0	0.0
