15

C	-0.499585	0.001914	-1.383361
C	0.0	0.0	0.0
Br	-2.811805	-0.141025	-1.208862
H	1.099405	0.0	0.0
H	-0.409948	-0.927869	-1.932068
N	-0.173161	1.134242	-2.051354
H	-0.56413	1.241861	-2.971523
H	-0.224199	1.953203	-1.45859
N	-0.345066	-1.260776	0.681018
O	-0.203882	-2.303921	0.037857
O	-0.632116	-1.212138	1.882071
N	-0.346428	1.189597	0.701914
H	0.346342	1.338653	1.424672
H	-1.264225	1.103871	1.120576
H	2.469795	0.0	0.0
