15

C	-0.378	-0.161954	-1.486383
C	0.0	0.0	0.0
Br	-0.727022	1.642977	-2.315085
H	1.095701	0.0	0.0
H	-1.33782	-0.660937	-1.614015
N	0.631584	-0.831374	-2.231
H	1.539806	-0.641479	-1.799031
H	0.449257	-1.824966	-2.178001
N	-0.361677	-1.292422	0.677641
O	-0.258336	-1.3297	1.900008
O	-0.63511	-2.283083	-0.020287
N	-0.487416	1.092153	0.780292
H	-1.056431	1.709406	0.220902
H	0.315047	1.611482	1.117261
H	2.680214	0.0	0.0
