15

C	-0.408109	-0.173062	-1.48295
C	0.0	0.0	0.0
Br	-0.884999	1.577415	-2.276256
H	1.094534	0.0	0.0
H	-1.328932	-0.74966	-1.577827
N	0.617174	-0.792035	-2.274396
H	1.520041	-0.490122	-1.902878
H	0.553415	-1.786109	-2.086622
N	-0.358198	-1.267585	0.694232
O	-0.316463	-2.324345	0.046359
O	-0.59601	-1.226053	1.908286
N	-0.409351	1.152506	0.72217
H	0.319395	1.362202	1.39525
H	-1.269406	0.99	1.228327
H	2.62434	0.0	0.0
