15

C	-0.609224	-0.019861	-1.380643
C	0.0	0.0	0.0
Br	0.475246	-1.154311	-2.680842
H	1.092579	0.0	0.0
H	-0.453766	0.973453	-1.792233
N	-1.98981	-0.356111	-1.395246
H	-2.360985	-0.274409	-2.333417
H	-2.091733	-1.315968	-1.086739
N	-0.379906	-1.156664	0.798866
O	-0.621778	-2.23564	0.22133
O	-0.310507	-1.046036	2.034455
N	-0.293171	1.251344	0.647956
H	0.488168	1.446502	1.2691
H	-1.134858	1.175048	1.204532
H	2.476978	0.0	0.0
