15

C	-0.591297	-0.083155	-1.392897
C	0.0	0.0	0.0
Br	-0.031891	-1.58961	-2.515476
H	1.098188	0.0	0.0
H	-0.156963	0.770548	-1.920015
N	-2.040629	-0.071043	-1.323297
H	-2.418185	0.055157	-2.255931
H	-2.273464	0.754397	-0.777538
N	-0.456814	-1.092119	0.885261
O	-0.30654	-2.245161	0.485947
O	-0.888038	-0.807689	2.014122
N	-0.371633	1.301721	0.535788
H	0.509243	1.732005	0.811473
H	-0.894465	1.14503	1.391779
H	2.613489	0.0	0.0
