15

C	-0.495797	-0.120462	-1.383256
C	0.0	0.0	0.0
Br	-2.797044	-0.245255	-1.208977
H	1.097034	0.0	0.0
H	-0.401409	-1.093231	-1.846436
N	-0.157597	0.944827	-2.147425
H	-0.53468	0.972341	-3.080154
H	-0.197578	1.814219	-1.63109
N	-0.355602	-1.19533	0.788964
O	-0.21644	-2.290995	0.239158
O	-0.652986	-1.039992	1.978054
N	-0.351186	1.248602	0.589054
H	0.336157	1.467477	1.302396
H	-1.275124	1.202039	1.001071
H	2.48341	0.0	0.0
