16

C	-0.45697	-0.012705	-1.422508
C	0.0	0.0	0.0
F	0.05153	0.999648	-2.132263
H	1.09575	0.0	0.0
N	-0.065744	-1.317663	-2.103113
O	1.071314	-1.35884	-2.54632
O	-0.914523	-2.201283	-2.13721
N	-1.978803	0.059275	-1.619278
O	-2.685614	-0.169928	-0.644768
O	-2.363225	0.341998	-2.748647
N	-0.341273	-1.234611	0.67886
H	-1.210476	-1.176673	1.189776
H	0.428454	-1.456007	1.296969
C	-0.456288	1.226772	0.641754
N	-0.81812	2.197494	1.199628
F	2.478805	0.0	0.0
