16

C	-0.353864	0.067677	-1.456655
C	0.0	0.0	0.0
F	0.219234	-0.929454	-2.139038
H	1.095142	0.0	0.0
N	-1.862393	-0.04885	-1.688875
O	-2.303232	-1.180609	-1.870799
O	-2.514895	0.981588	-1.565793
N	0.019921	1.359687	-2.165047
O	0.51528	2.26053	-1.506682
O	-0.20863	1.360409	-3.371341
N	-0.284343	-1.316932	0.5741
H	-1.032057	-1.813242	0.105685
H	0.575788	-1.843302	0.487467
C	-0.612588	1.060361	0.779856
N	-1.074783	1.902952	1.457128
F	2.473519	0.0	0.0
