16

C	-0.386708	-0.000701	-1.450174
C	0.0	0.0	0.0
F	0.222729	-0.983312	-2.107119
H	1.099086	0.0	0.0
N	-1.886414	-0.178396	-1.667815
O	-2.284938	-1.252105	-2.094244
O	-2.571333	0.787363	-1.339175
N	-0.070812	1.288404	-2.195857
O	-0.239028	1.227926	-3.410558
O	0.318416	2.254503	-1.555642
N	-0.368595	-1.312482	0.541572
H	0.467746	-1.682756	0.977166
H	-1.097541	-1.236058	1.238053
C	-0.537665	1.096921	0.778463
N	-0.965621	1.901887	1.522935
F	2.482477	0.0	0.0
