16

C	-0.575381	0.013719	-1.379246
C	0.0	0.0	0.0
F	-1.927584	0.04906	-1.414788
H	1.09082	0.0	0.0
N	-0.112251	1.179381	-2.236107
O	0.638065	2.003082	-1.732371
O	-0.569134	1.192811	-3.376828
N	-0.136747	-1.22383	-2.142365
O	1.033068	-1.224372	-2.496713
O	-0.976124	-2.091765	-2.326773
N	-0.328345	-1.288709	0.607957
H	0.477487	-1.556038	1.159643
H	-1.151948	-1.249336	1.1934
C	-0.501436	1.14342	0.751227
N	-0.935493	2.013639	1.413298
F	2.479831	0.0	0.0
