16

C	-0.255293	-0.064253	-1.490106
C	0.0	0.0	0.0
F	0.126358	1.059358	-2.093668
H	1.095253	0.0	0.0
N	0.45544	-1.216577	-2.196796
O	0.588588	-1.061824	-3.406473
O	0.795478	-2.190272	-1.543396
N	-1.724778	-0.281796	-1.84061
O	-2.370591	0.685256	-2.220855
O	-2.154907	-1.415811	-1.628027
N	-0.41811	-1.113645	0.822925
H	0.328931	-1.794081	0.792918
H	-1.269456	-1.548632	0.489748
C	-0.550405	1.25756	0.486519
N	-0.986635	2.272778	0.889229
F	2.476	0.0	0.0
