16

C	-0.381266	-0.010429	-1.447957
C	0.0	0.0	0.0
F	0.242217	0.939938	-2.148412
H	1.095754	0.0	0.0
N	-0.048806	-1.358746	-2.070602
O	1.123524	-1.523706	-2.362778
O	-0.971866	-2.151393	-2.214283
N	-1.881414	0.169813	-1.731788
O	-2.65325	-0.096328	-0.817683
O	-2.182163	0.545755	-2.859185
N	-0.391407	-1.22849	0.660022
H	0.314403	-1.444411	1.349528
H	-1.304334	-1.163973	1.086194
C	-0.46197	1.237359	0.614185
N	-0.813843	2.225378	1.147754
F	2.472966	0.0	0.0
