16

C	-0.354741	0.070168	-1.455825
C	0.0	0.0	0.0
F	0.198555	-0.939398	-2.135858
H	1.095254	0.0	0.0
N	-1.860688	-0.018924	-1.684066
O	-2.491903	1.028559	-1.59573
O	-2.325262	-1.144809	-1.842101
N	0.048035	1.352655	-2.165833
O	0.552444	2.248799	-1.507609
O	-0.166021	1.348141	-3.374228
N	-0.306372	-1.311658	0.572203
H	-1.058075	-1.787774	0.089315
H	0.540487	-1.860125	0.474531
C	-0.607016	1.068138	0.773827
N	-1.071366	1.917642	1.441184
F	2.47425	0.0	0.0
