13
Coordinates from ORCA-job run
  C   0.94166899502190      0.73662124822244     -0.00026715627435
  C   -0.45176115258713      0.17168837049906     -0.35091894868677
  H   1.00204583442396      0.92852410439206      1.07526337660724
  H   -0.49177648879945     -0.00063475335601     -1.43223108591581
  H   1.10802398388579      1.68789230823022     -0.51289463591140
  C   1.99431604781394     -0.20325295361294     -0.38098431855582
  N   2.81421009402398     -0.97960734615174     -0.70049528488582
  C   -1.45709848942015      1.18780379322119     -0.02777251280626
  N   -2.25222864887749      2.00467234323798      0.25338001772263
  C   -0.74737170896447     -1.13862184097335      0.38319121957239
  H   -0.71195798022664     -0.98755608696900      1.46431747284509
  H   -0.01011389801845     -1.89550399283934      0.10962065475695
  H   -1.73895658827579     -1.51002519390057      0.12079120153191
