13
Coordinates from ORCA-job run
  C   1.11074902226093     -0.01141169430259     -0.18010144736532
  C   -0.42519798089798      0.11660872780652     -0.18207833362578
  H   1.40296799941264     -0.80242870075609     -0.87725413203569
  H   -0.74074258478072      0.47091514427600     -1.16944795093369
  H   1.45644769087182     -0.30529030976053      0.81533750689423
  C   1.77102664079904      1.23204403573501     -0.57216451316512
  N   2.28364224246443      2.23439914336794     -0.90286878412316
  C   -0.84512986573074      1.11799160700227      0.80217913970523
  N   -1.18270871343579      1.89551558188143      1.61456576128301
  C   -1.08513983518714     -1.23418180225567      0.10975828350376
  H   -0.77740442457624     -1.60908558754334      1.08814714539273
  H   -0.79742319513117     -1.96270610853910     -0.65141428871233
  H   -2.17208699606908     -1.14237003691185      0.10534161318214
