13
Coordinates from ORCA-job run
  C   1.02593578181379      0.61406099932724      0.02072992094128
  C   -0.46357649086011      0.29615607261794     -0.23147453567382
  H   1.25472832317118      1.63888491136435     -0.28396098017066
  H   -0.65982758769108      0.39220638162416     -1.30512143355138
  H   1.24471243162617      0.53311932595647      1.08974589186565
  C   1.88614583638392     -0.30777094172498     -0.71871386749715
  N   2.54728934744908     -1.05923547415003     -1.33144802152766
  C   -1.27595385970924      1.30125789233160      0.45952645450792
  N   -1.91644053339771      2.09695052689098      1.03852459097869
  C   -0.84087413320573     -1.11400553894734      0.22978064240064
  H   -1.89804966423934     -1.30833781148597      0.04328995483170
  H   -0.25102763275726     -1.85577163532106     -0.31173662898132
  H   -0.65406181858366     -1.22851470848338      1.29985801187611
