15

C	0.0	0.0	0.0
C	-0.528406	0.386914	-1.368956
F	1.355124	0.0	0.0
H	-0.009348	1.314657	-1.635345
H	-0.378796	-0.951173	0.372322
N	-0.415592	1.046665	1.002266
O	-0.068883	2.19722	0.748479
O	-1.031613	0.665956	1.991164
C	-2.044018	0.600998	-1.372044
H	-2.392995	0.775338	-2.388754
H	-2.613225	-0.231267	-0.958726
H	-2.309866	1.473126	-0.774942
C	-0.103557	-0.646797	-2.317951
N	0.222053	-1.45747	-3.103083
Cl	-5.050455	0.0	0.0
