15

C	0.0	0.0	0.0
C	-0.40414	0.31911	-1.436069
F	1.355037	0.0	0.0
H	0.149431	1.234899	-1.67147
H	-0.394512	-0.92886	0.409669
N	-0.405953	1.099019	0.948259
O	-0.322767	2.251584	0.532011
O	-0.697385	0.75198	2.088718
C	-1.887536	0.528073	-1.719716
H	-2.006108	0.75398	-2.7823
H	-2.502415	-0.33175	-1.464196
H	-2.281937	1.359764	-1.140153
C	0.157428	-0.748767	-2.272046
N	0.59179	-1.59117	-2.965068
Cl	-4.654576	0.0	0.0
