15

C	0.0	0.0	0.0
C	-0.415933	-0.32678	-1.457147
F	1.354434	0.0	0.0
H	0.555994	-0.518953	-1.930903
H	-0.393661	-0.697781	0.733507
N	-0.343688	1.371663	0.522407
O	-0.119485	2.326337	-0.219485
O	-0.663921	1.439496	1.703218
C	-1.111256	0.722055	-2.333934
H	-2.036673	1.044381	-1.865293
H	-1.340056	0.253932	-3.295348
H	-0.445769	1.566778	-2.50206
C	-1.081442	-1.632631	-1.491718
N	-1.397871	-2.757287	-1.607256
Cl	-3.213301	0.0	0.0
