15

C	0.0	0.0	0.0
C	-0.415786	0.264959	-1.469136
F	1.354495	0.0	0.0
H	0.553469	0.2446	-1.984839
H	-0.390838	-0.929198	0.404113
N	-0.338273	1.055919	1.023146
O	-0.145873	2.228354	0.709682
O	-0.619141	0.65094	2.145233
C	-1.077218	1.591095	-1.866731
H	-1.323943	1.535702	-2.93045
H	-0.385831	2.416097	-1.704621
H	-1.990359	1.736331	-1.297202
C	-1.125555	-0.896028	-2.020137
N	-1.509917	-1.833817	-2.614213
Cl	-3.185642	0.0	0.0
