15

C	0.0	0.0	0.0
C	-0.415215	0.293879	-1.464507
F	1.354436	0.0	0.0
H	0.556425	0.308945	-1.975394
H	-0.392399	-0.935674	0.387379
N	-0.342307	1.040656	1.03578
O	-0.619068	0.622441	2.154081
O	-0.166821	2.217596	0.731423
C	-1.109025	1.609957	-1.841038
H	-0.430944	2.446696	-1.679236
H	-1.366743	1.558536	-2.902052
H	-2.01847	1.731745	-1.260851
C	-1.092955	-0.873779	-2.039147
N	-1.4699	-1.806872	-2.644802
Cl	-3.202815	0.0	0.0
