15

C	0.0	0.0	0.0
C	-0.541724	-0.012353	-1.416006
F	1.355414	0.0	0.0
H	-1.557955	0.396985	-1.355856
H	-0.395573	-0.812318	0.605836
N	-0.353861	1.271207	0.736171
O	-0.3963	1.183282	1.960125
O	-0.460087	2.299715	0.075769
C	-0.64752	-1.457604	-1.911603
H	0.308151	-1.981412	-1.821157
H	-0.956228	-1.475619	-2.958153
H	-1.415761	-1.957074	-1.319656
C	0.289994	0.788837	-2.311521
N	0.964968	1.364041	-3.081741
Cl	-3.375794	0.0	0.0
