15

C	0.0	0.0	0.0
C	-0.438132	0.338266	-1.446399
F	1.354375	0.0	0.0
H	0.520353	0.350238	-1.981893
H	-0.390538	-0.948807	0.358122
N	-0.341559	0.999171	1.076987
O	-0.104862	2.181295	0.842096
O	-0.689141	0.534599	2.156391
C	-1.125717	1.675509	-1.747588
H	-2.030057	1.76529	-1.152674
H	-1.396174	1.684324	-2.806584
H	-0.44375	2.499843	-1.546478
C	-1.157688	-0.798476	-2.037868
N	-1.577845	-1.70082	-2.661407
Cl	-3.285888	0.0	0.0
