16

C	-0.580858	0.023319	-1.418066
C	0.0	0.0	0.0
F	0.004639	1.005572	-2.190491
H	1.091998	0.0	0.0
N	-0.34641	-1.244905	-2.02419
H	-0.311225	-1.941713	-1.288684
H	-1.054438	-1.468591	-2.707303
C	-2.041451	0.341052	-1.38471
N	-3.210042	0.459362	-1.334114
N	-0.354993	-1.214133	0.686837
H	-1.180809	-1.090075	1.262192
H	0.423497	-1.446424	1.293488
N	-0.436297	1.207881	0.75611
O	-0.612012	1.091021	1.97331
O	-0.557894	2.267742	0.142482
F	2.497913	0.0	0.0
