16

C	-0.239102	0.148897	-1.523013
C	0.0	0.0	0.0
F	-1.343948	1.002135	-1.78514
H	1.091099	0.0	0.0
N	0.938931	0.658731	-2.099602
H	1.760526	0.494602	-1.48342
H	1.086973	0.349912	-3.048356
C	-0.664339	-1.145761	-2.119899
N	-0.952586	-2.128537	-2.695909
N	-0.561949	-1.167973	0.574473
H	-1.526816	-1.013978	0.8407
H	-0.032635	-1.4134	1.400106
N	-0.459185	1.281401	0.654399
O	-1.359723	1.207737	1.497224
O	0.095885	2.320009	0.31891
F	2.630301	0.0	0.0
