16

C	-0.199373	0.143082	-1.544728
C	0.0	0.0	0.0
F	-1.295254	0.987141	-1.854272
H	1.090317	0.0	0.0
N	0.996972	0.639116	-2.084139
H	1.15995	0.362286	-3.039592
H	1.80924	0.471722	-1.447708
C	-0.613411	-1.16899	-2.115754
N	-0.88767	-2.1926	-2.623354
N	-0.528789	-1.14035	0.663403
H	0.130716	-1.901278	0.588877
H	-1.440549	-1.423664	0.331054
N	-0.542023	1.254911	0.604256
O	-1.625562	1.190621	1.184459
O	0.111793	2.281354	0.444744
F	2.650102	0.0	0.0
