16

C	-0.211742	-0.066878	-1.531782
C	0.0	0.0	0.0
F	-0.3413	1.254881	-2.046202
H	1.092099	0.0	0.0
N	0.900528	-0.74585	-2.038059
H	0.983567	-0.669832	-3.041975
H	1.756723	-0.489009	-1.506487
C	-1.491533	-0.711628	-1.914656
N	-2.518904	-1.208825	-2.192893
N	-0.525026	-1.149129	0.648018
H	0.012212	-1.33612	1.484005
H	-1.502023	-1.021843	0.882749
N	-0.561514	1.295934	0.522175
O	-1.692342	1.260214	1.025164
O	0.121717	2.307752	0.421625
F	2.639586	0.0	0.0
