16

C	-0.233209	0.140322	-1.524237
C	0.0	0.0	0.0
F	-1.355402	0.963725	-1.799083
H	1.091058	0.0	0.0
N	0.939394	0.676968	-2.093579
H	1.761779	0.499012	-1.484173
H	1.08402	0.381579	-3.047112
C	-0.616872	-1.173129	-2.115422
N	-0.836371	-2.183509	-2.676346
N	-0.565162	-1.162174	0.581545
H	-1.533387	-1.006899	0.835141
H	-0.04443	-1.399569	1.415118
N	-0.46072	1.286621	0.646202
O	0.089941	2.324948	0.302721
O	-1.358015	1.21538	1.493214
F	2.629555	0.0	0.0
