16

C	-0.524036	0.140472	-1.4292
C	0.0	0.0	0.0
F	-0.387682	-1.080892	-2.0564
H	1.090294	0.0	0.0
N	-1.940262	0.450071	-1.469076
H	-2.055658	1.408985	-1.162331
H	-2.244324	0.394992	-2.436016
C	0.286903	1.082647	-2.247447
N	0.810849	1.810504	-3.004717
N	-0.457142	-1.193185	0.614035
H	0.202811	-1.453206	1.332875
H	-1.381848	-1.09705	1.011588
N	-0.377402	1.230605	0.763147
O	-0.519876	1.134018	1.981645
O	-0.466185	2.300498	0.14576
F	2.5108	0.0	0.0
