18

C	0.0	0.0	0.0
C	-0.376179	-0.114984	-1.47752
Br	2.125008	0.0	0.0
H	-1.473777	-0.067486	-1.375715
C	-0.383075	1.335273	0.593391
H	-0.065422	1.367065	1.637209
H	0.045335	2.163505	0.03388
H	-1.478416	1.335633	0.526645
N	-0.51769	-1.053125	0.781047
H	-0.4286	-1.898568	0.223414
H	-1.541368	-0.79539	0.746474
N	-0.015723	-1.444339	-1.977536
H	0.982097	-1.463948	-2.163986
H	-0.509037	-1.614433	-2.845618
N	0.086402	1.025261	-2.260529
H	1.09495	0.9654	-2.361541
H	-0.329311	0.973578	-3.18352
F	-2.867362	0.0	0.0
