18

C	0.0	0.0	0.0
C	-0.476844	0.042268	-1.460792
Br	1.969192	0.0	0.0
H	-1.561284	0.163454	-1.31489
C	-0.432183	1.2681	0.723716
H	-1.527119	1.226444	0.683366
H	-0.046197	2.158953	0.229329
H	-0.082707	1.240184	1.761573
N	-0.552818	-1.197551	0.584729
H	-1.579676	-0.987882	0.479552
H	-0.346374	-1.18941	1.579633
N	-0.134117	-1.218204	-2.138627
H	-0.902998	-1.451257	-2.760102
H	-0.126149	-1.936167	-1.417157
N	0.046016	1.202855	-2.167981
H	0.95601	0.9348	-2.53346
H	-0.554623	1.371704	-2.966817
F	-2.934456	0.0	0.0
