18

C	0.0	0.0	0.0
C	-0.514761	-0.213902	-1.410256
Br	2.10432	0.0	0.0
H	-1.611916	-0.150668	-1.188753
C	-0.459375	1.313071	0.577773
H	-0.096849	2.153709	-0.010133
H	-1.55916	1.195681	0.515741
H	-0.126842	1.413496	1.615855
N	-0.383992	-1.06021	0.779038
H	-0.253333	-0.996375	1.770942
H	-0.343314	-1.964331	0.342928
N	-0.190241	-1.576464	-1.848081
H	0.769419	-1.593262	-2.183372
H	-0.80356	-1.827034	-2.614958
N	-0.098103	0.871197	-2.284904
H	0.89236	0.776783	-2.492103
H	-0.618292	0.808908	-3.151952
F	-2.98238	0.0	0.0
