18

C	0.0	0.0	0.0
C	-0.395082	0.026709	-1.478102
Br	2.098685	0.0	0.0
H	-1.490945	0.062002	-1.359386
C	-0.395433	1.267721	0.721271
H	0.028412	2.150432	0.248232
H	-0.080579	1.197994	1.764264
H	-1.490551	1.266383	0.65195
N	-0.514045	-1.129066	0.681441
H	-1.536222	-0.879619	0.667213
H	-0.41458	-1.916853	0.046618
N	-0.039922	-1.247412	-2.110306
H	0.952229	-1.243565	-2.323154
H	-0.553759	-1.338635	-2.977932
N	0.059023	1.236581	-2.152111
H	-0.377746	1.282626	-3.065397
H	1.064643	1.185096	-2.280996
F	-2.877852	0.0	0.0
