18

C	0.0	0.0	0.0
C	-0.574234	-0.083143	-1.452734
Br	2.028851	0.0	0.0
H	0.264259	-0.124594	-2.154133
C	-0.405738	1.245332	0.766556
H	0.033347	1.216019	1.768562
H	-0.100428	2.155949	0.255774
H	-1.495448	1.172924	0.831686
N	-0.38534	-1.134825	0.748378
H	-0.351791	-1.974142	0.186853
H	0.125694	-1.214023	1.614626
N	-1.351277	1.125428	-1.724673
H	-2.205014	0.970847	-1.150777
H	-1.63322	1.070509	-2.699341
N	-1.329567	-1.336506	-1.561013
H	-1.629436	-1.413856	-2.528046
H	-2.169883	-1.130512	-0.981137
F	-3.120334	0.0	0.0
