18

C	0.0	0.0	0.0
C	-0.476334	-0.159494	-1.454004
Br	1.986935	0.0	0.0
H	-1.562754	-0.244887	-1.290678
C	-0.450528	1.324954	0.590585
H	-0.178605	1.344973	1.647869
H	-1.543501	1.311681	0.484436
H	0.013895	2.177499	0.091421
N	-0.521074	-1.059056	0.818055
H	-0.373358	-1.91851	0.293642
H	-1.543068	-0.853036	0.756055
N	0.026127	-1.397263	-2.021769
H	0.96799	-1.230339	-2.362002
H	-0.557682	-1.667253	-2.804163
N	-0.117451	0.993334	-2.301493
H	-0.599761	1.806954	-1.930401
H	-0.542011	0.820813	-3.209289
F	-2.939313	0.0	0.0
