18

C	0.0	0.0	0.0
C	-0.477839	0.098381	-1.45674
Br	1.974387	0.0	0.0
H	-1.575259	0.077024	-1.406877
C	-0.418293	1.208663	0.824422
H	-1.508401	1.293768	0.853474
H	0.021166	2.131117	0.435957
H	-0.058105	1.068417	1.840975
C	-0.411775	-1.327168	0.629826
H	-1.502534	-1.402365	0.672331
H	-0.03251	-2.142346	0.024487
H	0.00512	-1.406304	1.638082
N	-0.045192	-1.038763	-2.262505
H	-0.579077	-1.046826	-3.126301
H	0.941374	-0.933416	-2.487171
C	-0.070302	1.390141	-2.053876
N	0.234894	2.382991	-2.607007
Br	-4.065366	0.0	0.0
