18

C	0.0	0.0	0.0
C	-0.327483	-0.296838	-1.507271
Br	1.970054	0.0	0.0
H	0.286448	0.401632	-2.088559
C	-0.512715	1.376822	0.375065
H	-0.174903	1.651006	1.37657
H	-0.165938	2.137178	-0.330477
H	-1.607385	1.344269	0.37585
C	-0.535677	-1.064583	0.934737
H	-0.259684	-0.8401	1.968089
H	-1.629362	-1.058647	0.863502
H	-0.156184	-2.055149	0.678074
N	-1.689367	-0.151137	-1.959406
H	-1.977774	0.817428	-1.904665
H	-2.365346	-0.652104	-1.385809
C	0.141732	-1.650641	-1.864772
N	0.481707	-2.732546	-2.169601
Br	-4.34255	0.0	0.0
