14

C	0.0	0.0	0.0
C	-0.361487	-0.062938	-1.496178
Cl	1.73233	0.0	0.0
H	-1.44673	-0.174525	-1.557983
H	-0.079308	0.910859	-1.900473
N	-0.65498	1.197326	0.609536
O	-0.654302	1.287432	1.84929
O	-0.670531	2.191339	-0.160404
N	-0.410359	-1.287654	0.712358
O	-0.756081	-2.223207	-0.003194
O	-0.233858	-1.346104	1.919867
C	0.310393	-1.111991	-2.252381
N	0.816423	-1.904958	-2.953502
H	-2.193166	0.0	0.0
