14

C	0.0	0.0	0.0
C	-0.361808	-0.000711	-1.499163
Cl	1.732219	0.0	0.0
H	-1.444793	0.124289	-1.559849
H	-0.100144	-0.995527	-1.859771
N	-0.431173	1.303341	0.660162
O	-0.683562	2.231934	-0.104852
O	-0.333647	1.390914	1.87601
N	-0.618803	-1.193654	0.656689
O	-0.61379	-1.239078	1.896626
O	-0.653092	-2.207872	-0.0772
C	0.324726	0.998187	-2.304618
N	0.838872	1.746077	-3.049703
H	-2.193889	0.0	0.0
