16

C	0.0	0.0	0.0
C	-0.607159	0.045348	-1.397556
F	1.392499	0.0	0.0
H	-1.714885	-0.005078	-1.100993
C	-0.474292	1.172582	0.834492
H	-0.123261	2.090681	0.363649
H	-0.060818	1.086067	1.842417
H	-1.567076	1.106453	0.828734
C	-0.388471	-1.276764	0.640816
N	-0.568947	-2.313781	1.160889
C	-0.211615	-1.116619	-2.196983
N	0.110201	-1.989924	-2.916751
N	-0.299057	1.308073	-2.063149
H	-1.056671	1.536188	-2.69254
H	0.551784	1.230189	-2.605765
F	-2.854328	0.0	0.0
