16

C	0.0	0.0	0.0
C	-0.449048	0.074398	-1.490023
F	1.387631	0.0	0.0
H	0.482978	-0.051421	-2.054971
C	-0.468247	1.138433	0.881657
H	-0.07173	2.080295	0.494536
H	-1.562552	1.107569	0.84522
H	-0.090009	0.97931	1.894557
C	-0.3967	-1.295153	0.591449
N	-0.527063	-2.308509	1.169852
C	-0.943691	1.429298	-1.825271
N	-1.28064	2.487356	-2.211875
N	-1.369411	-0.991581	-1.836842
H	-1.640158	-0.873953	-2.807958
H	-2.190124	-0.783173	-1.209506
F	-2.80038	0.0	0.0
