16

C	0.0	0.0	0.0
C	-0.249666	0.045927	-1.557965
F	1.387724	0.0	0.0
H	0.544686	-0.622358	-1.923664
C	-0.508813	1.15963	0.814102
H	-0.191697	1.027729	1.85257
H	-0.0729	2.083319	0.426236
H	-1.602176	1.130074	0.725366
C	-0.441026	-1.29324	0.546707
N	-0.671421	-2.313959	1.079222
C	0.141197	1.397584	-2.01095
N	0.39931	2.464998	-2.428555
N	-1.535771	-0.379715	-2.061047
H	-1.820079	0.242799	-2.808441
H	-2.238126	-0.275379	-1.26107
F	-2.900873	0.0	0.0
