16

C	0.0	0.0	0.0
C	-0.470983	0.105938	-1.480208
F	1.383228	0.0	0.0
H	0.457437	0.058397	-2.063231
C	-0.448554	1.131857	0.904397
H	-0.046303	0.960083	1.906091
H	-0.054478	2.075921	0.519302
H	-1.541982	1.110801	0.892263
C	-0.399897	-1.298475	0.580437
N	-0.517584	-2.331988	1.124898
C	-1.063714	1.432837	-1.763042
N	-1.480693	2.47127	-2.122396
N	-1.332665	-1.002032	-1.852921
H	-2.16138	-0.83198	-1.231915
H	-1.605857	-0.877888	-2.822637
F	-2.756109	0.0	0.0
