16

C	0.0	0.0	0.0
C	-0.575597	-0.0094	-1.409969
F	1.392556	0.0	0.0
H	-1.684947	-0.004969	-1.145495
C	-0.467509	1.215549	0.776708
H	-1.560952	1.157841	0.77132
H	-0.105821	2.108179	0.266195
H	-0.057645	1.170966	1.789071
C	-0.400948	-1.240794	0.697719
N	-0.565509	-2.239873	1.292083
C	-0.20132	-1.232894	-2.131175
N	0.10499	-2.157244	-2.791672
N	-0.173221	1.197392	-2.128702
H	-0.81002	1.347257	-2.900475
H	0.759561	1.079865	-2.508075
F	-2.820604	0.0	0.0
