16

C	0.0	0.0	0.0
C	-0.347197	0.147195	-1.532691
F	1.388859	0.0	0.0
H	0.480346	-0.391434	-2.01214
C	-0.578744	1.046121	0.911425
H	-0.232848	2.034172	0.601152
H	-0.264468	0.855655	1.940809
H	-1.672271	0.939716	0.803307
C	-0.41209	-1.356822	0.412475
N	-0.630189	-2.451775	0.775395
C	-0.159385	1.562746	-1.904724
N	0.021729	2.683938	-2.203151
N	-1.600164	-0.347037	-2.040958
H	-1.523387	-1.357297	-2.087231
H	-2.342686	-0.146955	-1.300211
F	-3.0458	0.0	0.0
