16

C	0.0	0.0	0.0
C	-0.613619	-0.091838	-1.389864
F	1.39265	0.0	0.0
H	-1.721106	-0.112205	-1.077781
C	-0.466874	1.252462	0.717204
H	-0.050202	1.262619	1.727531
H	-0.113297	2.118557	0.157892
H	-1.559828	1.196708	0.7241
C	-0.390799	-1.20446	0.766972
N	-0.576648	-2.193305	1.371612
C	-0.219716	-1.326964	-2.07289
N	0.106178	-2.267504	-2.70002
N	-0.311149	1.099795	-2.177862
H	0.552783	0.97788	-2.692882
H	-1.059556	1.249802	-2.842338
F	-2.852098	0.0	0.0
