18

C	-0.438572	-0.021721	-1.474398
C	0.0	0.0	0.0
Cl	-2.1691	-0.317277	-1.681857
H	1.093577	0.0	0.0
N	-0.061824	1.296723	-2.14352
O	1.134271	1.413578	-2.367715
O	-0.938472	2.131174	-2.324505
N	0.263553	-1.089432	-2.315008
O	0.188731	-0.941659	-3.528989
O	0.789198	-2.018867	-1.721175
N	-0.439492	-1.148136	0.764876
H	-1.432498	-1.311668	0.650835
H	0.072692	-1.966206	0.463928
C	-0.478714	1.283871	0.664388
H	-0.17724	1.218822	1.709708
H	-0.008395	2.167333	0.230691
H	-1.566355	1.397339	0.615206
Cl	3.367774	0.0	0.0
