18

C	-0.444166	-0.009948	-1.472
C	0.0	0.0	0.0
Cl	-2.174664	-0.297772	-1.673554
H	1.093322	0.0	0.0
N	-0.065882	1.314621	-2.128153
O	1.127744	1.427277	-2.36772
O	-0.938607	2.158364	-2.282374
N	0.248547	-1.073568	-2.32621
O	0.765505	-2.015155	-1.743407
O	0.173513	-0.911837	-3.538044
N	-0.435227	-1.153226	0.759752
H	-1.426226	-1.325961	0.639638
H	0.086639	-1.966239	0.462011
C	-0.477487	1.280385	0.673712
H	-0.007236	2.166323	0.245396
H	-0.176725	1.209373	1.718738
H	-1.564962	1.395322	0.624037
Cl	3.385736	0.0	0.0
