18

C	-0.452095	-0.006305	-1.457593
C	0.0	0.0	0.0
Cl	0.46955	-1.127604	-2.411147
H	1.094403	0.0	0.0
N	-1.946418	-0.32503	-1.626428
O	-2.330249	-0.592272	-2.756417
O	-2.654879	-0.234193	-0.630989
N	-0.331416	1.402664	-2.048358
O	-1.350777	2.089545	-2.009188
O	0.774112	1.752546	-2.425087
N	-0.402279	-1.281569	0.568814
H	0.370709	-1.643629	1.111486
H	-1.215797	-1.173283	1.159328
C	-0.428778	1.233249	0.788647
H	-1.512501	1.336521	0.855802
H	-0.002133	2.145391	0.365875
H	-0.011326	1.126892	1.792253
Cl	3.369542	0.0	0.0
