18

C	-0.410747	0.000175	-1.468918
C	0.0	0.0	0.0
Cl	0.45103	1.202052	-2.390863
H	1.094383	0.0	0.0
N	-0.123469	-1.389845	-2.065538
O	1.051694	-1.677015	-2.182531
O	-1.09375	-2.087307	-2.33434
N	-1.918002	0.176332	-1.691097
O	-2.297968	0.549094	-2.792607
O	-2.64292	-0.121938	-0.746528
N	-0.41315	-1.257615	0.59892
H	0.297402	-1.55068	1.256734
H	-1.30844	-1.174431	1.061186
C	-0.444152	1.263063	0.732513
H	0.037268	1.26035	1.71294
H	-0.119272	2.167049	0.213395
H	-1.527719	1.292508	0.870365
Cl	3.371201	0.0	0.0
