18

C	-0.472217	-0.007468	-1.447224
C	0.0	0.0	0.0
Cl	0.444891	1.082819	-2.448372
H	1.094838	0.0	0.0
N	-0.34372	-1.429204	-2.014276
O	0.792228	-1.851114	-2.110422
O	-1.383121	-2.013548	-2.296668
N	-1.971954	0.302008	-1.582816
O	-2.668538	-0.023574	-0.62664
O	-2.375154	0.802752	-2.623824
N	-0.424571	-1.231853	0.644305
H	0.323558	-1.555987	1.243041
H	-1.270456	-1.098663	1.181118
C	-0.392489	1.290007	0.721503
H	-1.45673	1.315039	0.966152
H	-0.137543	2.174189	0.132937
H	0.188222	1.338631	1.644577
Cl	3.357447	0.0	0.0
