15
Coordinates from ORCA-job run
  C   -0.50917081970132     -0.20109771497156     -0.35952934715230
  C   0.51225291138013     -0.26595537335190      0.76393727962431
  F   0.12700456911244     -0.64210517515877     -1.53961914406381
  H   0.03016272412767      0.13060000699426      1.66228912926699
  H   0.73682832308033     -1.32063175400789      0.95911153714739
  N   -0.89999454550057      1.15805355356333     -0.64648018391140
  H   -1.24495613832978      1.21051843259015     -1.59722796769458
  H   -1.64177625284776      1.42588861562937     -0.01203920729095
  N   -1.63089044225157     -1.03438738681839     -0.06038655518763
  H   -2.27221906714946     -1.04119052827996     -0.84537857345592
  H   -1.33145664287611     -1.98526176376801      0.11992794611443
  C   1.79060296687834      0.49772557279065      0.44903443312815
  H   2.28980536796695      0.07004083667457     -0.42094717231562
  H   1.56313204866423      1.54111002520751      0.23255971376289
  H   2.48067499744649      0.45569265290663      1.29474811202805
