15
Coordinates from ORCA-job run
  C   -0.42747630226647     -0.29048741158350     -0.45336511979266
  C   0.53763978988465     -0.31600297882904      0.72108310117524
  F   0.24691738858813     -0.66009244068319     -1.60898253200723
  H   -0.00180024773070      0.01785548087737      1.61645864520064
  H   0.81086505906529     -1.36177860698763      0.88077822924151
  N   -0.86534020840449      1.06706182368350     -0.71997093241200
  H   -1.48927623512036      1.37489075702507      0.01598055179694
  H   -1.37244657187200      1.08569951806374     -1.59809628377921
  N   -1.43936687641169     -1.30519978854239     -0.26774629617098
  H   -2.13284373739107     -1.24185706671477     -1.00468330247416
  H   -1.90208187435740     -1.17710997689899      0.62325399865809
  C   1.77393285923273      0.54316017185200      0.49461847149505
  H   1.50162391599932      1.58822021242927      0.35148856668827
  H   2.45348072934430      0.46723289538834      1.34651924924725
  H   2.30617231143975      0.20840741092022     -0.39633634686674
