15
Coordinates from ORCA-job run
  C   -0.75751690435747     -0.21783242521544      0.02883768256644
  C   0.41817083375219     -0.06481007734297      0.97587832247706
  F   -1.83615537667461     -0.70112379199631      0.80124571216418
  H   0.16386349501345      0.69430306228212      1.72427167050620
  H   0.51277624434213     -1.02005957466333      1.49624495239643
  N   -0.51970893113305     -1.24969678995110     -0.95478728044510
  H   -1.40162647747430     -1.68965596317905     -1.18599429257263
  H   -0.12944771965152     -0.83262275769679     -1.78977756192483
  N   -1.09635512362044      1.03049544915472     -0.57601723343486
  H   -1.93134283195408      0.92349173372205     -1.14030135756940
  H   -1.27091076260077      1.73397647668847      0.13191016055318
  C   1.71403915511776      0.28637940720686      0.25712692703848
  H   2.53240142452822      0.40190263789350      0.97104676406196
  H   1.98860069240026     -0.50972908847417     -0.43732179103905
  H   1.61321228231223      1.21698170157143     -0.30336267477806
