13
Coordinates from ORCA-job run
  C   -1.15797727518648     -0.64482782498332      0.38988380297147
  C   -0.03567318667292     -0.00246257739312     -0.41039751202003
  Cl  -1.16531767803413     -2.40358811786943      0.11083157761879
  H   -0.13571615831774     -0.25039933170664     -1.46753872234489
  H   -1.02427004727130     -0.46849594159903      1.45514357724260
  H   -2.12679762431840     -0.25848479970611      0.07333470640028
  C   1.35522150000652     -0.32335007704633      0.10541391210761
  H   2.10826553933892      0.19908384135669     -0.48762590074364
  H   1.44809520391070     -0.01607640635431      1.14874454431258
  H   1.54067454562738     -1.39502069005105      0.03233172285789
  N   -0.22839970610094      1.48395792016420     -0.33906832242453
  O   -0.39668069640699      1.96500869689250      0.78078097304575
  O   -0.18042441657463      2.11465530829595     -1.39183435902388
