13
Coordinates from ORCA-job run
  C   -1.09636719860605     -0.80559247498279      0.16449317862424
  C   0.05680894122018     -0.01077418540132     -0.40314479191611
  Cl  -2.60260952850927     -0.47569430966307     -0.72430596830705
  H   0.12170715771583     -0.14392799691564     -1.48325154127199
  H   -1.25777142248612     -0.54340840880772      1.20878075211881
  H   -0.88267373901133     -1.87062284297814      0.07294676338311
  C   1.37056693094351     -0.33931228184180      0.28777676873837
  H   2.17381566057069      0.28285471885305     -0.11147746126080
  H   1.63106302677874     -1.38547130956914      0.11610550232316
  H   1.29037536203855     -0.16393743625667      1.36176663323318
  N   -0.21376098108839      1.45450387280661     -0.21451998629813
  O   -0.51643295808562      1.81870591290489      0.91904482159426
  O   -0.07572125148072      2.18267674185177     -1.19321467096104
