13
Coordinates from ORCA-job run
  C   -1.02237661450661     -0.80663996393641      0.42640570829285
  C   -0.03796889135947     -0.01765375769830     -0.40543140487379
  Cl  -2.69575224119732     -0.49956823391524     -0.09598700820407
  H   -0.22361382476033     -0.16861592023638     -1.46904814411808
  H   -0.94014775912988     -0.52556413863730      1.47502088025905
  H   -0.82671426151750     -1.87232105386493      0.30648278760136
  C   1.40237429887429     -0.32932482361928     -0.03179682433682
  H   1.62569772987301     -1.37594030231801     -0.24749855305186
  H   1.57006117131834     -0.14080680985177      1.02979502909531
  H   2.08696994532378      0.29248629384900     -0.61180476579702
  N   -0.26817947684990      1.44999687564727     -0.18252396745844
  O   -0.36366292288474      2.16186222700976     -1.17810293778799
  O   -0.30468715318367      1.83208960757158      0.98448920037949
