13
Coordinates from ORCA-job run
  C   -1.16554521238647     -0.78055752636535      0.19552570592585
  C   -0.02860855904953      0.01475649211143     -0.42833988090205
  Cl  -1.02129124776573     -1.06084697852303      1.94560439055614
  H   -0.08271448320739     -0.13133248869518     -1.50957743288553
  H   -1.18368815141291     -1.76299638014787     -0.27790149234606
  H   -2.12039248961074     -0.28534104044976      0.01727307168782
  C   1.36002792029014     -0.32519552248190      0.08186651619408
  H   2.11088312963176      0.21080326131904     -0.50131089633671
  H   1.53837537347124     -1.39775467397449     -0.01747067632611
  H   1.45730075260108     -0.05433182227591      1.13230331912273
  N   -0.24683287622655      1.48975261965024     -0.25567294333537
  O   -0.52352801835711      1.89002668027635      0.87136563556167
  O   -0.09398613797779      2.19201737955644     -1.25366531691648
