13
Coordinates from ORCA-job run
  C   -1.15392021672742     -0.77387043009205      0.06948232726107
  C   0.03493625835273      0.02776198689760     -0.42877488773070
  Cl  -1.34490232230400     -0.65362633706176      1.83507276881365
  H   0.02965883446921     -0.04849441975783     -1.52125243344179
  H   -1.00900599097177     -1.82529673548278     -0.17991906844425
  H   -2.07014404438212     -0.40585119575116     -0.38750308479495
  C   1.37504891254304     -0.38418729847950      0.13619201214903
  H   1.40158375502580     -0.26629719688178      1.21753117118185
  H   2.17545548729889      0.21710356755817     -0.29396354733335
  H   1.55608098000340     -1.43299847659046     -0.11158609281672
  N   -0.25228971662984      1.48881434015126     -0.17078411178542
  O   0.52733999607300      2.12374340103295      0.53174532356582
  O   -1.26984193275092      1.93319879445733     -0.69624037662421
