18

C	-0.57852	0.025516	-1.392924
C	0.0	0.0	0.0
F	-1.914159	-0.011921	-1.41072
H	1.08917	0.0	0.0
N	-0.130053	1.191682	-2.263151
O	-0.823403	1.377471	-3.258131
O	0.885869	1.778839	-1.93612
N	-0.082443	-1.202539	-2.164843
O	1.117159	-1.221809	-2.393968
O	-0.922973	-2.04244	-2.461469
C	-0.483557	-1.221278	0.766267
H	-0.113774	-2.128336	0.287019
H	-1.573327	-1.259735	0.824155
H	-0.06033	-1.179471	1.767678
N	-0.439194	1.238094	0.725214
O	-1.048333	2.10543	0.099068
O	-0.158017	1.297171	1.915562
Cl	3.277368	0.0	0.0
