18

C	-0.374584	-0.046658	-1.464784
C	0.0	0.0	0.0
F	-0.047832	-1.246429	-1.964312
H	1.093717	0.0	0.0
N	-1.857236	0.135505	-1.803587
O	-2.581535	-0.750716	-1.369346
O	-2.187442	1.087121	-2.49512
N	0.359017	1.011962	-2.272884
O	0.527533	2.085395	-1.713333
O	0.670673	0.699039	-3.412638
C	-0.478619	-1.194257	0.810887
H	-1.563365	-1.203964	0.924379
H	-0.152414	-2.115135	0.329606
H	0.00414	-1.133922	1.787426
N	-0.500473	1.230427	0.672606
O	-1.573675	1.697738	0.285405
O	0.146006	1.63869	1.62747
Cl	3.209032	0.0	0.0
