18

C	-0.36141	-0.094407	-1.465762
C	0.0	0.0	0.0
F	0.001233	-1.298111	-1.929142
H	1.105443	0.0	0.0
N	-1.842845	0.043656	-1.824962
O	-2.547137	-0.862666	-1.400134
O	-2.192749	0.989069	-2.516135
N	0.355946	0.961627	-2.296258
O	0.676128	0.631544	-3.428336
O	0.50774	2.048393	-1.75917
C	-0.483434	-1.170824	0.839408
H	-0.133622	-2.102958	0.3982
H	-0.026612	-1.071931	1.825621
H	-1.570557	-1.191767	0.92691
N	-0.512841	1.24815	0.628731
O	0.139362	1.716195	1.55197
O	-1.602699	1.672088	0.235992
Cl	3.204828	0.0	0.0
