18

C	-0.65429	-0.002156	-1.358404
C	0.0	0.0	0.0
F	-1.98835	0.087938	-1.272669
H	1.104706	0.0	0.0
N	-0.178132	1.058025	-2.343001
O	-0.961501	1.283236	-3.259858
O	0.927731	1.535214	-2.164861
N	-0.345411	-1.323139	-2.067742
O	0.761736	-1.412407	-2.578189
O	-1.228574	-2.170279	-2.036929
C	-0.425394	-1.213533	0.814103
H	0.008744	-2.111438	0.373615
H	-1.510357	-1.32008	0.872466
H	-0.009402	-1.105975	1.813203
N	-0.420151	1.259924	0.700623
O	-0.330632	1.277407	1.923245
O	-0.794612	2.207637	0.009249
Cl	3.19885	0.0	0.0
