18

C	-0.478944	-0.028088	-1.432842
C	0.0	0.0	0.0
F	0.027251	-1.102208	-2.049055
H	1.094797	0.0	0.0
N	-1.999161	-0.123588	-1.538299
O	-2.448667	-0.785094	-2.465343
O	-2.635487	0.48807	-0.689139
N	-0.101676	1.175074	-2.307271
O	1.074408	1.222457	-2.617124
O	-1.006263	1.926847	-2.646831
C	-0.470063	-1.225271	0.75883
H	0.048197	-1.256144	1.715611
H	-1.545791	-1.214261	0.938981
H	-0.188581	-2.117207	0.197551
N	-0.390769	1.266449	0.685501
O	-0.20492	2.308447	0.063226
O	-0.805161	1.194156	1.837748
Cl	3.190179	0.0	0.0
