16
Coordinates from ORCA-job run
  C   0.50396631110790     -0.00850431742208      0.37311775068169
  C   -0.63391609065038     -0.68938501565957     -0.36012172326542
  F   0.28584477623422     -0.08345339692651      1.72104071418435
  H   -0.61877972990155     -1.73675367209502     -0.04241763296805
  H   -0.41540141297100     -0.66279353674827     -1.42965452353280
  C   1.88579122865941     -0.52989142509733      0.06608207560400
  H   1.93280459849571     -1.58492331391165      0.34066138684242
  H   2.11094559291700     -0.41721915127689     -0.99306977649431
  H   2.62376897578378      0.01824977488333      0.65504054611239
  N   0.46068286885247      1.47081065810093      0.00914086821111
  O   0.21254950201335      2.28313955331158      0.88888180073513
  O   0.66386710280935      1.71645320211581     -1.17706485235438
  C   -1.99208608578362     -0.06098772224434     -0.06567423323173
  H   -2.06032681488407      0.94793192813150     -0.47789282133991
  H   -2.78787087059920     -0.65635488225246     -0.51654664772991
  H   -2.17283995208337     -0.00631868290904      1.00847706854542
