16

C	-0.436686	0.005476	-1.493934
C	0.0	0.0	0.0
Br	0.211764	-1.603705	-2.344767
H	1.09056	0.0	0.0
N	-1.97478	0.014927	-1.59739
O	-2.5543	-0.995025	-1.221362
O	-2.49881	1.044958	-2.000002
C	0.071209	1.158477	-2.217553
N	0.46942	2.087122	-2.818126
N	-0.442812	-1.069329	0.811029
H	0.267907	-1.784846	0.84779
H	-1.346679	-1.440699	0.562183
N	-0.534611	1.300183	0.558031
O	-1.721006	1.288621	0.89323
O	0.222025	2.262325	0.621732
Cl	3.222257	0.0	0.0
