16

C	-0.441668	0.010289	-1.488221
C	0.0	0.0	0.0
Br	-2.341531	0.354555	-1.707532
H	1.093338	0.0	0.0
N	0.377005	1.011799	-2.363856
O	1.573057	0.769623	-2.364298
O	-0.201258	1.937818	-2.91307
C	-0.13915	-1.303011	-2.037198
N	0.143325	-2.380825	-2.416742
N	-0.507226	-1.030214	0.809884
H	-0.062087	-1.919258	0.633008
H	-1.515396	-1.098537	0.843726
N	-0.412911	1.33521	0.546711
O	-1.203393	1.375126	1.486503
O	0.1382	2.304981	0.025731
Cl	2.686394	0.0	0.0
