16

C	-0.53492	-0.006251	-1.443952
C	0.0	0.0	0.0
Br	0.414015	-1.35229	-2.43807
H	1.090211	0.0	0.0
N	-2.041141	-0.370361	-1.352569
O	-2.492052	-1.30568	-1.986541
O	-2.661908	0.380324	-0.605085
C	-0.493309	1.234172	-2.208812
N	-0.531492	2.16313	-2.929783
N	-0.466032	-1.161712	0.67672
H	0.282514	-1.523166	1.252459
H	-1.256507	-0.934523	1.265978
N	-0.383952	1.290652	0.707636
O	-0.041207	2.333262	0.163805
O	-0.957687	1.203756	1.790857
Cl	3.187647	0.0	0.0
