15
Coordinates from ORCA-job run
  C   -0.62406541448831     -0.68342205261735      0.23285785624385
  C   0.70115929551375     -0.08580752182769     -0.28715656098450
  Cl  -0.52306804969667     -2.43873447956600      0.39294375911046
  H   1.00277403624756     -0.70772328290637     -1.13642524948719
  C   -0.99768507525330     -0.07125079275167      1.49909470421073
  N   -1.20379258447926      0.42766090333477      2.54268737697898
  N   -1.72217409281890     -0.40013407808114     -0.79538700901180
  O   -1.38444563164620     -0.51502015877816     -1.96758357096018
  O   -2.83575487587493     -0.12633293598408     -0.37374584861319
  N   1.67370085373294     -0.23449659726332      0.75772637231729
  H   1.54100705043155      0.46171024671059      1.48254684062124
  H   2.61531997914810     -0.17588611487309      0.39662631181065
  N   0.40810453922259      1.29668172561019     -0.64247375315355
  H   1.22592217114557      1.87151356463632     -0.49271810491226
  H   0.12199779881552      1.37924157435700     -1.60999312417053
