15
Coordinates from ORCA-job run
  C   -0.64978414228091     -0.43318506966573      0.46077097471333
  C   0.46786505278283      0.38060668566171     -0.24483870705020
  Cl  -0.02034455636974     -1.44579439925296      1.74242356041388
  H   -0.04800076639110      0.90929004623206     -1.05688581836524
  C   -1.68260394934252      0.45532974831399      0.97780229825419
  N   -2.46508298812598      1.22512863017693      1.39869059282528
  N   -1.29080621766197     -1.29571890061902     -0.64824371946733
  O   -1.85793493275385     -0.63041177500122     -1.50652186218762
  O   -1.16159756530635     -2.50265701078127     -0.60743740172331
  N   1.37679651235182     -0.55431555841844     -0.84242440548965
  H   1.86482937559792     -0.14617555654697     -1.62706703752939
  H   2.04521926329866     -0.88418240919725     -0.15678900123247
  N   1.08977151697415      1.24784668615360      0.73927257315590
  H   0.44817997900973      1.96517293635734      1.06130080635314
  H   1.88249341821731      1.71006594658722      0.31094714732948
