15
Coordinates from ORCA-job run
  C   -0.62891206999219     -0.63161128623705      0.27085568757397
  C   0.69192886534094     -0.01139168518767     -0.22709826897934
  Cl  -0.38721715465360     -2.28923711362972      0.85156639334703
  H   1.03743229066777     -0.66651744091856     -1.03629259613828
  C   -1.23278295854982      0.18469825205187      1.31189077232655
  N   -1.67529105122472      0.86168306978931      2.16412427650321
  N   -1.56926290211490     -0.69472943072413     -0.93920005190349
  O   -2.64473395825097     -0.12406015074655     -0.84594059530268
  O   -1.13570619478636     -1.30998442783977     -1.90140788414276
  N   1.59374598718507      0.10528489360903      0.90432501241299
  H   2.42435158366266      0.60495828799038      0.61079673720008
  H   1.87937711785601     -0.80458892784169      1.24674727883967
  N   0.34260847964263      1.26557625392039     -0.79031905516676
  H   0.95821588393721      1.53008608844714     -1.54578240728338
  H   0.34524608128027      1.98183361731703     -0.07326529928680
