15
Coordinates from ORCA-job run
  C   -0.66233728943855     -0.50113409850224      0.52080453874069
  C   0.67038013946229      0.26864734243292      0.32012264902646
  Cl  -0.38631698487654     -1.94596982907704      1.49661709495757
  H   1.08880451011458      0.36197911018101      1.33235241579421
  C   -1.68115847149125      0.32849429559864      1.14526289407405
  N   -2.50545188599444      0.95523069846548      1.70023414532899
  N   -1.16658453927507     -0.90714454368005     -0.88147351045976
  O   -1.06323399521540     -2.06666469213045     -1.23055260988109
  O   -1.58708415718178      0.03674376510292     -1.53803012697580
  N   0.39630690590302      1.59464298957243     -0.15057218039932
  H   0.19102131230586      1.59292564619741     -1.14157477019916
  H   1.16615122407039      2.21894950121535      0.04564908647768
  N   1.47924305672688     -0.51287328889125     -0.60215888296605
  H   1.72778701651088     -1.41605727517904     -0.21384178144299
  H   2.33347315837913     -0.00776962130611     -0.80183896207550
