15
Coordinates from ORCA-job run
  C   -0.61846490642960     -0.71167950228956      0.23376020248308
  C   0.69748993787382     -0.08075911703696     -0.26876253245952
  Cl  -0.43044734559941     -2.41476945494386      0.63886050622091
  H   1.01675948316877     -0.70665325431463     -1.10511781556589
  C   -1.11394598447343      0.03731789593854      1.38104657210343
  N   -1.38429526254664      0.68593641660276      2.32338726592202
  N   -1.62938209291146     -0.60903435492152     -0.91431966012667
  O   -2.67071141721448     -0.00957894257713     -0.69366366015646
  O   -1.28347846149942     -1.14070067262989     -1.95669245633189
  N   1.67976334127769     -0.18155665274997      0.78352542994462
  H   1.51929312037156      0.51557841611226      1.50193035390885
  H   2.61299921511612     -0.05636392277011      0.41495414809066
  N   0.33007345755001      1.22215088223825     -0.79359712295484
  H   0.28203823353567      1.91606436682168     -0.05628269561346
  H   0.99330868178082      1.53504789652013     -1.49002853546484
