15
Coordinates from ORCA-job run
  C   -0.49306112652537     -0.72194901628151      0.04819041113566
  C   0.73852585219982      0.16505718807442     -0.29207074156784
  Cl  -0.08035647255143     -2.44002656889916     -0.10549756282086
  H   1.12539848758799     -0.21132444013039     -1.24595142090714
  C   -0.98022452597320     -0.43794228880511      1.38833879853137
  N   -1.26848868503270     -0.20952686628093      2.50438465442679
  N   -1.60887183772445     -0.44672061741027     -0.95993164898774
  O   -1.23956704499346     -0.29257403665855     -2.11830136565418
  O   -2.75787458288848     -0.42800924554984     -0.54337905650252
  N   1.78344129678030      0.09062953637864      0.68998559290652
  H   2.21396291747358     -0.82321131465198      0.71784271355289
  H   1.43358601042165      0.32966237989376      1.61148132424315
  N   0.24435705052266      1.52455734829897     -0.32651047862720
  H   -0.12815323600397      1.75413771839681     -1.23892012275780
  H   1.01932589670705      2.14524022362514     -0.12866109697108
