15
Coordinates from ORCA-job run
  C   -0.65011748465552     -0.53179563832756      0.51211367505190
  C   0.66500157586322      0.27173953503322      0.32390019257624
  Cl  -0.33377562096732     -1.99823162081603      1.44395659428465
  H   1.08820591254611      0.34708144515189      1.33563654193700
  C   -1.68027575483424      0.25678774668620      1.16921019627132
  N   -2.49235967242997      0.89678473496209      1.72692240017563
  N   -1.15714186406134     -0.90928626416142     -0.89701468756507
  O   -1.03602884780170     -2.05689029388974     -1.27813326777390
  O   -1.60134913163780      0.04395051052486     -1.52387854035693
  N   0.36260783008451      1.60350127287689     -0.11081326242485
  H   0.15296119622107      1.62384861011283     -1.10068642823912
  H   1.12065251667411      2.23768110304165      0.09900961677105
  N   1.48292329754903     -0.47002073947897     -0.62351099406152
  H   1.75611696729532     -1.37541984048826     -0.25739975100517
  H   2.32357908015454      0.05926943877234     -0.81831228564122
