15
Coordinates from ORCA-job run
  C   -0.62286761730731     -0.45626281263810      0.47667294456260
  C   0.44946735416727      0.39464500415380     -0.25522410575726
  Cl  0.07710230417091     -1.48248418071477      1.70981327062432
  H   -0.10849744930773      0.92813557871359     -1.03561344255169
  C   -1.64966168753502      0.40184224365017      1.05370675381402
  N   -2.42770031101046      1.14926236221139      1.52050581825987
  N   -1.29194546296944     -1.30778880981759     -0.62391140167006
  O   -1.14004862743411     -2.51279773640961     -0.61352368706537
  O   -1.90529458299075     -0.63611528539153     -1.44466278685981
  N   1.35235941796557     -0.50948963423737     -0.90726141193972
  H   1.80563670362871     -0.07245783327520     -1.69740384155577
  H   2.05048454224049     -0.84373115210713     -0.25401268538792
  N   1.09118618978246      1.25546076707603      0.72165370493287
  H   1.86683121667021      1.73122187584732      0.27732803118708
  H   0.45194800992920      1.96155961293898      1.07193283940683
