15
Coordinates from ORCA-job run
  C   -0.68182275403172     -0.36201275142095      0.44991750068765
  C   0.41825806501894      0.44648285988396     -0.26630693945575
  Cl  -0.02192514163071     -1.25558978196148      1.81945090231418
  H   -0.10070698958835      0.97084314538624     -1.07301269468372
  C   -1.77432040705021      0.49258324646309      0.89093643411639
  N   -2.66591038576906      1.17417251901790      1.23920190880931
  N   -1.25160588143774     -1.33981855898207     -0.60286060407581
  O   -1.80418995316543     -0.76597605953813     -1.53146614416587
  O   -1.09282239155775     -2.53481571820506     -0.45228182632341
  N   1.32254253180095     -0.50208684651331     -0.87990043206993
  H   1.89143338153791     -0.04728564161681     -1.58143264831789
  H   1.93277326756425     -0.92768833868214     -0.19253042717853
  N   0.90341053467908      1.44244130302932      0.66312253113077
  H   1.39626448725710      2.17656301233037      0.17211812007480
  H   1.52862163637275      1.03218761080906      1.34604431913780
