15
Coordinates from ORCA-job run
  C   -0.64115715773381     -0.58304254203871      0.34274816779039
  C   0.67910101761596     -0.05912678631867     -0.25731550010216
  Cl  -0.44125186240317     -2.20670689399958      1.02615260581017
  H   0.95666037539927     -0.78297398697935     -1.03344712399239
  C   -1.15732775159862      0.32906844266038      1.35104733296881
  N   -1.52796602583084      1.08240997150867      2.17297480598089
  N   -1.64190727305042     -0.68494062858540     -0.81472371193278
  O   -1.28234200687966     -1.38180326244028     -1.75155737225169
  O   -2.68681926144949     -0.06174225528322     -0.71087835088948
  N   1.63860759669232      0.09214140073637      0.82108613019043
  H   2.47144572352443      0.53991019462398      0.45898201049824
  H   1.90663063126033     -0.80461882033002      1.20915925848779
  N   0.35779930181831      1.19094335249558     -0.89232310759675
  H   0.94703411270794      1.37542926888175     -1.69129116709712
  H   0.42249257992744      1.95405254506850     -0.22861397786433
