15
Coordinates from ORCA-job run
  C   -0.65848420817871     -0.38352659409623      0.46980872150098
  C   0.40048421272215      0.45699067579979     -0.27217065602004
  Cl  0.06909531780353     -1.29592507588615      1.79169498940355
  H   -0.15809035931470      0.99151026973463     -1.04506986511901
  C   -1.74277673431232      0.44716623477351      0.97264363996194
  N   -2.62596542569342      1.11274978047751      1.36947746543988
  N   -1.25604258937239     -1.34625541220609     -0.58009467688675
  O   -1.06648044680376     -2.54114348615591     -0.46851285800528
  O   -1.85886863762434     -0.76098709662570     -1.46982302407053
  N   1.29215246761414     -0.46407026247002     -0.94339205266181
  H   1.94113409826196     -0.88986243593535     -0.29266771188625
  H   1.81941389740866      0.01274250723772     -1.66278098113217
  N   0.90906904747500      1.43867732561257      0.65943202871868
  H   1.36428627238985      2.19615321979850      0.16711962631093
  H   1.57107308762437      1.02478034994121      1.30433535444590
