15
Coordinates from ORCA-job run
  C   -0.71375382818460     -0.35158357901781      0.40538639228662
  C   0.44867394942745      0.43886319598374     -0.22780588026578
  Cl  -0.14676585738189     -1.34699305503166      1.74617959853432
  H   -0.01433301561149      1.02905761034905     -1.02299003075867
  C   -1.78050039193054      0.53051082077484      0.85515166246335
  N   -2.65232101855816      1.23293784587242      1.21164574575889
  N   -1.29003067357175     -1.24357149456087     -0.71736192379117
  O   -1.19209378763989     -2.45116350848872     -0.62787468594456
  O   -1.78317815427145     -0.59499639898587     -1.63033250631927
  N   1.32974173150597     -0.51983686101621     -0.85959785999038
  H   1.89343141202944     -1.00912300502234     -0.17474188981096
  H   1.94593792792250     -0.05716566590026     -1.51511419364541
  N   0.94499778491436      1.36017614472385      0.76983791082552
  H   1.52567385608544      0.88619480206333      1.45068947604701
  H   1.48652006526461      2.09669314825651      0.33692818461049
