15
Coordinates from ORCA-job run
  C   -0.68579681724612     -0.54109204966947      0.48195954794543
  C   0.70091882615089      0.14642578800511      0.32199032812663
  Cl  -0.56648676397895     -2.09262372765326      1.29537580787195
  H   1.02181064740334      0.36435059435471      1.35119991035371
  C   -1.57626330694976      0.33974230004981      1.22954922611930
  N   -2.19903944917850      1.09020041791130      1.88579153331704
  N   -1.27628051271992     -0.74438259286490     -0.92080999347141
  O   -0.68156347213409     -1.53384651817128     -1.63776882125456
  O   -2.25736741899031     -0.07586871902199     -1.21043146414366
  N   0.45574112585116      1.32429890150736     -0.50141703628378
  H   -0.08084051399265      2.03143597364096     -0.00998174599747
  H   1.34201705904837      1.73094230363655     -0.77213036406146
  N   1.66384760963942     -0.74716156147614     -0.24039568118361
  H   1.53303810182249     -0.85157869173390     -1.23769556717772
  H   2.60426488527463     -0.44184241851486     -0.03523568016039
