15
Coordinates from ORCA-job run
  C   -0.80870435367520     -0.22342518170208      0.36094435116114
  C   0.53725471376755      0.37776104855885     -0.11902328198416
  Cl  -0.64270017838056     -1.08371270223519      1.87724674526819
  H   0.27611240195425      1.00815931065373     -0.97680118868610
  C   -1.82485786722118      0.81435299838215      0.47129842497781
  N   -2.63942497035982      1.65846239092614      0.53877412259878
  N   -1.27482385053686     -1.19097318797006     -0.75208090144403
  O   -1.52409154026330     -2.34940015045223     -0.47828116282440
  O   -1.32927660373186     -0.65950296546712     -1.85702614913194
  N   1.41932446748986     -0.72649972442382     -0.46209930871086
  H   1.28588129987605     -1.01801862408986     -1.42341133968550
  H   2.38174454362551     -0.43697074898969     -0.35170977600338
  N   1.01949230673335      1.23456657965652      0.92495564048272
  H   1.69171583886711      1.90111997476489      0.57133406958419
  H   1.43135379185507      0.69608098238777      1.67687975439754
