15
Coordinates from ORCA-job run
  C   -0.59209899758356     -0.61897883440728      0.28003321016179
  C   0.76236731253999     -0.03910857146268     -0.23167585245306
  Cl  -0.41210567101455     -2.30591422086347      0.77998191743274
  H   1.07436875874840     -0.71396430517508     -1.04111708624099
  C   -1.13254764490514      0.17938104868535      1.36726922084805
  N   -1.53603566858321      0.84742137418954      2.24582669890405
  N   -1.54555712600535     -0.56636691334464     -0.91459251547843
  O   -1.25230723972977     -1.28984107912308     -1.85613239655546
  O   -2.45548873070793      0.25253847365066     -0.86807270801158
  N   1.64908771617042      0.02899756218700      0.90481112530242
  H   2.45644558278322      0.57697953231120      0.63518771697133
  H   1.95512934491894     -0.89020934377279      1.19586667427401
  N   0.64384640486318      1.28553096244352     -0.76666871223242
  H   0.24895641636415      1.92933488805474     -0.09143715996463
  H   0.13493954214122      1.32419942662701     -1.63828013295784
