15
Coordinates from ORCA-job run
  C   -0.72300522902151     -0.49397186647892      0.44710580042744
  C   0.67897407530078      0.15964858650679      0.38106904123272
  Cl  -0.70768485149849     -2.10166719310281      1.17749365423751
  H   0.90088539736439      0.41160256219689      1.42306972234230
  C   -1.62871036465870      0.37037675058964      1.19654129962929
  N   -2.31022144154629      1.05743287204347      1.86232516586398
  N   -1.30465067776441     -0.65359862610908     -0.96391629970879
  O   -0.49508998335520     -0.79760740040555     -1.87450229479736
  O   -2.52116941261814     -0.66967647442137     -1.06257453314733
  N   0.47187955162683      1.41010617881730     -0.33673661579524
  H   1.08356432670902      2.13631795890346      0.00955896127730
  H   0.63566876850720      1.28598868486610     -1.32762336082302
  N   1.69045982574259     -0.76801965757521     -0.05241743553917
  H   1.62043442298371     -0.94368666806311     -1.04507540135564
  H   2.60866559222823     -0.40524570776761      0.16468229615602
