15
Coordinates from ORCA-job run
  C   -0.66180776687007     -0.40015051490154      0.39043132397743
  C   0.53992772588398      0.43980068411874     -0.19029543368364
  Cl  -0.14563396780062     -1.51190466648418      1.63831305599465
  H   0.09262782908756      1.00605020723379     -1.02118341852260
  C   -1.70312966717857      0.48267846688115      0.89198967304286
  N   -2.47960740424474      1.25846397196134      1.31366453128311
  N   -1.22369254867459     -1.16233673598130     -0.81579527581473
  O   -1.90082758709433     -0.47435005361842     -1.57188706649557
  O   -0.88030397019451     -2.32198946565432     -0.98068811089234
  N   1.61278675185492     -0.34678329638233     -0.71327727301090
  H   1.97051428650648     -0.98245903071636     -0.01081612038505
  H   1.35916533894915     -0.85943256080484     -1.54639535242193
  N   1.05897520374269      1.24000900949764      0.88972235974996
  H   1.93649115905304      1.64119379271334      0.58402846224694
  H   0.42451461697961      1.98821019213731      1.14118864493181
