15
Coordinates from ORCA-job run
  C   -0.72553683979173     -0.28129504045878      0.31016345824269
  C   0.58417798451688      0.35349683524130     -0.25100377303736
  Cl  -0.39886761261777     -1.29165192796172      1.71544664462806
  H   0.25144650084732      0.94597505448044     -1.10810945600261
  C   -1.68171421630469      0.75939083252984      0.65813491459797
  N   -2.39661538920472      1.64662748709259      0.94705644236872
  N   -1.33040791559771     -1.11893271612943     -0.83186141008787
  O   -1.70278885997027     -0.43241976594352     -1.77488989182845
  O   -1.35422172757320     -2.32952713293037     -0.73251238374144
  N   1.38738983807216     -0.73338013506520     -0.74657260248483
  H   2.16833804164117     -0.34679033419914     -1.26225076449716
  H   1.76430169495851     -1.27933583997230      0.01994008632148
  N   1.25292970088900      1.24180892543535      0.66527681420026
  H   0.71526324620407      2.08095315463644      0.84764803541171
  H   1.46730555393099      0.78508060324449      1.54353388590884
