15
Coordinates from ORCA-job run
  C   -0.67837478138627     -0.43521917959228      0.41540457377229
  C   0.48780167342738      0.37617731985590     -0.20950553081875
  Cl  -0.12487765435206     -1.53782291640716      1.65725696312716
  H   0.01649296851765      0.96598717930276     -1.00644631538273
  C   -1.69608664024648      0.46069169792317      0.94962370237713
  N   -2.46423686000777      1.23488499872833      1.38840324387274
  N   -1.31257541705006     -1.21233200707748     -0.75837215679953
  O   -1.82954903839332     -0.48132262199395     -1.59460361891021
  O   -1.22638918333097     -2.42364642161824     -0.78083644210058
  N   1.38399632629156     -0.55632294352289     -0.83048525258855
  H   2.01670194437397     -0.94718763629530     -0.14282196797280
  H   1.91414942771245     -0.12032291401022     -1.57205414212678
  N   1.10617013803695      1.16622431802012      0.83959168687182
  H   1.92705811812860      1.62355900973121      0.46204004455177
  H   0.47871897827836      1.88665211695604      1.18180521212703
