15
Coordinates from ORCA-job run
  C   -0.58269192370152     -0.65362143328278      0.19210742755118
  C   0.74163559293081      0.00399671379642     -0.29408165300702
  Cl  -0.31247245664231     -2.32489782927458      0.70126853646692
  H   1.08248745008661     -0.63048822969649     -1.11635454029097
  C   -1.15222053720875      0.11935353525614      1.28512595686948
  N   -1.47570258801034      0.79215414294860      2.19337129245619
  N   -1.54914938592575     -0.66469316333530     -0.99283364091986
  O   -2.59850697086210     -0.05189819792098     -0.86473225034708
  O   -1.15616755111176     -1.27452211202397     -1.97466654953697
  N   1.78342300967193      0.06864661447520      0.69784455044765
  H   2.10168905855208     -0.84946474769056      0.98076680958824
  H   1.48604309854432      0.58418795660821      1.51895529302060
  N   0.34892674602626      1.28363604804223     -0.83132320660083
  H   0.18455088978572      1.95180598617665     -0.08523076253889
  H   1.09815556786478      1.64680471592119     -1.40721726315864
