15
Coordinates from ORCA-job run
  C   -0.58803615750216     -0.68487582650919      0.24632150739181
  C   0.77949964126663     -0.12086329575433     -0.24264785302522
  Cl  -0.50359505602571     -2.40576565643207      0.60319696522607
  H   1.10442071187110     -0.80779727834142     -1.02819948225781
  C   -1.05244375058826      0.06304056963864      1.40546804985551
  N   -1.30654980603711      0.71189166565210      2.35237534740606
  N   -1.57442622452985     -0.48396579788321     -0.90573765170099
  O   -1.27858776761313     -1.04826948554895     -1.94946653388718
  O   -2.52722994396804      0.26104031504417     -0.71411365116648
  N   1.68907032368114     -0.21568289519655      0.86861168461020
  H   1.49603778586848      0.51586140747742      1.54518333660533
  H   2.63133306684108     -0.07080733500953      0.52788980969962
  N   0.67752131223593      1.19960428743306     -0.81757769016787
  H   0.19356840491051      1.21366553020573     -1.70575058738077
  H   0.26041745958939      1.87192379522414     -0.18455325120828
