15
Coordinates from ORCA-job run
  C   -0.70847027070965     -0.50327865640729      0.45959289788387
  C   0.68415203673814      0.16736715072587      0.36910096576202
  Cl  -0.66031174148892     -2.11291793537842      1.18449522694280
  H   0.92207181428950      0.42087099532919      1.40714139053464
  C   -1.61019121685520      0.34803632440345      1.22829236140077
  N   -2.29160062614212      1.02074433937710      1.90872227072854
  N   -1.31367528561844     -0.66587505180825     -0.94151151584059
  O   -2.53157455271857     -0.68678328667412     -1.01966685507727
  O   -0.51870619929310     -0.80662756454330     -1.86525139483960
  N   0.44741250062835      1.41555653230334     -0.34403770569122
  H   0.59812084656407      1.29431152805652     -1.33738445652956
  H   1.05391488524574      2.15048109463635     -0.00698507248349
  N   1.69920212251302     -0.74648762362019     -0.08397791133616
  H   1.61287623850367     -0.92458745390103     -1.07486073516696
  H   2.61677944834352     -0.37281039249922      0.11633053371220
