15
Coordinates from ORCA-job run
  C   -0.63436376112468     -0.49946465926417      0.55596121470368
  C   0.67296683937321      0.29323778502658      0.29049489692362
  Cl  -0.29446185613850     -1.90673410786070      1.56635863656477
  H   1.11958391646269      0.42850560864300      1.28587953236068
  C   -1.65226072301200      0.32624555392226      1.18700416293556
  N   -2.47187870809053      0.95315159368330      1.74861309295401
  N   -1.17233146349758     -0.96027443844177     -0.81621975007367
  O   -1.05347241827291     -2.12755734542559     -1.13305296527404
  O   -1.63616914987223     -0.04698373562978     -1.48695525256838
  N   0.35337745532819      1.59768180937739     -0.21207177540854
  H   1.11629950133514      2.24315662535187     -0.06166899690681
  H   0.11823412334242      1.55899851238056     -1.19576714994715
  N   1.47178584581958     -0.49819966481918     -0.63199842854583
  H   1.75477250043413     -1.38195906458840     -0.22282276537850
  H   2.30691789791308      0.02019552764463     -0.87375445233941
