15
Coordinates from ORCA-job run
  C   -0.64766148409672     -0.33031109910298      0.44691759634518
  C   0.45035102041236      0.53525672841529     -0.24430429737175
  Cl  0.00340899741026     -1.19354808367452      1.83667365289742
  H   -0.07579276936698      1.04852342639034     -1.05452444484626
  C   -1.79745491031542      0.46765766897481      0.83975060682887
  N   -2.73011424119207      1.11224224090090      1.14945668980991
  N   -1.11309370345553     -1.33153515714423     -0.62515033454679
  O   -0.78236427534501     -2.50107061764140     -0.53058764387603
  O   -1.72560542205006     -0.80444672610708     -1.54670903130375
  N   1.52163763190422     -0.22802391059721     -0.83227607006207
  H   1.92917857802663     -0.88508844208891     -0.17807116504964
  H   1.24076556271662     -0.71858832835596     -1.67169182702106
  N   0.86016066894171      1.52186072883218      0.72123267792471
  H   1.42937689078324      2.21361791608005      0.24886054452637
  H   1.43320740246378      1.09545365496956      1.44042234815847
