15
Coordinates from ORCA-job run
  C   -0.64100700253048     -0.52560416921310      0.57250576911151
  C   0.69516929111467      0.23964297402790      0.36421792529983
  Cl  -0.39854904734781     -1.89629172901757      1.64327216357192
  H   1.15410838123629      0.25571361354019      1.35571113612832
  C   -1.71387204816534      0.31919418509938      1.08357923996250
  N   -2.60863665485045      0.95771430097797      1.49910937002492
  N   -1.11187159380805     -1.03132388146381     -0.81220826931078
  O   -1.44051073467001     -2.19213182823599     -0.95086395668217
  O   -1.11450023038133     -0.15438221540126     -1.67201117181749
  N   0.42489193171714      1.61102713689428      0.00072616171700
  H   0.05567191892221      1.67127802961679     -0.93941154793513
  H   1.27227135374315      2.16022948611159      0.06547990680431
  N   1.52585668330017     -0.58965278084864     -0.49143079482676
  H   1.39981670216173     -0.33620086646313     -1.46372500204472
  H   2.50316104955810     -0.49021225562460     -0.25495093000328
