15
Coordinates from ORCA-job run
  C   -0.67581196112693     -0.32946402720300      0.40350632551925
  C   0.48044654049233      0.53024772384059     -0.19323001117073
  Cl  -0.11051781029060     -1.30710668500203      1.75422164963659
  H   0.00496781868810      1.11667306206065     -0.98483494982137
  C   -1.80675465361748      0.48879956227318      0.80917940633571
  N   -2.72409023723250      1.14952893559198      1.13054040902876
  N   -1.14221915334235     -1.23951470684002     -0.74757742741619
  O   -1.69631597415383     -0.62803451905934     -1.65370450358579
  O   -0.86560597409232     -2.42630095233780     -0.71775214137008
  N   1.53892868797461     -0.23985846472441     -0.79479343415180
  H   1.26923920875708     -0.66043009919273     -1.67480517510493
  H   1.89554156225128     -0.95570725908238     -0.17359987585352
  N   0.89634522045167      1.43430360078337      0.84785854356859
  H   1.42660611846143      0.93775849834837      1.55483447566111
  H   1.51024060677952      2.12910533054357      0.44015670872440
