15
Coordinates from ORCA-job run
  C   -0.66439271116303     -0.32163834725827      0.44563341985827
  C   0.52869213827901      0.40648699637735     -0.27520638705616
  Cl  -0.20716291850538     -0.96439048490860      2.00684701517821
  H   0.07610645838513      0.81461115163603     -1.19031410540019
  C   -1.77917749319308      0.60417890172468      0.58485547175431
  N   -2.61898344319128      1.41874963399779      0.69829028776295
  N   -1.10592543673503     -1.44754713975037     -0.50246104306858
  O   -0.86035634302716     -2.60426778164356     -0.20770210533654
  O   -1.61184985140072     -1.03400237190134     -1.54182920128479
  N   1.57429984480895     -0.56204373735968     -0.48783593321849
  H   2.41960657440540     -0.05506736408422     -0.71744035642368
  H   1.36123903589308     -1.19598451796086     -1.24767163546122
  N   1.07715663745339      1.49520112245622      0.47512370937291
  H   0.42489923634891      2.26186424541553      0.57224967002170
  H   1.38684827164180      1.18384969325929      1.38746119330130
