15
Coordinates from ORCA-job run
  C   -0.66381149180059     -0.44262946024341      0.43153704164349
  C   0.47887460609827      0.38139183541523     -0.22002979578689
  Cl  -0.06824097100611     -1.54635087592124      1.65277585931045
  H   -0.01833652476385      0.97122612420531     -1.00101423273996
  C   -1.67449594411368      0.44173805082839      0.99720897812292
  N   -2.43625613403135      1.20744611803081      1.46120121056282
  N   -1.32151126900849     -1.21966799216338     -0.72926567166534
  O   -1.86804338815887     -0.48948935300613     -1.54715860261258
  O   -1.22279165243239     -2.42978652890173     -0.76154100067591
  N   1.36561770225612     -0.54040341238683     -0.86925338645544
  H   1.87044099538320     -0.09802574232801     -1.62436490263364
  H   2.02001690619138     -0.93019413976199     -0.20168309273547
  N   1.11847318320904      1.17162234602214      0.81646177420508
  H   1.92555993230789      1.63657329057870      0.41859394364387
  H   0.49450404986944      1.88654973963214      1.17653187781661
