15
Coordinates from ORCA-job run
  C   -0.64757606378206     -0.63742555562802      0.29052861264042
  C   0.71652412211478     -0.13104339054602     -0.22525912267966
  Cl  -0.58247930933508     -2.35011081562582      0.71475009137428
  H   1.06288013012433     -0.87415325216863     -0.95105496862157
  C   -1.09066934496422      0.15673099823262      1.42682965954776
  N   -1.35363015604208      0.80255245378522      2.37240419437040
  N   -1.67420893791900     -0.50389331451578     -0.83646919766682
  O   -2.80698729070553     -0.16067200999881     -0.53334905844722
  O   -1.26620934266748     -0.79801163585528     -1.95382697480150
  N   1.61830586226351     -0.12594037961396      0.89103288634936
  H   2.58180379471956     -0.12712881524719      0.58744875009893
  H   1.45007071896483      0.67223725764166      1.49285021878376
  N   0.46673044040139      1.18451019419806     -0.80084201810981
  H   0.24165784833341      1.12218369522523     -1.78595129750946
  H   1.28378752849363      1.76916457011671     -0.68909177532887
