15
Coordinates from ORCA-job run
  C   -0.63558910793302     -0.38399213894108      0.38776222324477
  C   0.49417090235991      0.43529406415917     -0.30886662445540
  Cl  0.00099304719508     -1.36533080676912      1.70461372381503
  H   -0.02239969674180      0.99283562970976     -1.09541966309711
  C   -1.67074193731974      0.50804278512236      0.88882666189346
  N   -2.45585659475669      1.28218410814069      1.29626374749207
  N   -1.26341707754668     -1.27613783004315     -0.69955868492808
  O   -1.11126430746518     -2.48006095956915     -0.64159772091106
  O   -1.84202789589705     -0.63007979529386     -1.56400629232647
  N   1.36550782104345     -0.52109509803535     -0.94031989604820
  H   2.01620118298545     -0.01981366275521     -1.53269227637549
  H   1.90653258987509     -1.02543007463097     -0.24686149584081
  N   1.15017909157096      1.38934482143281      0.54863973004820
  H   0.53348104553385      2.14396606446079      0.82529586080929
  H   1.53323093709635      0.95027289301231      1.37692070667981
