15
Coordinates from ORCA-job run
  C   -0.55592573614504     -0.71084696133833      0.23014628958146
  C   0.67779018701490      0.07557953575693     -0.25621411455776
  Cl  -0.13925978437958     -2.38830747734685      0.62535718651035
  H   1.03766978862761     -0.46189322521157     -1.14222477954315
  C   -1.17509953513524     -0.06216416455617      1.37490642776432
  N   -1.63136830830016      0.48110567899387      2.31144168800600
  N   -1.54774377294882     -0.74043631340202     -0.93956998343835
  O   -1.11216930955810     -1.21528122055571     -1.97728822791686
  O   -2.66227376115853     -0.28204835539084     -0.74318763263764
  N   1.62210117857807      0.16416956739355      0.84252987217543
  H   2.39137498722715      0.76219706614723      0.56583236725540
  H   2.00091366658505     -0.74488894836249      1.08126777320307
  N   0.18880288013815      1.36391991180480     -0.67057783004044
  H   0.74107172406161      1.75703157400372     -1.41915841316574
  H   0.16611579539292      2.00286333206388      0.11573937680391
