15
Coordinates from ORCA-job run
  C   -0.61578555889179     -0.40110037029869      0.40157092255385
  C   0.47594720241717      0.44894301359512     -0.31822378930860
  Cl  0.07958967288001     -1.38341783987952      1.68781711514999
  H   -0.07467166689796      1.00408075745033     -1.08307830909010
  C   -1.65394147877191      0.46311714430185      0.94357554990947
  N   -2.44260904822138      1.21520126817497      1.38418962515777
  N   -1.25705550832916     -1.29403939649465     -0.67698054058424
  O   -1.07874487106237     -2.49512751109403     -0.63730796318123
  O   -1.87364116747918     -0.65067184525414     -1.51683628109601
  N   1.34780678017344     -0.48221239600197     -0.98560769780125
  H   1.96791850606327      0.03836507385920     -1.59373486262174
  H   1.92168816880613     -0.98012910581496     -0.31434051302143
  N   1.13733159824845      1.40707052989530      0.53072579063252
  H   1.55405059402943      0.96636546853475      1.34174775166051
  H   0.51311677703584      2.14455520902644      0.83548320164050
