15
Coordinates from ORCA-job run
  C   -0.60024174725951     -0.61073829879225      0.26591035595261
  C   0.73343077837191     -0.05199527992757     -0.30958982589415
  Cl  -0.37770352012292     -2.23715962041159      0.92202221446229
  H   1.02980119827818     -0.77206843923402     -1.07672490278531
  C   -1.11303139958018      0.28181187998076      1.29395031930871
  N   -1.39092544594171      1.04863365731071      2.14078030504574
  N   -1.59744957081123     -0.69390039305038     -0.89105601983971
  O   -1.25146298734683     -1.40439642239936     -1.82148596220424
  O   -2.62146659404679     -0.03411718994641     -0.79555532417120
  N   1.80246558513980      0.06449429044270      0.64825243584678
  H   1.54522423246296      0.66607978884994      1.42310504972640
  H   2.09335068351666     -0.83481254031912      1.01012943227335
  N   0.37288092811249      1.18660890510300     -0.95467147947004
  H   1.11612011854340      1.46347594101111     -1.58362604465696
  H   0.25700774068375      1.92808372138249     -0.27144055359426
