15
Coordinates from ORCA-job run
  C   -0.69296606362840     -0.37011678400408      0.42574440935630
  C   0.43279068842183      0.44989451508853     -0.23558948466408
  Cl  -0.06140435452275     -1.37910414111837      1.72682845652577
  H   -0.06891756344950      1.04629172315854     -1.00217270654193
  C   -1.75624962352057      0.48653986676531      0.92973004366814
  N   -2.62517179502696      1.16893345337392      1.32962043595241
  N   -1.29574770843916     -1.25189408557670     -0.69097210701369
  O   -1.83077885511428     -0.59595496567137     -1.57459937934688
  O   -1.17552099575572     -2.45906810681809     -0.62652082517494
  N   1.30461836419515     -0.48288564070087     -0.91671921301341
  H   1.88186264611663     -0.00107230286770     -1.59322968219361
  H   1.90672861146231     -0.96987764537329     -0.26373981542790
  N   0.95115626098923      1.36171034602887      0.75959440794030
  H   1.56036076382466      0.88429165037878      1.41262281486152
  H   1.46923962444754      2.11131211733652      0.32040264507199
