15
Coordinates from ORCA-job run
  C   -0.72716671269026     -0.39981604680114      0.51166994433747
  C   0.76890913863400      0.08179022306593      0.39196805836228
  Cl  -0.86511444189746     -1.72215015937721      1.65404908561353
  H   1.13630845429034      0.04610433443699      1.42084426172728
  C   -1.60613987799820      0.69407843742935      0.90012185676697
  N   -2.27384465057071      1.61098564857919      1.20864833943729
  N   -1.17230522744165     -0.85844372559151     -0.88888799835330
  O   -1.54642923559432     -2.00076843422826     -1.06309568914839
  O   -1.06426568229198      0.02384473862330     -1.73834681542296
  N   0.96222032486039      1.42238702740043     -0.09593829546953
  H   0.49591155715378      1.55729080868949     -0.98476192671798
  H   0.62253746422408      2.11761059793526      0.55744088921902
  N   1.45297036311879     -0.93528396740520     -0.37108862934128
  H   1.37754238205282     -0.72700708952730     -1.36133133243353
  H   2.43786614415040     -0.91162239322931     -0.14029174857688
