15
Coordinates from ORCA-job run
  C   -0.57182458524950     -0.48761999920727      0.55295943934623
  C   0.73531948615104      0.32632176603606      0.21907370153134
  Cl  -0.18487889193162     -1.93288944081347      1.48577777285956
  H   1.09400505540061      0.66537729276281      1.20312952467516
  C   -1.49728579511117      0.34875279291272      1.30191866511206
  N   -2.14889449181233      1.08494361794400      1.94700494055938
  N   -1.22457877774893     -0.88971592944587     -0.76712745922052
  O   -2.25169380077032     -0.30457906904241     -1.07682140039495
  O   -0.62108111518137     -1.72436302252552     -1.42655500090302
  N   0.32122861136001      1.36804861409618     -0.69204157757865
  H   1.15320582491360      1.81758480043567     -1.05265828583904
  H   -0.26267688286887      2.06293164079814     -0.24283228415541
  N   1.79630983655036     -0.39701643036535     -0.40672381520219
  H   1.47158681928729     -0.84469616735888     -1.25519411358451
  H   2.19125870701116     -1.09408046622681      0.20908989279455
