15
Coordinates from ORCA-job run
  C   -0.70025541303343     -0.38008793472069      0.40470805096153
  C   0.43622785941990      0.45507423253185     -0.21838632774742
  Cl  -0.09158733776616     -1.41385879964499      1.69704759270210
  H   -0.05201256349939      1.06634274544443     -0.98195691021372
  C   -1.77447619844611      0.46490013824663      0.90529016063931
  N   -2.65184951496129      1.13854361706902      1.30166005006440
  N   -1.28021901206181     -1.23984237526645     -0.74068313956678
  O   -1.15862652030339     -2.44783899537189     -0.69842828358694
  O   -1.79997950412441     -0.56688333853713     -1.62060511474549
  N   1.32235926766030     -0.46255750973055     -0.90195117924916
  H   1.91432526151990      0.03489789558766     -1.55419248010613
  H   1.91041830396343     -0.96400145351116     -0.24704163008358
  N   0.93409376030100      1.34697240969987      0.80472603483421
  H   1.45631538348717      2.10821203919910      0.39127602776422
  H   1.53326622784432      0.85812732900430      1.45853714833344
