15
Coordinates from ORCA-job run
  C   -0.66895110784329     -0.52291830858040      0.52390255479233
  C   0.70674456060799      0.16848640267016      0.29825925690637
  Cl  -0.51525047446822     -2.03150032104555      1.40928217088305
  H   1.04864786281476      0.44011592195155      1.30773573907204
  C   -1.55077650386055      0.38548644510956      1.24829128433961
  N   -2.16604653076935      1.16142045373181      1.88154749103770
  N   -1.28896184854774     -0.80012076046175     -0.85311898289409
  O   -2.28217394895982     -0.15428929934869     -1.15270117733382
  O   -0.70333028634707     -1.61922532238245     -1.54380360340171
  N   0.43111976908502      1.30189500963585     -0.57608851421216
  H   1.30648265298481      1.70261444467046     -0.88792153147411
  H   -0.10137786658280      2.02773873369545     -0.10810031237250
  N   1.66566399649767     -0.74340790869687     -0.24168150758548
  H   2.60709735884065     -0.41741611686041     -0.07629829168870
  H   1.51211236654791     -0.89787937408869     -1.22930457606854
