15
Coordinates from ORCA-job run
  C   -0.64701774894671     -0.41504865278798      0.40008663610094
  C   0.52793776967197      0.45118049006416     -0.19730062289601
  Cl  -0.08681068773899     -1.52386332161220      1.63192019203352
  H   0.05416333620534      1.01404151822863     -1.01576862996281
  C   -1.69494033962849      0.44520937802248      0.92650733534964
  N   -2.47688176512572      1.20459919503260      1.36751371923179
  N   -1.21677252519230     -1.18070817155986     -0.79954281619646
  O   -1.92232578942740     -0.50224520293697     -1.53815995066673
  O   -0.85347769713238     -2.33227617113573     -0.97819316449738
  N   1.60501854390061     -0.31145907612424     -0.74549256852931
  H   1.98815536126546     -0.94557161696995     -0.05509029104170
  H   1.34660291414750     -0.82123543591822     -1.57883859939630
  N   1.05181598229210      1.25412769212036      0.87844639604476
  H   1.91552940346549      1.67391200054443      0.55878956367530
  H   0.40800324224351      1.98833737503250      1.14712280075073
