15
Coordinates from ORCA-job run
  C   -0.66683683146612     -0.54234066793919      0.50637695780162
  C   0.70420992536835      0.16566851410927      0.30601020674726
  Cl  -0.50625292693036     -2.07362055239073      1.35063367392915
  H   1.03920146145956      0.41352978381953      1.32389925768468
  C   -1.55815150781442      0.33966135595959      1.25157786843769
  N   -2.18182114574971      1.09411261841696      1.90245165593604
  N   -1.27902673209333     -0.78660520953815     -0.88031445377887
  O   -0.68150610593083     -1.57882938551407     -1.59191119663160
  O   -2.27920339830859     -0.14465535651994     -1.16467244016248
  N   0.42310083910047      1.31945196888964     -0.53961163479408
  H   1.29667960049349      1.73554485586252     -0.83601324550028
  H   -0.11707920616654      2.02833630869748     -0.05464141910681
  N   1.67365014344069     -0.72402146980830     -0.25237010070446
  H   1.52403039899181     -0.85620467311500     -1.24384956433662
  H   2.61100548560555     -0.39102809092959     -0.07756556552124
