15
Coordinates from ORCA-job run
  C   -0.64484900763171     -0.59817578238145      0.30804145971372
  C   0.68891734119518     -0.04367177695588     -0.23197793647880
  Cl  -0.44683154066173     -2.23135456190140      0.96843990767185
  H   1.00695483567659     -0.74918258561840     -1.00944945724043
  C   -1.21314827659266      0.28705700145001      1.31210242084167
  N   -1.62708780097833      1.01814130485684      2.13343205866712
  N   -1.59829799491416     -0.69203999104321     -0.88958460144098
  O   -1.19367284592513     -1.36865372533791     -1.82265187986879
  O   -2.65341068915731     -0.08177443402545     -0.81767047498344
  N   1.60477894229804      0.10373162351818      0.88443246942916
  H   1.86253652317030     -0.79532691894279      1.27431677186626
  H   2.44923594165400      0.55749672969682      0.55722328560072
  N   0.37212603509856      1.21273757852585     -0.85711732332632
  H   0.98593356558947      1.41835940592478     -1.63205296807913
  H   0.40481497117889      1.96465613223401     -0.17848373237262
