15
Coordinates from ORCA-job run
  C   -0.71486711409683     -0.36338600324778      0.43759410075015
  C   0.46275216544575      0.45741686265478     -0.14835749869804
  Cl  -0.22722234953834     -1.31920644150261      1.82156114113392
  H   0.00477678404513      1.11691364233690     -0.89446855414268
  C   -1.82734704297678      0.50952668297683      0.78689531351136
  N   -2.72393107502307      1.22247542210416      1.04850848938208
  N   -1.20907253221055     -1.28669447276043     -0.70014164172680
  O   -1.49000774530255     -0.67433056505040     -1.72603637660897
  O   -1.26482201403052     -2.48825034525583     -0.52038540274802
  N   1.41763827719852     -0.48060135707090     -0.71660681215850
  H   2.34357948476807     -0.07531434822837     -0.69635218258389
  H   1.18949712125218     -0.69987880165033     -1.67926902608614
  N   0.97772964160600      1.28021195171150      0.90748612435353
  H   1.50551381927323      2.05991803157792      0.54029062894853
  H   1.55578257958976      0.74119974140456      1.54028169667346
