15
Coordinates from ORCA-job run
  C   -0.61624631538424     -0.48187049436308      0.55136214377768
  C   0.71369779641866      0.33296424022257      0.37492675594445
  Cl  -0.30985199996884     -1.90577246260160      1.54178677847952
  H   1.08615422652374      0.44340001152814      1.39806956510212
  C   -1.68524403724239      0.30875042218675      1.13937485310445
  N   -2.54689297958710      0.91014600392325      1.66577797752681
  N   -1.05255298245135     -0.91588795302513     -0.85496350548757
  O   -0.76557233088713     -2.03815705658615     -1.23666637916064
  O   -1.57680016746551     -0.02378535949794     -1.51579800509356
  N   0.38003404420522      1.64175480913548     -0.11984141596242
  H   -0.02535192837005      1.60102410235323     -1.04736506465017
  H   1.22732334562075      2.19469748684759     -0.16094568552967
  N   1.73073876161683     -0.34917776090628     -0.38616319247494
  H   1.46610047524220     -0.46715403580539     -1.35679495225492
  H   1.97546409172922     -1.24993195341144      0.00624012667886
