15
Coordinates from ORCA-job run
  C   -0.61236052363968     -0.63794071299586      0.30472313366501
  C   0.76993522797078     -0.17273259398731     -0.24289900601835
  Cl  -0.59636713434957     -2.32922469719140      0.79032279091333
  H   1.05277210952293     -0.93030727065111     -0.97815169464499
  C   -1.02595919316424      0.21483418835430      1.40953161870902
  N   -1.23832102829086      0.94346853713121      2.30737607008515
  N   -1.60793055154906     -0.48169552150185     -0.84668508576375
  O   -1.35160355627402     -1.13403699031923     -1.84885781446228
  O   -2.52754236328614      0.31333532692105     -0.69872951002606
  N   1.69232223011405     -0.22306915422912      0.86056740323356
  H   2.63424365732116     -0.14413898031993      0.49790725860591
  H   1.54068270366819      0.56417981466749      1.48299672220930
  N   0.71474792769762      1.10400033010898     -0.91496181937915
  H   0.21692069176177      1.07267367642280     -1.79500965771497
  H   0.33745980249707      1.83965404758998     -0.32913040941173
