15
Coordinates from ORCA-job run
  C   -0.64468111703286     -0.51123369778537      0.52183608300080
  C   0.77264568602742      0.15809884917954      0.35661625898492
  Cl  -0.55792090483927     -1.89328058663716      1.59630465941087
  H   1.19743847116952      0.11918837576364      1.36301422068907
  C   -1.62723030060805      0.44532748734821      1.01161455727489
  N   -2.37407097598708      1.25155867908955      1.42865384856152
  N   -1.10604090983594     -0.95420972686890     -0.87848408634240
  O   -1.16025695247586     -0.02429949017119     -1.68110133409878
  O   -1.33905673468562     -2.12576265182140     -1.09829980373448
  N   0.77397846791464      1.53448715973510     -0.06646629307482
  H   0.24789978665858      1.65206394561052     -0.92380128003572
  H   0.38619704902725      2.14932123011260      0.63879824316054
  N   1.53279896089231     -0.72736623708099     -0.49354925804835
  H   2.51868811489034     -0.59275304603875     -0.30929443120006
  H   1.37861135888462     -0.48114029043542     -1.46584138454800
