17
Coordinates from ORCA-job run
  C   -0.74151057016336      0.17361570816187     -0.17824044814743
  C   0.69461999321291     -0.10768835305446     -0.66619017998319
  Br  -1.82702475899648      0.48624679339035     -1.88566200453839
  H   0.63570630615469     -0.86409382491890     -1.45472338443803
  C   -1.37759493002393     -1.03225812027886      0.48844361618091
  H   -2.43711911353450     -0.84340243633150      0.67061175637034
  H   -0.88828459466988     -1.21868408776766      1.44664545145389
  H   -1.29727775845969     -1.91584063127367     -0.14602393749487
  N   -0.76196165166142      1.29143201346093      0.68198141103572
  H   -0.42365576533104      2.13497286641713      0.23332334512360
  H   -1.68514334397222      1.46062428489440      1.06038358188758
  C   1.60886576762997     -0.60244111605828      0.46344789156875
  H   2.63449727868385     -0.68637295601151      0.09956226496283
  H   1.29192219055707     -1.58689461284839      0.80926835254949
  H   1.58675963830647      0.09620740073307      1.29981236674322
  C   1.25912157026147      1.10896847880749     -1.25578203583870
  N   1.72607974200609      2.10560859267799     -1.66585804743572
