17
Coordinates from ORCA-job run
  C   -0.74780707712684      0.14867232533773      0.03005338833270
  C   0.75792588532161     -0.21176919491118     -0.11269690402513
  Br  -1.18203935066674      1.50144263497667     -1.33607731192470
  H   0.92800011383048     -0.98420077624225      0.65204521357232
  C   -1.62252653208108     -1.06846170307052     -0.21526037566652
  H   -2.66888785024221     -0.78671644915528     -0.10021892739461
  H   -1.38244620832558     -1.84108375208371      0.52498280779269
  H   -1.46550059198378     -1.48199772511895     -1.21111340344563
  N   -1.09819242994638      0.72141825179440      1.30588532011369
  H   -0.56000384390425      1.55256785184373      1.51335845418723
  H   -0.96802298657659      0.03803445396548      2.04449152390381
  C   1.73687719962774      0.93652073750830      0.13996487074834
  H   2.76247097163980      0.56848353468089      0.07887158559629
  H   1.60777136329228      1.72593075463737     -0.60016013216259
  H   1.59194660248657      1.35369754654075      1.13778457929224
  C   1.03530814429913     -0.83511694959753     -1.40792359550048
  N   1.27612659035585     -1.33742154110589     -2.44198709341965
