17
Coordinates from ORCA-job run
  C   -0.81109146383152      0.10883359331265     -0.26141390564610
  C   0.71790372990187      0.20595835026422     -0.53708456013231
  Br  -1.57452386050054     -0.93847091626894     -1.75545734858978
  H   0.83041704579717      0.64941355679677     -1.53391023380756
  C   -1.12714369623114     -0.60358090994072      1.04021155028153
  H   -2.20702332094815     -0.60393444203012      1.18835333925984
  H   -0.65665510056085     -0.07011916929163      1.87352656440919
  H   -0.77080550105293     -1.63269859702682      1.03588795882155
  N   -1.48425253922212      1.38148806134704     -0.27769258816482
  H   -1.23453923952305      1.91659029523003      0.54753027736086
  H   -1.24561547747437      1.91791532621460     -1.10407416525765
  C   1.50203786440807     -1.10767558962218     -0.47916987914710
  H   1.06386025909606     -1.83710267421795     -1.16004605374402
  H   2.53792905359773     -0.93369770375463     -0.77685032641639
  H   1.50774401123204     -1.51827958765273      0.53126868599970
  C   1.26975506916274      1.15898870430698      0.43233345154837
  N   1.68200316614900      1.90637170233341      1.23958723322467
