17
Coordinates from ORCA-job run
  C   -0.67654752268711      0.11835619427122      0.10078344004676
  C   0.79179285672544     -0.28350771208786     -0.14119063047027
  Br  -1.11909728479810      1.61677195460889     -1.20199046681333
  H   0.94423030189531     -1.15260061828912      0.51302685029311
  C   -1.63221102326294     -1.01462919919840     -0.22402202109866
  H   -2.66492335252768     -0.69553933321366     -0.06854085440320
  H   -1.41842642111148     -1.85545839880710      0.44257918323683
  H   -1.52753216965278     -1.33449596812987     -1.26010097967230
  N   -0.83467727755227      0.52453790421805      1.45007095566427
  H   -1.81180911810140      0.67215132745444      1.67127820938274
  H   -0.32931422073219      1.37676124794473      1.65534563913571
  C   1.82655609540876      0.78213109244042      0.22790114830716
  H   1.65566124479116      1.69953862799968     -0.33630154026021
  H   1.78781936746301      0.99478346434618      1.29756116286648
  H   2.82959313376313      0.41790353388415      0.00000614351224
  C   0.99236133660363     -0.74126434448424     -1.51714760774849
  N   1.18652405377551     -1.12643977295752     -2.60925863197884
