17
Coordinates from ORCA-job run
  C   -0.73118770383039      0.20987982397372      0.05899470747785
  C   0.73270717584023     -0.27327105974291     -0.14343314744088
  Br  -1.09865653343576      1.61390528633164     -1.27482913964770
  H   0.86392390123879     -1.07005629676730      0.60382054109416
  C   -1.71361879725441     -0.92593716882298     -0.16784453567134
  H   -2.72761590595536     -0.55903246253900     -0.01057760197207
  H   -1.51271338107080     -1.72662064585034      0.55403791017829
  H   -1.62796568455578     -1.33659435567004     -1.17353958723334
  N   -0.98594991667744      0.79163937957149      1.35303377152376
  H   -0.88634206775315      0.09009478499935      2.07917721606611
  H   -0.37406033147498      1.57314743534884      1.54888152021690
  C   1.81305251622642      0.78484498165345      0.08863524677282
  H   2.80141621746504      0.33418177249904     -0.01757202872375
  H   1.74050473574605      1.19441913280101      1.09761175517962
  H   1.72327358409365      1.59572343655751     -0.63417162636289
  C   0.91090232295093     -0.89609333760083     -1.45647304549857
  N   1.07332986844697     -1.39823070674264     -2.50575195595897
