17
Coordinates from ORCA-job run
  C   -0.74625723608289      0.22228209645861     -0.24712626830155
  C   0.69424380289962     -0.10827898009062     -0.69098828078246
  Br  -1.76010630148227      0.69507805509250     -1.86613348977695
  H   0.63953298170467     -0.93986905460058     -1.40293514421529
  C   -1.43941159117882     -0.98745093004176      0.37157645739708
  H   -0.96402119431388     -1.24120346800324      1.32346732509450
  H   -2.48610000919431     -0.75101890161850      0.56992133902518
  H   -1.40069648250659     -1.85832230261595     -0.28697032087910
  N   -0.72437367781249      1.40516490729828      0.59416346447847
  H   -1.64997050914926      1.81279208813872      0.65318968761331
  H   -0.44271260408861      1.14136856097601      1.53329938237353
  C   1.60177721301112     -0.50820851636364      0.48141121845243
  H   1.69311952607498      0.31016786036914      1.19761618081282
  H   2.60284458138847     -0.72950426894903      0.10745129413762
  H   1.22913263168038     -1.39925948864645      0.98785575910561
  C   1.29810536914191      1.02962885307179     -1.38905359697209
  N   1.85389349990798      1.90663348952470     -1.93674500756311
