17
Coordinates from ORCA-job run
  C   -0.73353551829378      0.13778877492173     -0.33908319632173
  C   0.79852536087484      0.15548399580135     -0.55163074585317
  Br  -1.51227761618077     -0.98838879690735     -1.75820287170627
  H   0.95620182783176      0.52435016893471     -1.57035258903593
  C   -1.14161804038834     -0.46022454402779      1.00044981763858
  H   -0.68926840692830      0.12739471538738      1.80655473492161
  H   -0.83425095131132     -1.50145925880408      1.10410663387909
  H   -2.22710251024367     -0.41386131280330      1.10682189869288
  N   -1.22495530390660      1.47913307464451     -0.58619083342356
  H   -0.89954575993721      2.09612104243576      0.15319397761324
  H   -2.23887199440091      1.48346630800581     -0.57401930045369
  C   1.51218913580439     -1.18422912363989     -0.35723285778419
  H   1.06947252170827     -1.94418895884637     -1.00109191775391
  H   1.45786916231927     -1.51702302438067      0.68008794922025
  H   2.56610416099785     -1.07897804824664     -0.62103980833970
  C   1.36091671358536      1.15013880420258      0.36919099129373
  N   1.77914721846916      1.93347618332226      1.13843811741276
