17
Coordinates from ORCA-job run
  C   -0.61442414201667      0.31006294386588      0.03904625959877
  C   0.76928983687533     -0.36631189560904     -0.07517329840264
  Br  -0.72133819374002      1.79449970643952     -1.24549933796628
  H   0.76936546042333     -1.13804888725286      0.70980224980258
  C   -1.74338429882170     -0.65789032162519     -0.29366222430401
  H   -1.69478907238796     -1.50981666179938      0.39484870215049
  H   -1.67866431209310     -1.03123169487087     -1.31641688421561
  H   -2.70732273072293     -0.16217943046571     -0.16331844503558
  N   -0.70251794631370      0.89889288209699      1.36478193735431
  H   -0.79176993820486      0.14916029158737      2.04602238086742
  H   -1.53499593673098      1.47413703904169      1.42929341494467
  C   1.95913259022437      0.56580682268021      0.16482761617239
  H   1.79084383836113      1.13440148046780      1.07822062959544
  H   2.87457723452241     -0.02138399636795      0.26156449097095
  H   2.07859563587373      1.25822650014139     -0.66797268814724
  C   0.90819642271832     -1.06870887159282     -1.35185947106589
  N   1.04120555203332     -1.63061590673703     -2.37450533231976
