17
Coordinates from ORCA-job run
  C   -0.74715877047369      0.16755625472600     -0.20690969295409
  C   0.76765846011739      0.22929630534224     -0.50062521846898
  Br  -1.54901303173790     -0.98824186118775     -1.69525108140512
  H   0.88433842842657      0.67016024159579     -1.49859584986828
  C   -1.08950437016599     -0.51888239092798      1.10001930067319
  H   -2.17053867809040     -0.50987911110965      1.25422474336324
  H   -0.61374175459199      0.02649889116173      1.91994326592340
  H   -0.76028676075831     -1.55641232325312      1.10703985030917
  N   -1.27693519138060      1.47426638221185     -0.23503462571923
  H   -1.10921444341011      1.94631695383082     -1.11496211447973
  H   -2.26737827998328      1.49059207378566     -0.02815071756516
  C   1.51049162275663     -1.10917498260755     -0.46139439186511
  H   1.49341991570187     -1.53705753485291      0.54175431351181
  H   2.55434590241094     -0.95128147944511     -0.73844765081977
  H   1.06653380024733     -1.81509174797406     -1.16194893949960
  C   1.38396610115560      1.14803733325781      0.46537639489408
  N   1.92201704977593      1.83429699544623      1.25196241397018
