17
Coordinates from ORCA-job run
  C   -0.80132156631446      0.10914610835589     -0.29517305880025
  C   0.73740426889081      0.20055861863386     -0.50890411698583
  Br  -1.50740649006356     -0.94664670869264     -1.81066284549825
  H   0.89183083263247      0.63812718915233     -1.50281785759119
  C   -1.17193135098965     -0.59248187565553      0.99795275735532
  H   -0.73300342034188     -0.05471694977657      1.84562947034550
  H   -2.25683432256754     -0.58795857417158      1.10306501020517
  H   -0.81965561284256     -1.62286092465367      1.01544913291680
  N   -1.46904804876727      1.38395106216968     -0.34741495088177
  H   -1.19479467785711      1.91402965790066     -1.16684625238317
  H   -1.25238128405973      1.92386564158957      0.48399115034903
  C   1.51550827593541     -1.11398913124195     -0.41079475760339
  H   1.10632682320349     -1.84540079590400     -1.10748249999952
  H   2.56398806260965     -0.94321546871990     -0.66271729982093
  H   1.47542635975686     -1.52043607205318      0.60056102221909
  C   1.25398080318826      1.15849759203930      0.47511984778895
  N   1.66091134758680      1.90053063102772      1.29004524838445
