17
Coordinates from ORCA-job run
  C   -0.81598025808097      0.17832566511790     -0.24048368054108
  C   0.64864941607646     -0.08422327695053     -0.69511187084565
  Br  -1.83302278924616      0.52195672490242     -1.90675400118834
  H   0.63073585636131     -0.84511498877401     -1.48255115691994
  C   -1.42239680678493     -1.04680366335912      0.42139871091049
  H   -1.29726038008153     -1.93373185716698     -0.20196022305602
  H   -0.94792809561652     -1.22616776488108      1.39081704528362
  H   -2.48534453661126     -0.87416300525460      0.58699448593463
  N   -1.00583891410170      1.31961631736237      0.60738845569175
  H   -0.56255055016499      2.15210449152286      0.23653337635165
  H   -0.67277379783039      1.13558387550118      1.54575685714163
  C   1.54900228383090     -0.56057492445614      0.45242334892990
  H   1.52649523771136      0.14445842223150      1.28606335843940
  H   1.23918197738868     -1.54402001910733      0.80687559297296
  H   2.58198508518874     -0.63534255293528      0.10853267554583
  C   1.20647967232034      1.14347322019615     -1.26525588983144
  N   1.66156659964066      2.15462333605072     -1.65266708481939
