17

C	0.0	0.0	0.0
C	-0.496755	0.044922	-1.445681
Br	2.059246	0.0	0.0
H	-1.594412	0.083518	-1.315283
C	-0.41967	1.221983	0.785678
H	-0.002449	2.133356	0.355858
H	-1.515149	1.24474	0.765192
H	-0.077299	1.138394	1.819933
N	-0.472511	-1.173388	0.566156
H	-0.234373	-1.308168	1.5354
H	-0.323474	-1.983835	-0.016914
N	-0.155078	-1.18499	-2.149715
H	0.778123	-1.115456	-2.537347
H	-0.815794	-1.337273	-2.900582
C	-0.059592	1.262627	-2.144874
N	0.261571	2.21718	-2.750576
Br	-3.929733	0.0	0.0
