17

C	0.0	0.0	0.0
C	-0.486531	0.129541	-1.458432
Br	2.033669	0.0	0.0
H	-1.577535	0.251442	-1.331213
C	-0.455162	1.174378	0.837975
H	-0.088133	1.074188	1.862696
H	-0.084446	2.114207	0.428102
H	-1.551269	1.158182	0.831916
N	-0.480089	-1.209527	0.523723
H	-0.462813	-1.242771	1.531892
H	-0.047291	-2.027621	0.1229
N	-0.270478	-1.020782	-2.315546
H	0.680706	-1.359947	-2.220992
H	-0.929125	-1.742086	-2.049419
C	0.04986	1.337083	-2.097694
N	0.471113	2.303215	-2.615288
Br	-3.905548	0.0	0.0
