17

C	0.0	0.0	0.0
C	-0.355158	-0.281591	-1.483274
Br	2.031083	0.0	0.0
H	0.349345	0.276936	-2.106449
C	-0.432547	1.392341	0.424533
H	-0.028272	2.14307	-0.255126
H	-1.52141	1.439622	0.407869
H	-0.062457	1.596582	1.43237
N	-0.564854	-0.968706	0.82675
H	-0.600378	-0.727426	1.804318
H	-0.251385	-1.915723	0.672422
N	-1.68898	0.195886	-1.761033
H	-2.397551	-0.132693	-1.095769
H	-1.986364	-0.083691	-2.688015
C	-0.120105	-1.7193	-1.760557
N	0.021721	-2.861376	-1.998232
Br	-4.565051	0.0	0.0
