15

C	0.0	0.0	0.0
C	-0.496774	0.43263	-1.376332
F	1.354946	0.0	0.0
H	-1.593569	0.352865	-1.380834
H	-0.176259	1.441153	-1.621172
N	-0.357563	1.161333	0.966998
O	-0.739749	0.883266	2.092491
O	-0.122093	2.291397	0.543508
N	-0.483923	-1.194062	0.558321
H	-0.341702	-1.923359	-0.129904
H	-1.490728	-1.083014	0.704897
N	0.034909	-0.441343	-2.455316
O	0.218699	-1.640195	-2.227085
O	0.219451	0.093684	-3.540863
Br	-3.673439	0.0	0.0
