15

C	0.0	0.0	0.0
C	-0.286924	0.085106	-1.507448
F	1.391098	0.0	0.0
H	-0.276141	1.124395	-1.819745
H	0.547175	-0.456041	-1.956646
N	-0.283168	1.363323	0.713811
O	-0.408877	2.380594	0.043214
O	-0.267399	1.310179	1.939953
N	-0.496798	-1.090635	0.681081
H	-0.314821	-0.97872	1.673182
H	-1.508571	-1.150989	0.521817
N	-1.47547	-0.554669	-2.144578
O	-1.648693	-1.749026	-1.938306
O	-2.076009	0.132359	-2.963926
Br	-3.643808	0.0	0.0
