17

C	0.0	0.0	0.0
C	-0.24781	0.104588	-1.570896
Cl	1.77766	0.0	0.0
H	0.466353	-0.618077	-1.980068
N	-0.306603	1.188635	0.757976
H	-1.325754	1.148705	0.836429
H	0.080808	1.036789	1.686078
N	-0.624704	-1.220291	0.551818
O	-0.593923	-1.321642	1.80883
O	-0.618502	-2.23512	-0.210351
N	0.098174	1.417319	-2.095826
H	1.023635	1.663545	-1.768076
H	-0.541405	2.066432	-1.651661
N	-1.590416	-0.166048	-2.066894
H	-1.876792	-1.058745	-1.681162
H	-1.472303	-0.276315	-3.072772
H	-2.154309	0.0	0.0
