17

C	0.0	0.0	0.0
C	-0.247219	0.072918	-1.573079
Cl	1.777637	0.0	0.0
H	0.452733	-0.672332	-1.964778
N	-0.302751	1.208646	0.730474
H	0.089351	1.08011	1.658999
H	-1.321271	1.16995	0.816871
N	-0.653311	-1.197324	0.576192
O	-0.652242	-2.23171	-0.160073
O	-0.634368	-1.267035	1.837325
N	0.124101	1.364766	-2.129611
H	1.095014	1.547531	-1.902778
H	-0.42326	2.056723	-1.624979
N	-1.596292	-0.18769	-2.055238
H	-1.885645	-1.073966	-1.658712
H	-1.481378	-0.315596	-3.058645
H	-2.127592	0.0	0.0
