17

C	0.0	0.0	0.0
C	-0.217682	0.130434	-1.545995
Cl	1.844877	0.0	0.0
H	0.369032	-0.692201	-1.965822
N	-0.340171	1.16231	0.788086
H	-0.028337	0.954087	1.732103
H	0.169614	1.948689	0.404898
N	-0.599997	-1.190497	0.552497
O	-0.603002	-1.246864	1.825326
O	-0.520611	-2.222578	-0.177078
N	0.291747	1.462778	-1.955325
H	1.301351	1.474327	-1.87466
H	0.06421	1.572248	-2.93663
N	-1.559205	-0.048739	-2.056864
H	-2.112699	0.772295	-1.843774
H	-1.49252	-0.163021	-3.067917
H	-1.907658	0.0	0.0
