17

C	0.0	0.0	0.0
C	-0.390204	-0.000455	-1.525964
Cl	1.763891	0.0	0.0
H	0.374378	-0.615215	-2.006707
N	-0.654214	0.980035	0.74077
H	-1.678348	0.793201	0.605317
H	-0.43997	0.88092	1.727339
N	-0.284119	-1.438929	0.575939
O	-0.562983	-1.502967	1.767675
O	-0.150198	-2.400917	-0.172439
N	-0.205152	1.381805	-1.963485
H	-0.704661	1.980478	-1.314379
H	-0.69413	1.431956	-2.850937
N	-1.668886	-0.533514	-1.912564
H	-1.635716	-1.544568	-1.837114
H	-2.415471	-0.229008	-1.247732
H	-3.300749	0.0	0.0
