17

C	0.0	0.0	0.0
C	-0.203269	0.009824	-1.570982
Cl	1.843896	0.0	0.0
H	0.493064	-0.756249	-1.921121
N	-0.359144	1.198232	0.700069
H	-0.096785	1.979292	0.113083
H	0.137893	1.214871	1.583258
N	-0.661201	-1.153824	0.594887
O	-0.630806	-2.217199	-0.116841
O	-0.646951	-1.188977	1.85902
N	0.127563	1.354252	-2.056146
H	1.133204	1.472866	-2.045216
H	-0.18273	1.374307	-3.020847
N	-1.473976	-0.349582	-2.168458
H	-1.658823	-1.287489	-1.817585
H	-2.185843	0.243954	-1.751686
H	-1.953179	0.0	0.0
