14
Coordinates from ORCA-job run
  C   0.85915448891599     -0.80359615627656     -0.53209429522258
  C   -0.51691111181504     -0.15797795728905     -0.30684472642370
  Cl  0.72208527387374     -2.55993283163159     -0.79915851271370
  H   -1.14908553204888     -0.50981462227764     -1.12851678936171
  H   1.32133689596942     -0.39047301832293     -1.43195197150089
  C   1.73267427509242     -0.53595780556731      0.60791159347048
  N   2.39300616237082     -0.26434153175079      1.54028009846185
  C   -0.39006552791913      1.36423600501441     -0.37705416787240
  H   0.24924819619848      1.73616161339216      0.42890874361760
  H   0.02760008377763      1.69972385350631     -1.33075765220723
  H   -1.37633729629742      1.81886412789539     -0.26080468396578
  N   -1.07994598526753     -0.66892743941611      0.93058916468952
  H   -0.70998341907332     -0.16040761811363      1.72589949787728
  H   -2.08577650377718     -0.56555661916267      0.93359370115126
