14
Coordinates from ORCA-job run
  C   1.07653736213441     -0.34639903250539      0.10488589795783
  C   -0.29895737128133      0.20240267339953     -0.34538834851845
  Cl  2.42789321908261      0.67938937829633     -0.46708009219785
  H   -0.25025790829623      0.32040940815263     -1.43321043616910
  H   1.12665499672441     -0.34895873475265      1.19794780866942
  C   1.26978361368394     -1.70918849074114     -0.38237019931226
  N   1.36810517321208     -2.80563000155095     -0.79182786997804
  C   -0.58455381265430      1.54781316767105      0.30263849695532
  H   0.18278159721968      2.28585772043050      0.07080129785161
  H   -0.64135830002778      1.44028534701368      1.39119104185634
  H   -1.54880880349493      1.91286362185277     -0.05144169929340
  N   -1.38572763822921     -0.71073681830549     -0.04588924209375
  H   -1.47510401290974     -0.86103308012488      0.95210234566456
  H   -1.26598811516360     -1.60707515883600     -0.50135900139223
