14
Coordinates from ORCA-job run
  C   1.11559660458067     -0.42378499646148      0.05348794592197
  C   -0.25906951786847      0.18437933493518     -0.26797299224580
  Cl  2.44918673495023      0.56682985817713     -0.60834079983889
  H   -0.29912893909747      0.33751705843743     -1.35695082333741
  H   1.23772262258519     -0.45946720184844      1.13809649017538
  C   1.21388967665103     -1.77771800159756     -0.48495017018969
  N   1.24058670088894     -2.85974151899957     -0.94043178594408
  C   -0.44492525999801      1.51626324564635      0.43916651635012
  H   -1.40803450781792      1.95330778614940      0.16287005235332
  H   -0.43652045105814      1.36144433110890      1.52135218137058
  H   0.33466438457228      2.22910323218167      0.17265723458577
  N   -1.24323101526966     -0.76679885224929      0.23549613170551
  H   -1.35733922309357     -1.54480257133445     -0.40358297332689
  H   -2.14339781002510     -0.31553170414528      0.33910299242012
