12

C	0.0	0.0	0.0
C	-0.531317	0.278835	-1.399654
F	1.384437	0.0	0.0
H	-1.630886	0.164056	-1.257404
H	-0.292223	-1.020018	0.283069
H	-0.297174	1.317994	-1.647041
N	-0.531616	1.007945	0.865285
H	-0.334915	0.731271	1.823157
H	-1.558014	0.850305	0.715219
C	-0.007976	-0.592176	-2.442665
N	0.367184	-1.257582	-3.335346
F	-2.833956	0.0	0.0
