17

C	-0.361706	0.029527	-1.494885
C	0.0	0.0	0.0
Cl	-0.031154	-1.58939	-2.252416
H	1.101205	0.0	0.0
C	-1.781724	0.306575	-1.71915
N	-2.917591	0.556215	-1.892467
C	0.56414	1.0412	-2.161646
H	0.492761	0.990374	-3.251122
H	1.574426	0.805875	-1.800547
H	0.286039	2.036809	-1.814323
N	-0.647119	-1.113369	0.705041
H	-0.190372	-1.151919	1.613243
H	-0.380314	-1.973845	0.239768
N	-0.435168	1.271143	0.557933
H	0.282937	1.598331	1.191172
H	-1.305551	1.135585	1.059832
F	2.706887	0.0	0.0
