17

C	-0.295377	-0.030954	-1.50323
C	0.0	0.0	0.0
Cl	-2.039436	-0.426771	-1.865997
H	1.102682	0.0	0.0
C	-0.060176	1.287537	-2.096903
N	0.125319	2.348724	-2.567256
C	0.62717	-1.064093	-2.134373
H	0.336668	-2.043328	-1.752849
H	1.634866	-0.826132	-1.766677
H	0.565153	-1.04887	-3.224276
N	-0.431102	-1.243432	0.598925
H	-1.347517	-1.116597	1.014588
H	0.239862	-1.497148	1.312437
N	-0.629005	1.154609	0.658694
H	-0.225629	1.177778	1.591959
H	-0.286703	2.00144	0.211049
F	2.693935	0.0	0.0
