17

C	-0.610221	0.102671	-1.402768
C	0.0	0.0	0.0
Cl	-0.070714	1.640588	-2.20363
H	1.106106	0.0	0.0
C	-0.11678	-0.996693	-2.235234
N	0.194426	-1.871827	-2.954189
C	-2.133834	0.090434	-1.395125
H	-2.462532	-0.856009	-0.96226
H	-2.49317	0.912602	-0.776676
H	-2.529328	0.184563	-2.408554
N	-0.428829	-1.284377	0.545419
H	0.382091	-1.708973	0.978442
H	-1.146332	-1.130378	1.245094
N	-0.524289	1.098726	0.842588
H	0.093459	1.090953	1.651745
H	-0.293186	1.969649	0.370443
F	2.649416	0.0	0.0
