17

C	-0.619633	0.002968	-1.403733
C	0.0	0.0	0.0
Cl	0.006238	1.408287	-2.343633
H	1.100957	0.0	0.0
C	-0.229415	-1.205259	-2.136595
N	0.013046	-2.160868	-2.776232
C	-2.139026	0.102977	-1.366712
H	-2.538296	-0.762636	-0.832171
H	-2.40391	1.025507	-0.847824
H	-2.558073	0.121926	-2.37447
N	-0.388873	-1.269789	0.624696
H	-1.132167	-1.147049	1.303355
H	0.433113	-1.616452	1.10676
N	-0.406292	1.214016	0.707898
H	0.424046	1.560167	1.176613
H	-1.107447	1.011477	1.41254
F	2.627786	0.0	0.0
