15

C	-0.422432	0.161259	-1.449269
C	0.0	0.0	0.0
Br	0.010654	-1.514817	-2.468811
H	1.0961	0.0	0.0
H	-1.502741	0.24571	-1.550573
N	0.252928	1.30584	-1.945333
H	0.056331	1.458284	-2.92546
H	1.256694	1.200565	-1.810138
N	-0.566539	-1.234936	0.620224
O	0.08025	-1.743559	1.531817
O	-1.680435	-1.601935	0.24871
N	-0.544851	1.108008	0.779475
H	0.088462	1.253712	1.560102
H	-0.467502	1.930559	0.190247
Cl	3.357689	0.0	0.0
