15

C	-0.616545	0.036592	-1.390654
C	0.0	0.0	0.0
Br	0.174299	1.607036	-2.361295
H	1.089441	0.0	0.0
H	-0.293618	-0.813812	-1.9839
N	-2.026081	0.101141	-1.27508
H	-2.471048	0.164029	-2.180739
H	-2.260091	0.920375	-0.723836
N	-0.387588	-1.361639	0.562829
O	-0.943001	-1.416255	1.660095
O	-0.10818	-2.33633	-0.125338
N	-0.515688	1.06143	0.827113
H	0.274233	1.543957	1.236757
H	-1.058165	0.652489	1.578904
Cl	3.30355	0.0	0.0
