15

C	-0.437011	0.170166	-1.442979
C	0.0	0.0	0.0
Br	0.006582	-1.4892	-2.487918
H	1.096682	0.0	0.0
H	-1.51883	0.244974	-1.535037
N	0.225088	1.326166	-1.933053
H	0.019739	1.489321	-2.909595
H	1.231464	1.224701	-1.807828
N	-0.558679	-1.237763	0.621072
O	0.076039	-1.716239	1.557447
O	-1.656015	-1.634233	0.229748
N	-0.541319	1.100248	0.793417
H	-0.463742	1.9296	0.214438
H	0.095004	1.233948	1.573757
Cl	3.352572	0.0	0.0
