15

C	-0.355071	-0.120775	-1.482761
C	0.0	0.0	0.0
Br	-2.309609	-0.423864	-1.671224
H	1.092026	0.0	0.0
H	-0.205395	0.880243	-1.88603
N	0.372419	-1.069545	-2.268117
H	1.339898	-0.749285	-2.273875
H	0.373288	-1.956653	-1.777434
N	-0.422716	-1.253801	0.754165
O	-1.086551	-1.114544	1.780491
O	-0.074921	-2.34133	0.296743
N	-0.497796	1.193361	0.583125
H	0.037096	1.411088	1.413227
H	-1.472078	1.092172	0.837407
Cl	3.286832	0.0	0.0
