15

C	0.0	0.0	0.0
C	-0.215871	0.069039	-1.520919
F	1.338589	0.0	0.0
H	0.210053	1.018855	-1.83407
H	0.33055	-0.774125	-1.936518
N	-0.419582	1.231968	0.725902
O	-0.401419	1.230122	1.959903
O	-0.494787	2.255684	0.027138
N	-0.397167	-1.306327	0.612565
O	-0.371589	-2.259085	-0.182196
O	-0.482135	-1.419024	1.835593
N	-1.571916	0.009869	-2.126651
O	-1.999989	-1.100566	-2.436133
O	-2.100231	1.080633	-2.423817
H	-1.960347	0.0	0.0
