15

C	0.0	0.0	0.0
C	-0.175933	-0.160724	-1.51637
F	1.370639	0.0	0.0
H	0.346054	-1.077094	-1.781742
H	0.291661	0.712731	-1.964379
N	-0.353615	1.345352	0.537533
O	-0.445536	2.246651	-0.307115
O	-0.322913	1.527149	1.755125
N	-0.351076	-1.205119	0.811
O	-0.347678	-2.267423	0.173412
O	-0.424374	-1.124393	2.035812
N	-1.521844	-0.266585	-2.135256
O	-1.988939	-1.394803	-2.277517
O	-2.011474	0.764978	-2.592544
H	-1.881224	0.0	0.0
