15

C	0.0	0.0	0.0
C	-0.488021	0.200566	-1.432941
F	1.327937	0.0	0.0
H	-1.020325	-0.671402	-1.784075
H	-1.050082	1.116942	-1.528207
N	-0.366488	1.176369	0.879994
O	-0.360242	1.040397	2.100803
O	-0.404	2.264342	0.294457
N	-0.378143	-1.368213	0.533309
O	-0.462412	-1.559152	1.742012
O	-0.358825	-2.261814	-0.319762
N	0.711078	0.357003	-2.364092
O	1.00196	1.498957	-2.726671
O	1.294441	-0.664015	-2.726094
H	-2.09008	0.0	0.0
