19

C	0.0	0.0	0.0
C	-0.422616	0.102826	-1.471206
Cl	1.768189	0.0	0.0
H	0.045836	-0.761725	-1.948051
N	-0.448262	1.190766	0.865897
O	-1.523596	1.689672	0.576677
O	0.2524	1.471084	1.830435
C	-0.597451	-1.222173	0.662997
H	-0.18317	-1.328449	1.666747
H	-0.362477	-2.116273	0.082327
H	-1.684048	-1.097692	0.723924
N	0.257539	1.265005	-2.142109
O	0.349042	2.323194	-1.527412
O	0.632966	1.077437	-3.298472
C	-1.895625	0.140604	-1.838697
H	-1.955724	0.085342	-2.928902
H	-2.39331	1.034401	-1.478366
H	-2.449275	-0.690305	-1.405746
Cl	-4.648571	0.0	0.0
