19

C	0.0	0.0	0.0
C	-0.177435	0.008657	-1.557745
Cl	1.779096	0.0	0.0
H	0.33683	0.903531	-1.899093
N	-0.468514	1.292281	0.623938
O	-0.561161	1.293866	1.843929
O	-0.647312	2.2405	-0.122062
C	-0.488345	-1.208496	0.761675
H	-0.085799	-1.163992	1.779058
H	-0.115322	-2.104957	0.26741
H	-1.583648	-1.19794	0.787498
N	-1.529483	0.154223	-2.218607
O	-1.773263	1.266655	-2.681474
O	-2.207708	-0.843467	-2.360701
C	0.378954	-1.236006	-2.249625
H	-0.200238	-2.114481	-1.980834
H	1.426922	-1.396436	-2.033606
H	0.276918	-1.094041	-3.329932
Cl	-3.533508	0.0	0.0
