19

C	0.0	0.0	0.0
C	-0.410202	0.145997	-1.476403
Cl	1.768437	0.0	0.0
H	0.000648	-0.748071	-1.952558
N	-0.443758	1.169631	0.890346
O	-1.415426	1.809433	0.520055
O	0.160436	1.308858	1.947418
C	-0.599712	-1.240034	0.622752
H	-1.689436	-1.125924	0.655866
H	-0.21464	-1.356537	1.635982
H	-0.341502	-2.122029	0.034234
N	0.346883	1.26109	-2.151009
O	0.686778	1.05271	-3.314604
O	0.520305	2.30769	-1.536811
C	-1.872021	0.300513	-1.861831
H	-2.53806	-0.350434	-1.294355
H	-2.231558	1.306113	-1.666613
H	-1.966978	0.066056	-2.925302
Cl	-4.631641	0.0	0.0
