12
Coordinates from ORCA-job run
  C   0.70373565758921      0.19346740699607      0.04458192596194
  C   -0.71135508814937     -0.27247819025412     -0.23661236546816
  Br  0.79373618385359      2.13052886269503     -0.14328486347871
  H   -1.05866306613991      0.07899064458269     -1.20476266849438
  H   0.95677626864507      0.00642787069274      1.09140932809085
  H   -0.75497754553474     -1.36410346728807     -0.18148367710443
  N   1.57752245340551     -0.41096080875242     -0.93854104985998
  H   1.66596942943568     -1.40233300522167     -0.73794345473313
  H   2.50092152785998      0.00095437274506     -0.88524896552770
  N   -1.65617473205340      0.22755337030985      0.80100638353609
  O   -1.36033591904975     -0.01399030460109      1.96952030422662
  O   -2.65715516986187      0.82594324809593      0.41935910285098
