12
Coordinates from ORCA-job run
  C   0.81879954581732      0.07094461630704      0.31092710093499
  C   -0.61907612462776      0.51564438427577      0.47517813218813
  Br  1.91453857504490      1.46642804393474      1.12500635534218
  H   -0.80583935058232      1.42607475781239     -0.09274140951798
  H   1.01531754089164     -0.82379405005861      0.90850016751641
  H   -0.88921292905716      0.66680731918013      1.52124272698711
  N   1.15715882271720     -0.02885529093379     -1.09016613418080
  H   2.15929507701656     -0.12104746697101     -1.20113160669253
  H   0.72333128645488     -0.86958512645356     -1.45676564221283
  N   -1.58028709980022     -0.51197225354585     -0.04797487620947
  O   -2.74546350391339     -0.15335669886565     -0.16124374923574
  O   -1.14956183996163     -1.63928823468161     -0.29283106491948
