12
Coordinates from ORCA-job run
  C   0.70016226521709      0.40791048700399     -0.00236329850699
  C   -0.55255936870883     -0.45808422317498     -0.04253193485995
  Br  0.34473628966101      2.03138180014065     -1.03785207579971
  H   -0.85230270220037     -0.69709283479116     -1.06182851631345
  H   0.87625862875512      0.74338272019403      1.01886909695942
  H   -0.37296244040264     -1.37072631741726      0.53241569110393
  N   1.88002786002509     -0.23030937842863     -0.50523602370979
  H   2.24361370492008     -0.90197993534533      0.15865195983881
  H   1.72260086671574     -0.67364142492674     -1.40094514319378
  N   -1.71060377900842      0.21791419598920      0.61090037304620
  O   -2.76256919531888      0.28613658408745     -0.01670605038019
  O   -1.51540212965500      0.64510832666877      1.74662592181549
