12
Coordinates from ORCA-job run
  C   0.82812134031756      0.28728225730669      0.26288025955156
  C   -0.50839973859789     -0.19141358961996      0.79646374773524
  Br  0.55858077916524      2.20671698650632     -0.34352906412051
  H   -0.42207720709843     -1.24489538591147      1.07507497712067
  H   1.50134425462502      0.41672144864971      1.10992210382849
  H   -0.83705654874648      0.40905058934272      1.64076386141956
  N   1.40455322991947     -0.57182772041382     -0.68550424116740
  H   2.32197692404305     -0.26338668793858     -0.97497691785957
  H   0.80330569542712     -0.71236220514025     -1.48583576876165
  N   -1.60570416044125     -0.11823307259151     -0.21439363044706
  O   -1.36793327338066     -0.57016717800264     -1.33358771382073
  O   -2.67571129523275      0.35351455781278      0.15172238652139
