12
Coordinates from ORCA-job run
  C   0.86925810567864      0.36494129939875      0.16868723063378
  C   -0.51119082793264      0.04810320120981      0.75021397722732
  Br  0.73868025646269      2.12569162774476     -0.71416430922611
  H   -0.82426586528734      0.79627079777570      1.47541660534656
  H   1.53521574330639      0.53903834403124      1.01585839967016
  H   -0.48755169789065     -0.94753304464724      1.20135989124817
  N   1.46910307552013     -0.58523609915797     -0.70382973351634
  H   1.94552830674891     -1.31273160133502     -0.18906870221543
  H   0.79470422262203     -0.97980975465679     -1.34444150278180
  N   -1.57494782850415      0.00518764639540     -0.29303286448456
  O   -1.40401137507668     -0.78205697927926     -1.22447231020206
  O   -2.55252211564732      0.72913456252060     -0.14152668169967
