12
Coordinates from ORCA-job run
  C   0.87566819401837      0.35136622389139      0.16092342219109
  C   -0.51240865864284      0.08033310915048      0.74716006733550
  Br  0.78224165552774      2.08581725588069     -0.77617608954515
  H   -0.51077603894454     -0.90079509534713      1.22967547690712
  H   1.54274915307484      0.53735325272379      1.00471090988073
  H   -0.81193637213379      0.85680679152009      1.44797270794112
  N   1.45971151964741     -0.63650788386215     -0.68009527032767
  H   1.91689846186514     -1.35908596487241     -0.14148432593770
  H   0.78066966568139     -1.03510507631580     -1.31317479260996
  N   -1.57510343308470      0.02686719415180     -0.29694518448966
  O   -1.41032489845971     -0.77923249086942     -1.21317144499153
  O   -2.53838924854927      0.77418268394868     -0.16939547635395
