12
Coordinates from ORCA-job run
  C   0.71080188532049      0.16627481087264     -0.02966800849373
  C   -0.74040460383348     -0.25429013174381     -0.15671530124710
  Br  0.85432096460149      2.08627871370924     -0.32553724651220
  H   -1.16311921285005      0.06465378422998     -1.10593791661142
  H   1.05288804469982      0.01945720917199      0.99810991051532
  H   -0.81781671192910     -1.33929804636695     -0.04180896534923
  N   1.46693765470074     -0.52118061142415     -1.05522264597545
  H   1.54177726103412     -1.50327394064860     -0.80863451172791
  H   2.40421439778177     -0.14222497794693     -1.11091137194537
  N   -1.56509996758978      0.33329129391207      0.93583592685537
  O   -1.17388525715517      0.13004866612929      2.08344840830831
  O   -2.57061445478085      0.96026323010521      0.61704172218342
