12
Coordinates from ORCA-job run
  C   0.84518922916298      0.32225361688244      0.13771861038181
  C   -0.48447047229841      0.08966750256023      0.82908018548540
  Br  0.61070650108843      1.96214612456647     -1.03738707411176
  H   -0.41927754750678     -0.82457395307687      1.42474673760712
  H   1.55269808315609      0.68508032206136      0.88286718805061
  H   -0.76416670202417      0.93831111633510      1.44795704218497
  N   1.36074573466541     -0.81397552729160     -0.50486655862159
  H   2.27551976715633     -0.64890744379948     -0.90050454915003
  H   0.72643473054173     -1.17593796831182     -1.20373181221177
  N   -1.61536462580166     -0.11614000587089     -0.12482607962175
  O   -2.65662277618791      0.48952313876741      0.09978067870468
  O   -1.43239192195202     -0.90744692282235     -1.04883436869765
