12
Coordinates from ORCA-job run
  C   0.71537347198716      0.68004048467821     -0.19439316938366
  C   -0.56899006304150     -0.01887082771537      0.33083187507303
  Cl  0.83955089445990      2.33687129304827      0.44391547283516
  H   -0.55453910998717      0.06210592987045      1.42292956892414
  H   0.67168520349411      0.75366809345675     -1.28425098066299
  C   1.87916364457591     -0.10870325116870      0.19555762076863
  N   2.77414362543770     -0.79188916309305      0.53042090928304
  N   -0.69433718465957     -1.41293594083252     -0.02704408231890
  H   -0.70857540653451     -1.54714053078430     -1.03012763411171
  H   0.04783871780847     -1.96664775493378      0.38162544354374
  C   -1.73773838226334      0.71902318014123     -0.16599834127411
  N   -2.66157541127717      1.29547848733283     -0.60346668267637
