12
Coordinates from ORCA-job run
  C   0.75346498692228      0.77196402294089      0.22270994604362
  C   -0.60592383038066      0.05359773724813      0.28706569058645
  Cl  1.58455356386767      0.59048285531659      1.79472977810135
  H   -1.15884400726652      0.50817409647685      1.12387967106030
  H   0.59558924178595      1.84321620277332      0.07901188254994
  C   1.58581120071058      0.25174791191508     -0.85600252167049
  N   2.26078040545392     -0.12063983655069     -1.74153838308677
  N   -0.39962818182493     -1.37882777366412      0.39901361592395
  H   -1.26289322996047     -1.87919081158053      0.23027358224344
  H   -0.07100984636255     -1.60822777736725      1.32893404501851
  C   -1.34249995215820      0.35577169542522     -0.94575051589963
  N   -1.94040035078707      0.61393167706651     -1.92232679087065
