12
Coordinates from ORCA-job run
  C   0.78030236335417      0.81372795911910      0.21502401943730
  C   -0.56771170281519      0.08825484254494      0.39867414986468
  Cl  1.68960660489861      0.81743623731000      1.74161988469731
  H   -1.04356203736976      0.52735508515167      1.28060676069503
  H   0.60071570563263      1.85710644082570     -0.05425690556587
  C   1.55367946962600      0.16939554864921     -0.84262349186058
  N   2.13142507202839     -0.38122766674337     -1.70428233119470
  N   -0.35329484003102     -1.31964740110952      0.64683830426465
  H   -1.18973687793250     -1.74735987354455      1.02189599581088
  H   -0.10189125253719     -1.80369370349225     -0.20738221560789
  C   -1.41414754921766      0.38903163678061     -0.77600986248708
  N   -2.08638495563648      0.58862089450847     -1.71910430805373
