12
Coordinates from ORCA-job run
  C   0.75017632224652      0.74521485506901     -0.18724879491914
  C   -0.50045322789635     -0.03791188542926      0.26178668810775
  Cl  0.80079086150979      2.34914329834127      0.58052138365079
  H   -0.50604965106966     -0.05335728291091      1.36138903871679
  H   0.70356085848685      0.88398965008029     -1.26870648130940
  C   1.94113336324700     -0.02367116761079      0.15912991631974
  N   2.86413645705289     -0.68242754917820      0.46467244875984
  N   -0.44874464987342     -1.34811950715183     -0.37324193495428
  H   0.14302382388380     -1.97116802817202      0.16311143928278
  H   -1.37154620575162     -1.75790458278650     -0.43707947590183
  C   -1.70122380897568      0.67679844723462     -0.18106026061178
  N   -2.67580414286012      1.22041375251433     -0.54427396714127
