12
Coordinates from ORCA-job run
  C   0.80552448936286      0.79491288423276      0.18918153231996
  C   -0.56282579494294      0.11600717789546      0.39944570253185
  Cl  1.72412298052643      0.81103659834399      1.71016709020751
  H   -1.01973590816818      0.59256613238576      1.27186401812783
  H   0.65605131012257      1.83588836074165     -0.10667189713745
  C   1.55248016241791      0.09994543152794     -0.85529423473686
  N   2.10977040809562     -0.48870267850425     -1.70516332732187
  N   -0.38954313905539     -1.29068970930504      0.68390770250711
  H   -1.23619483711659     -1.68256001526453      1.07473967264264
  H   -0.15828572782104     -1.80469477840965     -0.15842077626237
  C   -1.40633398503659      0.41059059870415     -0.77901343963279
  N   -2.07502995838466      0.60369999765176     -1.72574204324557
