15

C	-0.306812	-0.069554	-1.497355
C	0.0	0.0	0.0
Cl	-0.171301	1.671163	-2.182176
H	1.095608	0.0	0.0
H	-0.382356	0.929925	0.420412
N	0.590208	-0.971174	-2.105646
H	0.53687	-0.960562	-3.115224
H	1.543302	-0.791825	-1.784794
C	-1.697012	-0.442409	-1.797841
N	-2.809168	-0.759856	-2.005102
C	-0.51077	-1.220713	0.75537
H	-0.13346	-2.136079	0.297192
H	-0.141208	-1.185024	1.782832
H	-1.60374	-1.265578	0.781882
Cl	3.458061	0.0	0.0
