15

C	-0.328614	-0.057892	-1.491634
C	0.0	0.0	0.0
Cl	-0.119417	1.648548	-2.229767
H	1.09538	0.0	0.0
H	-0.314262	-0.971027	0.398931
N	0.512628	-1.017293	-2.095111
H	1.473093	-0.881384	-1.776216
H	0.464404	-0.993341	-3.104909
C	-1.744449	-0.361176	-1.754233
N	-2.871991	-0.631293	-1.947685
C	-0.614835	1.135988	0.792923
H	-1.703776	1.171684	0.68093
H	-0.386739	0.99513	1.852079
H	-0.201758	2.096419	0.489054
Cl	3.446935	0.0	0.0
