15

C	-0.56148	-0.028617	-1.422803
C	0.0	0.0	0.0
Cl	0.130536	-1.417932	-2.322232
H	1.093446	0.0	0.0
H	-0.321966	0.955143	0.436132
N	-2.016195	-0.148365	-1.529635
H	-2.427189	0.590647	-0.966767
H	-2.284632	-1.034503	-1.116298
C	-0.189394	1.201975	-2.137937
N	0.034252	2.22196	-2.675137
C	-0.487461	-1.15546	0.866323
H	0.027749	-1.111001	1.827567
H	-0.23599	-2.116034	0.411932
H	-1.564398	-1.125881	1.060168
Cl	3.482188	0.0	0.0
