15

C	-0.463204	0.05366	-1.449786
C	0.0	0.0	0.0
Cl	-2.240549	0.772965	-1.436412
H	1.094356	0.0	0.0
H	-0.304055	0.953435	0.444173
N	0.409017	0.807362	-2.230418
H	0.98538	1.459967	-1.72132
H	0.055682	1.137611	-3.113145
C	-0.689229	-1.266128	-2.057738
N	-0.856559	-2.323286	-2.54231
C	-0.559424	-1.158744	0.806044
H	-1.65301	-1.16499	0.808969
H	-0.210062	-1.078768	1.837474
H	-0.204097	-2.113244	0.413333
Cl	3.46493	0.0	0.0
