15

C	-0.338155	-0.16442	-1.481677
C	0.0	0.0	0.0
Cl	-0.187091	1.489316	-2.335754
H	1.092977	0.0	0.0
H	-0.310934	-0.941011	0.467157
N	0.522247	-1.140477	-2.02971
H	1.481893	-0.961211	-1.73452
H	0.456078	-1.192856	-3.038005
C	-1.745573	-0.527987	-1.704214
N	-2.867202	-0.84211	-1.856534
C	-0.617081	1.185297	0.713023
H	-0.187105	2.123161	0.362741
H	-0.415413	1.105252	1.783527
H	-1.702739	1.224822	0.573791
Cl	3.451069	0.0	0.0
