15

C	-0.554263	-0.010982	-1.424738
C	0.0	0.0	0.0
Cl	0.112066	-1.415931	-2.325428
H	1.093444	0.0	0.0
H	-0.321004	0.951681	0.44465
N	-2.008733	-0.100109	-1.542411
H	-2.304119	-0.969134	-1.111626
H	-2.408907	0.66306	-1.004402
C	-0.147792	1.212574	-2.133084
N	0.131611	2.233461	-2.640081
C	-0.491364	-1.162704	0.854244
H	-1.571414	-1.141634	1.032935
H	0.008835	-1.117619	1.823623
H	-0.226287	-2.118893	0.399174
Cl	3.49099	0.0	0.0
