15

C	-0.530449	0.024863	-1.428379
C	0.0	0.0	0.0
Cl	0.247093	-1.35007	-2.380639
H	1.09195	0.0	0.0
H	-0.333862	0.936224	0.460788
N	-1.960687	-0.054069	-1.466637
H	-2.256827	-0.91329	-1.020485
H	-2.28682	-0.063361	-2.425884
C	-0.131187	1.254051	-2.126356
N	0.111207	2.254286	-2.692189
C	-0.499191	-1.189202	0.813065
H	0.039119	-1.208727	1.762333
H	-1.569263	-1.135365	1.038178
H	-0.284426	-2.13069	0.303184
Cl	3.493517	0.0	0.0
