15

C	-0.553771	0.001029	-1.424823
C	0.0	0.0	0.0
Cl	0.118888	-1.393311	-2.338908
H	1.093418	0.0	0.0
H	-0.320719	0.948471	0.451915
N	-2.008785	-0.090303	-1.544328
H	-2.410959	0.658394	-0.987611
H	-2.299741	-0.970368	-1.132729
C	-0.15237	1.231903	-2.12336
N	0.086594	2.255254	-2.647087
C	-0.49298	-1.16915	0.84418
H	0.010198	-1.135617	1.812179
H	-1.572459	-1.145715	1.025547
H	-0.232876	-2.121969	0.379282
Cl	3.481645	0.0	0.0
