18

C	0.0	0.0	0.0
C	-0.312426	-0.243836	-1.508272
F	1.397556	0.0	0.0
H	0.496333	-0.917291	-1.827024
C	-0.546317	1.302506	0.528416
H	-0.151582	2.157319	-0.025292
H	-0.278703	1.410662	1.584645
H	-1.638025	1.230706	0.429651
C	-0.50866	-1.166635	0.81828
H	-1.60079	-1.103346	0.813043
H	-0.124618	-1.082761	1.840816
H	-0.18448	-2.116858	0.387985
C	-0.085993	1.010682	-2.269187
N	0.065144	1.968232	-2.935207
N	-1.592229	-0.868547	-1.763361
H	-1.849255	-0.725109	-2.732472
H	-2.342328	-0.474112	-1.124146
F	-3.233118	0.0	0.0
