18

C	0.0	0.0	0.0
C	-0.266497	-0.171123	-1.531991
F	1.402956	0.0	0.0
H	0.332093	-1.060776	-1.787196
C	-0.545273	1.292333	0.552477
H	-1.637048	1.216621	0.468589
H	-0.263396	1.394767	1.605422
H	-0.159709	2.153	-0.000667
C	-0.53379	-1.192256	0.756577
H	-0.184998	-2.127116	0.308192
H	-1.627302	-1.121116	0.713382
H	-0.197567	-1.151693	1.797982
C	0.387703	0.949467	-2.234148
N	0.855926	1.847664	-2.830815
N	-1.638864	-0.33608	-1.988428
H	-2.321198	-0.275431	-1.178443
H	-1.881061	0.439019	-2.592199
F	-3.226446	0.0	0.0
