18

C	0.0	0.0	0.0
C	-0.548908	0.031849	-1.422234
F	1.407484	0.0	0.0
H	-1.649678	0.052902	-1.218016
C	-0.473937	1.234295	0.740596
H	-1.56832	1.176777	0.722675
H	-0.095623	1.204407	1.767283
H	-0.117919	2.138041	0.245334
C	-0.479315	-1.25432	0.701509
H	-0.122907	-1.250714	1.73586
H	-1.574654	-1.203035	0.665956
H	-0.100542	-2.152748	0.206048
C	-0.191595	-1.192098	-2.162664
N	0.111056	-2.117606	-2.822849
N	-0.108417	1.231062	-2.140213
H	0.880071	1.139287	-2.349578
H	-0.60644	1.289468	-3.020237
F	-2.983598	0.0	0.0
