18

C	0.0	0.0	0.0
C	-0.307377	-0.090589	-1.500661
F	1.410562	0.0	0.0
H	0.102888	0.845218	-1.919246
C	-0.481348	1.298695	0.598871
H	-0.042183	1.420111	1.594847
H	-1.574757	1.206693	0.643819
H	-0.182456	2.150215	-0.023154
C	-0.465079	-1.2032	0.787974
H	-1.558996	-1.143275	0.786539
H	-0.116465	-2.122796	0.31517
H	-0.064509	-1.138241	1.806058
C	-1.711733	-0.141819	-1.973762
N	-2.455851	-0.20765	-2.888596
N	0.372308	-1.271085	-2.064726
H	0.195428	-1.283985	-3.062826
H	1.365488	-1.142197	-1.912777
F	-2.884259	0.0	0.0
