18

C	0.0	0.0	0.0
C	-0.515002	0.01406	-1.432733
F	1.407325	0.0	0.0
H	-1.619127	0.06836	-1.265381
C	-0.462153	1.246719	0.724937
H	-0.108871	2.139186	0.206513
H	-0.057577	1.235767	1.742389
H	-1.556071	1.190946	0.727677
C	-0.466248	-1.248921	0.714964
H	-0.047201	-2.143562	0.246452
H	-0.127483	-1.215869	1.755489
H	-1.560798	-1.225783	0.65983
C	-0.164591	-1.236138	-2.134416
N	0.1342	-2.181108	-2.769314
N	0.00107	1.18075	-2.15471
H	1.007514	1.07903	-2.237658
H	-0.384668	1.190221	-3.090955
F	-2.946917	0.0	0.0
