18

C	0.0	0.0	0.0
C	-0.308063	-0.142198	-1.5263
F	1.402712	0.0	0.0
H	0.394306	-0.922274	-1.851204
C	-0.536812	1.272962	0.604285
H	-0.151302	2.152684	0.084238
H	-1.629938	1.209239	0.524078
H	-0.250159	1.333279	1.659023
C	-0.535494	-1.209558	0.728356
H	-1.628477	-1.123825	0.691659
H	-0.191477	-1.204356	1.767104
H	-0.198751	-2.136971	0.253147
C	0.143545	1.085182	-2.219889
N	0.494588	2.052403	-2.786921
N	-1.646007	-0.491433	-1.957261
H	-1.724553	-1.500657	-1.897626
H	-2.357205	-0.142678	-1.252817
F	-3.234377	0.0	0.0
