18

C	0.0	0.0	0.0
C	-0.544862	-0.064649	-1.432882
F	1.405628	0.0	0.0
H	-1.644017	-0.115982	-1.246687
C	-0.485427	1.270294	0.667624
H	-0.097323	2.160115	0.164461
H	-0.143215	1.289957	1.706338
H	-1.581165	1.213218	0.618789
C	-0.479076	-1.208968	0.777058
H	-0.11492	-2.134714	0.323418
H	-1.573894	-1.151088	0.751661
H	-0.107087	-1.155312	1.805189
C	-0.084049	-1.282036	-2.11254
N	0.288657	-2.252262	-2.660625
N	-0.227673	1.083929	-2.286616
H	-0.842264	1.842737	-2.021493
H	0.725351	1.37422	-2.093619
F	-2.977999	0.0	0.0
