18

C	0.0	0.0	0.0
C	-0.329622	-0.163143	-1.494501
F	1.410518	0.0	0.0
H	0.043776	0.763917	-1.963923
C	-0.47926	1.327362	0.530133
H	-0.106807	1.471047	1.548617
H	-1.57458	1.259576	0.510744
H	-0.110588	2.147444	-0.095235
C	-0.468241	-1.163584	0.838391
H	-1.561434	-1.095883	0.834492
H	-0.123101	-2.101093	0.401148
H	-0.064545	-1.062293	1.851506
C	-1.73379	-0.290827	-1.948102
N	-2.494013	-0.460086	-2.835897
N	0.383207	-1.345604	-2.014297
H	1.375424	-1.175911	-1.899579
H	0.177538	-1.422136	-3.00327
F	-2.856477	0.0	0.0
