18

C	0.0	0.0	0.0
C	-0.303947	-0.203402	-1.521249
F	1.40275	0.0	0.0
H	0.417847	-0.977191	-1.815552
C	-0.538812	1.294344	0.553553
H	-1.631162	1.223893	0.47332
H	-0.252314	1.395313	1.605294
H	-0.153216	2.152716	-0.000487
C	-0.528985	-1.180816	0.777317
H	-0.180913	-1.12881	1.813447
H	-1.622138	-1.102776	0.738935
H	-0.186876	-2.125061	0.340684
C	0.116183	1.007992	-2.260556
N	0.441311	1.961881	-2.863753
N	-1.63174	-0.602125	-1.944154
H	-1.673437	-1.610876	-1.862979
H	-2.349564	-0.248434	-1.252081
F	-3.214751	0.0	0.0
