14
Coordinates from ORCA-job run
  C   1.02796792418586     -0.15192771351739     -0.17680900508034
  C   -0.42880981208010     -0.57621260845520     -0.36372582011090
  Cl  1.99771690727008     -1.61467920238526      0.16761090552740
  H   -0.50874798647509     -1.35334895983491     -1.12664321903412
  H   1.40072060553179      0.23919752494044     -1.12244901817591
  N   1.10543016887629      0.82611435270572      0.88597950417197
  H   1.52316196752839      1.68458391171037      0.55459460929289
  H   1.64415470548774      0.48618425567008      1.66979634867565
  N   -1.10631885365719      0.65138574878299     -1.02866001299041
  O   -0.63277959044338      1.01630941177117     -2.10287654468097
  O   -2.06103514997461      1.16193184648448     -0.45483140183320
  N   -1.02056933445496     -0.95622034184355      0.85033339636348
  H   -1.98825975499733     -1.22047051875147      0.73606507634194
  H   -0.95163179679749     -0.19284770727748      1.51161518153253
