14
Coordinates from ORCA-job run
  C   1.05231269035245     -0.10970806778172     -0.16689077501282
  C   -0.40715559401767     -0.53525024599149     -0.30754360954483
  Cl  2.02725693010361     -1.61856878264095      0.16628549033978
  H   -0.47781696707670     -1.43796270464850     -0.91387682042756
  H   1.42181251105447      0.25313159293399     -1.12303100529468
  N   1.16291374675973      0.89423174468994      0.82540070468801
  H   1.01451922312159      0.49936419383450      1.74638477385852
  H   2.06761182017112      1.34446692755993      0.80245137716799
  N   -1.07223809087357      0.55154679690488     -1.18143494802483
  O   -0.63036198679424      0.66788560802206     -2.32034382800777
  O   -1.98187648250319      1.20936216892843     -0.68943412310609
  N   -1.03409995639650     -0.69778139271943      0.94853609252620
  H   -1.88898607425828     -1.23003325490409      0.87103232050011
  H   -1.25689176964283      0.20831541581246      1.34146435033797
