14
Coordinates from ORCA-job run
  C   0.69294277301127      0.32879575070829      0.47402955477058
  C   -0.43563672419380     -0.01361793868654     -0.50002542472411
  Cl  1.14200673718321      2.08089863243420      0.25582372932846
  H   -0.11059932198178      0.15656544721722     -1.52816795126266
  H   0.31600197921769      0.24937270573234      1.49389069730285
  N   1.77017197376785     -0.57721197335909      0.27203503822014
  H   2.44805223554322     -0.51516646218060      1.02001708617157
  H   2.24333847691470     -0.38574975049159     -0.60346670267218
  N   -1.57334105138985      0.93432664464327     -0.27035811004804
  O   -1.92059886421519      1.66041355129262     -1.19329901977380
  O   -2.07784881086356      0.88689487787906      0.85025754392321
  N   -0.97225346487144     -1.33865401467648     -0.35075412630876
  H   -1.29100851785321     -1.46215095133247      0.60432261999409
  H   -0.23122742026911     -2.00671651918023     -0.52230493492135
