14
Coordinates from ORCA-job run
  C   0.98647092248757     -0.18469113906099     -0.12343312388711
  C   -0.49812719690741     -0.43976175307870     -0.41929751026135
  Cl  1.76283620459103     -1.77521672639481      0.14120367656763
  H   -0.59562309472853     -1.18575353644888     -1.20635668896175
  H   1.46903597037698      0.22390598006104     -1.01964602141142
  N   1.12520636348830      0.59689710957700      1.07717696936595
  H   2.10207457141870      0.73430520161281      1.30196270068778
  H   0.67550419433587      1.49691466668369      0.94757684116343
  N   -1.00860514863477      0.83986821841993     -1.07840453110678
  O   -1.10643321075777      1.83556533990943     -0.36500849475398
  O   -1.25756143851429      0.78983233290339     -2.27986108082843
  N   -1.28465597837227     -0.73898648315509      0.71895847752893
  H   -0.79684703504668     -0.48805189544442      1.56934654491443
  H   -1.57327512373674     -1.70382731558439      0.73678224098266
