14
Coordinates from ORCA-job run
  C   0.91819799474820     -0.32429376519265     -0.29845075845359
  C   -0.61531973251243     -0.35695998915144     -0.30259205140840
  Cl  1.47243085735626     -2.01516419758878     -0.11389042606704
  H   -0.97227013260765     -1.12120797955241     -0.99249877277370
  H   1.28240589671516     -0.00211486470065     -1.28014720237600
  N   1.40767352019082      0.43691789391069      0.82444988793272
  H   2.40886538934065      0.32206287621546      0.91655900895950
  H   1.19463670429040      1.41472829892966      0.66145499386395
  N   -1.11455794155705      0.94072184769475     -0.93185552617092
  O   -2.11446332006888      0.86241803215353     -1.63547561521405
  O   -0.51298551186879      1.97954945367198     -0.65629950344864
  N   -1.19596782201353     -0.47500390402110      0.98685570622072
  H   -0.49800867054657     -0.30618062591068      1.70098875926445
  H   -1.65963723146659     -1.35847307645837      1.12190149967098
