14

C	0.0	0.0	0.0
C	-0.200981	-0.042318	-1.574049
Cl	1.795723	0.0	0.0
H	0.359254	-0.935203	-1.885454
H	0.40815	0.791188	-1.936955
C	-0.493064	1.216968	0.660449
N	-0.723435	2.164489	1.337902
C	-0.519398	-1.175652	0.695896
N	-0.72182	-2.077234	1.435958
C	-1.55057	-0.036375	-2.250485
H	-2.136514	0.853	-2.023065
H	-2.165695	-0.895567	-1.994523
H	-1.376213	-0.038262	-3.343265
H	-2.017042	0.0	0.0
