14

C	0.0	0.0	0.0
C	-0.205371	-0.273709	-1.541077
Cl	1.795609	0.0	0.0
H	0.400872	0.501022	-2.017877
H	0.316871	-1.217119	-1.724567
C	-0.560004	1.28627	0.428575
N	-0.7315	2.374066	0.85904
C	-0.376118	-1.076846	0.904553
N	-0.377326	-1.968628	1.673214
C	-1.560998	-0.31255	-2.220637
H	-1.386638	-0.449649	-3.307718
H	-2.191723	-1.12985	-1.864043
H	-2.113301	0.611786	-2.072338
H	-2.027275	0.0	0.0
