14

C	0.0	0.0	0.0
C	-0.29176	-0.044018	-1.539167
Cl	1.797676	0.0	0.0
H	-1.324229	-0.354906	-1.664742
H	0.369712	-0.809837	-1.956322
C	-0.572034	1.184872	0.641098
N	-0.589013	2.235764	1.192058
C	-0.523488	-1.210542	0.646591
N	-0.541972	-2.274468	1.166319
C	-0.071648	1.300002	-2.215429
H	0.941847	1.677532	-2.062767
H	-0.777069	2.036522	-1.822531
H	-0.24126	1.204184	-3.292908
H	-2.149671	0.0	0.0
