14

C	0.0	0.0	0.0
C	-0.290745	0.114464	-1.536497
Cl	1.797807	0.0	0.0
H	0.384108	0.886163	-1.918904
H	-1.318382	0.446582	-1.64952
C	-0.557987	1.164381	0.699421
N	-0.564763	2.207649	1.261913
C	-0.53985	-1.229373	0.581025
N	-0.569333	-2.306341	1.07416
C	-0.091596	-1.201565	-2.271309
H	0.903836	-1.619292	-2.105542
H	-0.832567	-1.931149	-1.936579
H	-0.221482	-1.048837	-3.347533
H	-2.144627	0.0	0.0
