14

C	0.0	0.0	0.0
C	-0.198983	-0.011823	-1.572984
Cl	1.795814	0.0	0.0
H	0.355022	-0.895672	-1.907474
H	0.371938	0.855061	-1.920261
C	-0.582081	1.205328	0.58931
N	-0.627266	2.283741	1.081858
C	-0.57212	-1.194954	0.619384
N	-0.596644	-2.2617	1.139573
C	-1.560236	0.001261	-2.252124
H	-1.377691	0.004797	-3.340638
H	-2.155044	-0.873521	-1.997618
H	-2.142068	0.884263	-1.990876
H	-2.022822	0.0	0.0
