14

C	0.0	0.0	0.0
C	-0.286867	-0.059974	-1.539141
Cl	1.79793	0.0	0.0
H	-1.322905	-0.359021	-1.665727
H	0.36598	-0.838312	-1.945586
C	-0.567641	1.196928	0.632977
N	-0.585234	2.217876	1.237143
C	-0.535055	-1.192587	0.669081
N	-0.558529	-2.207889	1.279053
C	-0.047296	1.272807	-2.232941
H	-0.745486	2.021126	-1.852402
H	0.969352	1.638594	-2.082762
H	-0.213928	1.167304	-3.309128
H	-2.148469	0.0	0.0
