14

C	0.0	0.0	0.0
C	-0.286041	0.043001	-1.546645
Cl	1.797651	0.0	0.0
H	-1.323191	0.336115	-1.675144
H	0.355863	0.822751	-1.964851
C	-0.496028	1.214906	0.658676
N	-0.619747	2.233708	1.243432
C	-0.699748	-1.15336	0.595901
N	-0.725315	-2.242797	1.078857
C	-0.037079	-1.297483	-2.225227
H	1.00335	-1.621494	-2.133178
H	-0.676611	-2.067924	-1.782153
H	-0.280757	-1.218613	-3.291299
H	-2.123548	0.0	0.0
