14

C	0.0	0.0	0.0
C	-0.195324	-0.056007	-1.573892
Cl	1.795812	0.0	0.0
H	0.36245	-0.946823	-1.879885
H	0.373341	0.802378	-1.94447
C	-0.582177	1.223013	0.554578
N	-0.632791	2.319923	1.004099
C	-0.595338	-1.172979	0.64132
N	-0.637503	-2.231734	1.177318
C	-1.553143	-0.070907	-2.258734
H	-2.147537	-0.9368	-1.974722
H	-1.363634	-0.10904	-3.343486
H	-2.136345	0.820447	-2.033353
H	-2.022797	0.0	0.0
