14

C	0.0	0.0	0.0
C	-0.193784	-0.108357	-1.568436
Cl	1.795808	0.0	0.0
H	0.353615	0.75499	-1.96317
H	0.385014	-0.991885	-1.854761
C	-0.661191	1.20083	0.515715
N	-0.679063	2.314204	0.935969
C	-0.518785	-1.190511	0.677768
N	-0.597732	-2.228204	1.24186
C	-1.550916	-0.176456	-2.250904
H	-2.128111	-1.044716	-1.937586
H	-2.153569	0.709054	-2.059445
H	-1.358451	-0.246477	-3.333843
H	-2.030562	0.0	0.0
