14

C	0.0	0.0	0.0
C	-0.195552	0.121064	-1.569373
Cl	1.795565	0.0	0.0
H	0.369443	1.018053	-1.840596
H	0.365433	-0.727302	-1.974294
C	-0.568785	1.156731	0.689163
N	-0.612372	2.193745	1.263417
C	-0.594161	-1.236452	0.506638
N	-0.631095	-2.349465	0.919926
C	-1.554112	0.177477	-2.250764
H	-2.143416	1.032432	-1.924392
H	-1.365542	0.267434	-3.33312
H	-2.14259	-0.719466	-2.069317
H	-2.025053	0.0	0.0
