18

C	0.0	0.0	0.0
C	-0.563942	-0.066657	-1.41931
Br	2.047032	0.0	0.0
H	-1.641796	0.072275	-1.224171
C	-0.275549	1.305607	0.615038
N	-0.442942	2.355848	1.114479
N	-0.489455	-1.016078	0.815843
H	-0.351545	-1.945895	0.454982
H	-0.249349	-0.934134	1.791186
C	-0.366912	-1.439017	-2.053178
H	0.687667	-1.734197	-2.058571
H	-0.964485	-2.20079	-1.547558
H	-0.716212	-1.407572	-3.088249
C	-0.050651	1.04931	-2.318436
H	-0.644477	1.064862	-3.236264
H	-0.153376	2.028152	-1.84419
H	0.999107	0.90049	-2.586076
Cl	-3.847343	0.0	0.0
