18

C	0.0	0.0	0.0
C	-0.296493	-0.367557	-1.491591
Br	2.051971	0.0	0.0
H	0.543776	0.02722	-2.067223
C	-0.255856	1.420065	0.255192
N	-0.437362	2.564861	0.454147
N	-0.61428	-0.802867	0.971819
H	-1.116725	-1.574889	0.556072
H	-1.26145	-0.281526	1.549137
C	-1.568965	0.270924	-2.037669
H	-1.679348	-0.053652	-3.078886
H	-2.465767	-0.000798	-1.478072
H	-1.494456	1.362167	-2.034107
C	-0.327997	-1.88726	-1.671787
H	-1.277121	-2.295528	-1.314278
H	0.506562	-2.385847	-1.169902
H	-0.270734	-2.118578	-2.73778
Cl	-4.255296	0.0	0.0
