18

C	0.0	0.0	0.0
C	-0.507454	-0.349734	-1.412327
Br	1.970728	0.0	0.0
H	-1.597419	-0.346012	-1.278113
C	-0.309836	1.405676	0.333678
N	-0.528742	2.524613	0.624459
N	-0.515805	-0.938141	0.954126
H	-0.309591	-0.614013	1.893256
H	-1.539254	-0.907687	0.834142
C	-0.067467	-1.74581	-1.836947
H	0.98603	-1.759887	-2.132291
H	-0.666629	-2.063789	-2.693903
H	-0.213272	-2.46156	-1.028613
C	-0.157833	0.697305	-2.459533
H	0.923723	0.782406	-2.602435
H	-0.556886	1.678388	-2.194625
H	-0.603234	0.406127	-3.414755
Cl	-3.608997	0.0	0.0
