18

C	0.0	0.0	0.0
C	-0.497631	-0.227819	-1.444174
Br	1.97628	0.0	0.0
H	-1.58552	-0.132198	-1.321747
C	-0.330312	1.371833	0.427
N	-0.533158	2.478073	0.7664
N	-0.491504	-0.908279	0.998297
H	-0.310424	-1.857778	0.692441
H	-1.51153	-0.770468	1.006784
C	-0.198208	-1.632921	-1.953469
H	-0.671857	-2.400456	-1.337245
H	-0.609635	-1.740833	-2.960613
H	0.877778	-1.826122	-2.003051
C	-0.020159	0.828362	-2.434274
H	-0.198896	1.83935	-2.061317
H	-0.577982	0.719321	-3.368973
H	1.045305	0.722454	-2.656538
Cl	-3.589697	0.0	0.0
