16
Coordinates from ORCA-job run
  C   0.46952585526387      0.10080969010277     -0.42706099617119
  C   -0.73212992530055      0.37283265744703      0.49579648053822
  Cl  0.32892453523656      1.39610723640424     -1.74471702319495
  H   -0.65135540314943      1.38153028045936      0.90295576625381
  N   0.46307785277380     -1.21849597876051     -0.91453787341479
  H   1.27873074370058     -1.41244066180231     -1.47956975521649
  H   -0.38365282419202     -1.45695946048213     -1.41299810999479
  C   1.75720082020231      0.38425792065917      0.32721347185562
  H   1.86185478822380     -0.32816733343675      1.14814632066996
  H   2.60514273657786      0.26560054573419     -0.35024812704516
  H   1.77350133641810      1.40427474647199      0.71189600103030
  C   -0.80757292243369     -0.61311060918243      1.56858886909825
  N   -0.85263703858569     -1.38111073137077      2.45572107817264
  N   -2.04930767325141      0.36877309418732     -0.25007983455201
  O   -2.32528693863108     -0.64189132718358     -0.88819671467565
  O   -2.73601594285302      1.37598993075241     -0.14390955335379
