16
Coordinates from ORCA-job run
  C   0.40949028980632      0.08321276222213     -0.57983779397740
  C   -1.03957157506500      0.18783028576056     -0.05508343648513
  Cl  0.43699260102732      1.32090407450770     -1.95241080618968
  H   -1.73617712287914      0.03897802949444     -0.88227931001059
  N   0.62369932736357     -1.24381520169383     -1.01335316097989
  H   -0.01147111891497     -1.53009902859923     -1.74842185791496
  H   1.57880103572684     -1.38971813075900     -1.31348568926533
  C   1.46427823508425      0.50459006369079      0.42198002165635
  H   1.44838248696513     -0.17295535759059      1.27575463696012
  H   1.29579724952170      1.52493047732886      0.76363389605631
  H   2.44566228593989      0.46295977387893     -0.05522729802916
  C   -1.31110429571271      1.45143823506362      0.61441746306629
  N   -1.53318753445890      2.47139485162882      1.15193169739933
  N   -1.29945196897042     -0.95551120029820      0.90065247000204
  O   -1.95144687503308     -1.88942537319521      0.44971381938721
  O   -0.81969302040079     -0.86371426143978      2.02401534832447
