16
Coordinates from ORCA-job run
  C   0.39929259710336      0.24842990363918     -0.50065073911649
  C   -0.73858633895014      0.42172370881486      0.53371430786402
  Cl  0.34657568059196      1.66544656146703     -1.60530117822596
  H   -0.70472015734252      1.43482338686701      0.93816461210586
  N   0.13683357196346     -0.92274778390907     -1.29007867678735
  H   0.88700894075823     -1.07371240079505     -1.95360578329217
  H   0.03635833649937     -1.74472767356412     -0.70397018122140
  C   1.74522528629606      0.28793703187949      0.21667964536476
  H   1.85163992682005     -0.58832006275793      0.86048419745827
  H   2.54261187851630      0.27315081956382     -0.52876550702683
  H   1.85852235792926      1.19279620329394      0.81861890233097
  C   -0.62554502995255     -0.56689657000190      1.60050137483295
  N   -0.48328394653411     -1.35493061648626      2.46008041568225
  N   -2.09426511471854      0.27406836675940     -0.12072089802265
  O   -2.55279181605531     -0.85885312323279     -0.19760980909287
  O   -2.60487617292489      1.30981224846239     -0.52854068285335
