16
Coordinates from ORCA-job run
  C   0.47783465725839      0.19039745796921     -0.49694390320340
  C   -0.72399711739800      0.38203970388669      0.48350200716586
  Cl  0.28016555300342      1.48701480922835     -1.72817665671038
  H   -0.67012367057709      1.36317724300299      0.95801468632596
  N   0.54883289170744     -1.06603000988274     -1.16680152783141
  H   0.86024776058723     -1.79510023669673     -0.53664742881526
  H   -0.33601111412656     -1.32910379761623     -1.58156845691157
  C   1.76604084407742      0.43772314657854      0.26931099018360
  H   1.76752584902902      1.42588221318830      0.73051007796503
  H   2.59814619571500      0.37125407721496     -0.43161080181178
  H   1.89786438251446     -0.31994926888845      1.04709054224499
  C   -0.72252212917678     -0.68565873033907      1.47431822411378
  N   -0.66139416169025     -1.55532918962458      2.26175369531013
  N   -2.04341564601431      0.36632070821058     -0.24507025020011
  O   -2.70148185234209      1.39810385791152     -0.20776732443945
  O   -2.33771244256729     -0.67174198414335     -0.83091387338598
