14

C	0.0	0.0	0.0
C	-0.482506	-0.253933	-1.417353
Br	1.921438	0.0	0.0
H	-1.574792	-0.261431	-1.331773
H	-0.329862	-0.816179	0.661714
H	-0.197154	0.595819	-2.045558
N	-0.605302	1.198456	0.601116
O	-1.754668	1.449607	0.036856
O	-0.368472	1.362896	1.825272
C	-0.005047	-1.57563	-2.007586
H	-0.520817	-1.765929	-2.954091
H	1.069821	-1.592257	-2.197098
H	-0.241384	-2.402516	-1.330413
H	-2.837326	0.0	0.0
