14

C	0.0	0.0	0.0
C	-0.469367	-0.151814	-1.439046
Br	1.923998	0.0	0.0
H	-0.029717	-1.07705	-1.830664
H	-0.3261	-0.867109	0.594188
H	-1.553397	-0.2938	-1.366105
N	-0.61544	1.143373	0.688554
O	-0.381531	1.21993	1.921248
O	-1.773163	1.415457	0.144993
C	-0.145674	1.023761	-2.351472
H	-0.556911	0.843693	-3.350336
H	0.930814	1.180835	-2.455114
H	-0.603761	1.926071	-1.949872
H	-2.845701	0.0	0.0
