17

C	0.0	0.0	0.0
C	-0.373518	0.024199	-1.503345
F	1.414701	0.0	0.0
H	0.249592	0.812667	-1.94557
C	-0.52192	1.219059	0.716362
H	-0.206146	2.128716	0.199242
H	-1.615728	1.155681	0.745128
H	-0.116388	1.242847	1.733269
N	-0.483727	-1.183639	0.599892
H	-0.500949	-1.135712	1.608572
H	0.019146	-1.999846	0.279189
N	-1.759876	0.249974	-1.83801
H	-2.436582	-0.089965	-1.106513
H	-1.927631	1.248944	-1.864553
C	0.103023	-1.241431	-2.104381
N	0.474601	-2.256639	-2.563596
H	-3.731889	0.0	0.0
