17

C	0.0	0.0	0.0
C	-0.363415	0.072082	-1.50727
F	1.393467	0.0	0.0
H	0.468632	0.632336	-1.951928
C	-0.415584	1.270145	0.722273
H	0.022221	1.242158	1.726756
H	-0.054027	2.158586	0.19949
H	-1.504222	1.299906	0.789313
N	-0.497723	-1.206878	0.588811
H	-0.361382	-1.146137	1.594422
H	-1.515038	-1.180199	0.439334
N	-1.598862	0.791845	-1.757619
H	-2.36181	0.441283	-1.120393
H	-1.895109	0.624945	-2.713798
C	-0.291424	-1.277247	-2.120022
N	-0.255374	-2.288928	-2.71756
H	-3.361027	0.0	0.0
