11
Coordinates from ORCA-job run
  C   -0.59942400384782     -0.02757668390042     -0.23697002086392
  C   0.85972980565597     -0.43650992938134      0.01579555163516
  F   -0.75143459043608      0.25205358399688     -1.57540321594434
  H   0.98568753317262     -0.71577776723615      1.06553222365980
  H   1.07081406941665     -1.31360719888415     -0.60241985158519
  C   -0.96002721396150      1.16495378647022      0.54781221432868
  N   -1.22598617645956      2.11143780674610      1.19044310673385
  C   -1.48974625825836     -1.14558961336854      0.12243046169333
  N   -2.16726434893299     -2.05847477961736      0.41733823486841
  C   1.77222461884454      0.64838748174457     -0.33247311702858
  N   2.50442656480653      1.52170331343018     -0.61108558749721
