13

C	0.0	0.0	0.0
C	-0.432046	-0.021296	-1.471236
Cl	1.801074	0.0	0.0
H	0.047227	-0.866908	-1.977416
H	-0.296577	-0.945305	0.45734
H	-1.516422	-0.179478	-1.429828
N	-0.538843	1.058665	0.796537
H	-0.394495	1.934838	0.301938
H	-1.561333	0.858902	0.763696
N	-0.161354	1.194064	-2.233475
H	-0.790525	1.92304	-1.919457
H	0.79004	1.502363	-2.062359
H	-3.115951	0.0	0.0
