19

C	-0.320717	0.069291	-1.50518
C	0.0	0.0	0.0
F	-0.16396	-1.18174	-2.05408
H	1.097853	0.0	0.0
N	-1.801016	0.375951	-1.667839
O	-2.589148	-0.555077	-1.497
O	-2.126977	1.545109	-1.871248
C	0.525672	1.041497	-2.279141
H	0.371227	2.062195	-1.93739
H	0.284904	0.98007	-3.342833
H	1.568613	0.76448	-2.106074
N	-0.463124	-1.218376	0.644094
H	-1.408845	-1.433275	0.346336
H	0.131163	-1.980514	0.347458
C	-0.511585	1.216761	0.754241
H	-1.604328	1.205632	0.831966
H	-0.097175	1.177026	1.761479
H	-0.206608	2.15623	0.29028
Cl	3.467017	0.0	0.0
