19

C	-0.32225	0.014484	-1.507132
C	0.0	0.0	0.0
F	-0.186574	-1.259294	-2.008083
H	1.097245	0.0	0.0
N	-1.798405	0.338383	-1.678366
O	-2.600631	-0.571067	-1.463616
O	-2.108007	1.501748	-1.930921
C	0.536488	0.944149	-2.319106
H	0.400434	1.978392	-2.012742
H	1.575481	0.657176	-2.139658
H	0.289659	0.849469	-3.379004
N	-0.465885	-1.191834	0.690222
H	-1.413174	-1.412089	0.401557
H	0.124088	-1.968276	0.418055
C	-0.508059	1.245563	0.708578
H	-0.199476	2.16583	0.209463
H	-1.600917	1.241191	0.786876
H	-0.09332	1.242166	1.716505
Cl	3.46756	0.0	0.0
