19

C	-0.407938	-0.133366	-1.475247
C	0.0	0.0	0.0
F	-1.721636	-0.563314	-1.565026
H	1.093678	0.0	0.0
N	-0.397833	1.238678	-2.123369
O	0.707489	1.693318	-2.398887
O	-1.47225	1.81154	-2.285707
C	0.480824	-1.055806	-2.26649
H	0.377721	-2.062646	-1.857325
H	1.519753	-0.739169	-2.161505
H	0.17865	-1.067889	-3.316944
N	-0.395198	-1.200846	0.74153
H	0.340364	-1.892596	0.67468
H	-1.254077	-1.589367	0.373951
C	-0.570555	1.240417	0.666425
H	-0.28328	1.211985	1.717396
H	-1.662988	1.258624	0.599903
H	-0.172056	2.156628	0.225516
Cl	3.461316	0.0	0.0
