13
Coordinates from ORCA-job run
  C   -0.41494694045263      0.13850893323503     -0.12953888475737
  C   1.04851923636490     -0.30529715846207     -0.28303284412953
  Cl  -1.11655410009983      0.35896101443643     -1.76515335088291
  H   1.46241622142356     -0.49785211934491      0.71220864090643
  H   1.06575265116563     -1.24260589032328     -0.84621272101787
  C   -1.21988930429869     -0.91945548003465      0.61735582228299
  H   -1.17331898035561     -1.86521761808498      0.07428088225191
  H   -0.81193078146699     -1.05608729745710      1.62190923545520
  H   -2.26254237158758     -0.61224467946442      0.69905955427318
  C   -0.47960439339660      1.41916272966949      0.57607733082523
  N   -0.53018695116403      2.42109459288010      1.18779661416622
  C   1.87912480229695      0.68458161023332     -0.96257613517331
  N   2.55416091157094      1.47745136271703     -1.50317414420018
