13
Coordinates from ORCA-job run
  C   -0.45428899165392      0.31035223818701     -0.19288457033445
  C   1.07700401221606      0.47133724148631     -0.24121013629804
  Cl  -1.06579990296613      0.16622948562629     -1.87331745099634
  H   1.44074099151193      0.68046220964418      0.77017688589745
  H   1.33539797719374      1.32306752049698     -0.87502666805144
  C   -0.88773456810913     -0.91288382201876      0.60481542620859
  H   -0.51260996320489     -0.83777794890872      1.62890135054709
  H   -0.48960971195935     -1.81585638348611      0.13997041764379
  H   -1.97565542377137     -0.97740298458225      0.63037729997000
  C   -1.01441367722431      1.53006306058694      0.39303844842475
  N   -1.43628600208935      2.50341929658311      0.89815961936683
  C   1.73179012392348     -0.73197968833653     -0.74632086749604
  N   2.25046513613324     -1.70903022527845     -1.13767975488218
