13
Coordinates from ORCA-job run
  C   -0.47370594652678      0.28076383897820     -0.19031261514678
  C   1.04669297687429      0.49558888003825     -0.31229025178822
  Cl  -1.14534063061119      0.01345991682737     -1.83224533729655
  H   1.44219362786304      0.77616866177129      0.66948786241296
  H   1.24550558035793      1.31838841481588     -1.00332631099995
  C   -0.82621175729409     -0.90779080119531      0.69469316946256
  H   -1.90879755881145     -1.01104883025019      0.76990152448975
  H   -0.41364541376620     -0.75805851386328      1.69585274102797
  H   -0.41153417460877     -1.82136624789061      0.26654727860145
  C   -1.05882180163135      1.51159764462437      0.34564032262895
  N   -1.50128900990929      2.49703592796065      0.80749114425447
  C   1.72868144663340     -0.70927982119592     -0.77639435815324
  N   2.27627266143046     -1.68345907062069     -1.13404516949339
