13
Coordinates from ORCA-job run
  C   -0.40945011166584      0.14682662353727     -0.14055520918787
  C   1.04843369630225     -0.32648723602268     -0.25552432908684
  Cl  -1.06371582349443      0.37954054677524     -1.79374622083386
  H   1.43249794378893     -0.52498281266343      0.75043305679198
  H   1.06166435160330     -1.26509235667606     -0.81668030155716
  C   -1.25443993497052     -0.89395829698025      0.58596471440167
  H   -1.21418237199738     -1.84039786781713      0.04345192028960
  H   -2.29216865905306     -0.56500409751867      0.64231562136981
  H   -0.87406705021865     -1.03945810132455      1.60015419028596
  C   -0.46574901250752      1.42908907703938      0.56303698474578
  N   -0.50766097392588      2.43171463510107      1.17414766628739
  C   1.91588182819731      0.64528725400081     -0.91498052338937
  N   2.62295611794148      1.42192263254900     -1.43801757011711
