13
Coordinates from ORCA-job run
  C   -0.53250083842726      0.19664263616542     -0.30886201599537
  C   0.86755798454065     -0.08304207107662     -0.88503079987637
  Cl  -1.68743689325898      0.06773460843764     -1.67877274170488
  H   1.09581753056394      0.64259003101710     -1.66983762654433
  H   0.86226655779487     -1.07815590069719     -1.33920576352301
  C   -0.92319928477785     -0.80397673267339      0.77059714596142
  H   -1.93840326776199     -0.60669989054782      1.11543835574522
  H   -0.23793394952600     -0.72440347270678      1.61735239144009
  H   -0.87893663745068     -1.81592025638344      0.36302153048298
  C   -0.59318297622398      1.56475081420879      0.20775297623409
  N   -0.62380254838351      2.65497455076953      0.64491394658281
  C   1.89132256415397     -0.02531854882057      0.15575072896141
  N   2.69743175875681      0.01282423230733      1.00788187223593
