13
Coordinates from ORCA-job run
  C   -0.53286319119876      0.21082211996839     -0.29657684678468
  C   0.86278981773423     -0.05317030474474     -0.89054842603662
  Cl  -1.69436598848045      0.15185822126843     -1.66564535487991
  H   0.85151357275572     -1.03095831424930     -1.38051571577340
  H   1.08898813035588      0.69986044800197     -1.64966679666137
  C   -0.92665149262411     -0.83468354030740      0.73823499056112
  H   -1.93730019837682     -0.64364559035451      1.09942487536704
  H   -0.89584700168004     -1.82669514026266      0.28331096395180
  H   -0.23491036105423     -0.80185222655102      1.58282825097276
  C   -0.58018160643185      1.55526506429568      0.28055038809335
  N   -0.59659482645621      2.62720026139430      0.76152108519834
  C   1.89274892512769     -0.03425398228585      0.14539189529490
  N   2.70467422032895     -0.02074701617330      0.99269069069668
