13
Coordinates from ORCA-job run
  C   -0.42152493231797      0.38581297163675     -0.11569025959425
  C   1.11455950638304      0.37639996297925     -0.23089567145282
  Cl  -1.11560976259330      0.57684066354340     -1.75874290325298
  H   1.44871389407541      1.28286606317545     -0.74151462371499
  H   1.54299078491262      0.37923239332755      0.77678046635619
  C   -0.96728208884230     -0.88940663188200      0.51379897855281
  H   -0.70287543142209     -1.74794256000805     -0.10495412647051
  H   -0.54246450671852     -1.01896531213212      1.51263466285403
  H   -2.05278047350215     -0.83207216002140      0.59551204654658
  C   -0.80245511269135      1.55487785488599      0.67960088284485
  N   -1.07635970879085      2.47811834682518      1.35254640130814
  C   1.59644518822770     -0.79759374005292     -0.95309192169935
  N   1.97964264327973     -1.74716785227710     -1.52598393227763
