13
Coordinates from ORCA-job run
  C   -0.44776229588566      0.34955445961366     -0.13277146819013
  C   1.08137853109628      0.42323604730936     -0.30217706631374
  Cl  -1.20305197594827      0.36034151671973     -1.76002983551120
  H   1.34175736534844      1.30184381447213     -0.89737255396229
  H   1.53964867266149      0.53679723816618      0.68582253403308
  C   -0.89251503502475     -0.89905477696564      0.61791148740446
  H   -0.43016952793476     -0.91870976993853      1.60826663800223
  H   -0.59330238983695     -1.78876786623925      0.06223523680109
  H   -1.97645877328627     -0.90096933394145      0.73334275984248
  C   -0.87831719841519      1.55523044652655      0.57830596747543
  N   -1.19329740397521      2.50634675652821      1.19199738590205
  C   1.61396691483440     -0.77673878496413     -0.94145356807362
  N   2.03912311636644     -1.74810974728680     -1.44407751740985
