13
Coordinates from ORCA-job run
  C   -0.53653614323743      0.21631575768132     -0.28897047977954
  C   0.85442445183565     -0.03133924091628     -0.90055438185921
  Cl  -1.71093761693159      0.17515615366352     -1.64797770249695
  H   1.07395266991955      0.73875159995531     -1.64437524313940
  H   0.84092236523539     -0.99795961513775     -1.41222268503533
  C   -0.91571577531086     -0.84807635779350      0.73201115670189
  H   -1.92427489869441     -0.66887410223940      1.10503546332017
  H   -0.88304506016945     -1.83265358009853      0.26122238935873
  H   -0.21691834292042     -0.82454069058860      1.57109157967598
  C   -0.58509870821869      1.54996901785147      0.31177468462110
  N   -0.60379532506776      2.61017741786372      0.81791512866092
  C   1.89300061524999     -0.03560378101059      0.12676356534132
  N   2.71202176831003     -0.05132257923070      0.96728652463032
