12

C	-0.066524	-0.029373	0.014719
C	-0.468396	0.078809	-1.44046
Cl	1.709269	0.223081	0.208762
H	-1.563311	0.00248	-1.470027
H	-0.592077	0.729435	0.593339
H	0.023458	-0.660089	-2.070283
C	-0.386683	-1.363656	0.512404
N	-0.539912	-2.461488	0.899564
N	-0.127181	1.412837	-2.004533
O	-0.133747	2.379504	-1.250312
O	0.093321	1.452591	-3.214724
Br	-3.374096	0.49738	0.208322
