16

C	0.0	0.0	0.0
C	-0.604644	0.246179	-1.384889
F	1.349292	0.0	0.0
H	-1.670021	0.444225	-1.210306
N	-0.375696	1.112945	0.978907
O	-0.166385	0.865571	2.160413
O	-0.745077	2.174398	0.498021
C	-0.452668	-1.287665	0.543232
N	-0.562778	-2.392749	0.927512
N	-0.44386	-0.859982	-2.277227
H	-1.264159	-1.450221	-2.228949
H	0.390542	-1.399781	-2.089883
N	-0.047767	1.475818	-2.064887
O	1.113624	1.820127	-1.849733
O	-0.811404	2.016399	-2.855168
Cl	-3.419089	0.0	0.0
