16

C	0.0	0.0	0.0
C	-0.206219	0.024591	-1.589904
F	1.365265	0.0	0.0
H	-0.097485	-1.025119	-1.864888
N	-0.340014	1.25542	0.769825
O	-0.240013	2.302888	0.138519
O	-0.490719	1.139361	1.977506
C	-0.465562	-1.206393	0.668413
N	-0.51919	-2.279162	1.151872
N	0.781796	0.809144	-2.289641
H	0.67254	1.776746	-2.008107
H	1.710239	0.49768	-2.049245
N	-1.480894	0.456046	-2.274977
O	-2.038079	-0.404529	-2.943964
O	-1.72283	1.653314	-2.287256
Cl	-2.927667	0.0	0.0
