18

C	0.0	0.0	0.0
C	-0.610235	-0.374614	-1.354412
Cl	1.739285	0.0	0.0
H	0.026128	0.1613	-2.066737
N	-0.439765	1.425713	0.367062
O	-1.128369	1.577557	1.364475
O	-0.062339	2.28806	-0.413678
N	-0.490615	-0.879314	1.150206
O	-1.555224	-1.453728	0.967872
O	0.188042	-0.898218	2.167576
C	-2.052296	0.087452	-1.547215
H	-2.156658	1.171548	-1.477086
H	-2.350995	-0.199844	-2.559403
H	-2.771251	-0.347632	-0.850618
N	-0.37765	-1.805665	-1.536695
H	-0.315906	-2.00332	-2.52629
H	-1.186318	-2.30123	-1.177979
Cl	-5.188378	0.0	0.0
