18

C	0.0	0.0	0.0
C	-0.569693	0.047792	-1.445979
Cl	1.745294	0.0	0.0
H	0.064283	-0.689419	-1.952542
N	-0.485857	1.103311	0.932499
O	0.107482	1.227256	1.996579
O	-1.450068	1.754662	0.547478
N	-0.466226	-1.313117	0.634601
O	-1.18624	-1.253062	1.618857
O	-0.092419	-2.321105	0.04949
C	-0.343617	1.410462	-2.096646
H	-0.434107	1.279437	-3.174996
H	-1.113086	2.10905	-1.773769
H	0.641202	1.828688	-1.873347
N	-1.925478	-0.369503	-1.605368
H	-2.639585	0.133142	-1.071505
H	-2.061615	-1.35612	-1.43406
Cl	-4.695785	0.0	0.0
