13

C	0.0	0.0	0.0
C	-0.538096	-0.355099	-1.404154
Br	1.959022	0.0	0.0
H	0.14898	-1.084839	-1.839432
H	-1.518018	-0.808784	-1.236447
C	-0.413297	1.325373	0.461203
N	-0.603242	2.422198	0.83867
C	-0.368883	-1.036681	0.971039
N	-0.540843	-1.918075	1.729098
N	-0.595233	0.84953	-2.214835
H	-0.58502	0.591237	-3.19339
H	-1.497141	1.280703	-2.02477
Br	-3.542323	0.0	0.0
