13

C	0.0	0.0	0.0
C	-0.541084	-0.164897	-1.441829
Br	1.959248	0.0	0.0
H	0.193057	-0.751057	-1.999485
H	-1.475965	-0.721276	-1.345775
C	-0.410689	1.247927	0.64377
N	-0.59975	2.276568	1.180266
C	-0.364127	-1.159761	0.822161
N	-0.537827	-2.134621	1.454932
N	-0.715035	1.146141	-2.042255
H	-0.750753	1.043804	-3.04857
H	-1.632426	1.470584	-1.740353
Br	-3.516337	0.0	0.0
