13

C	0.0	0.0	0.0
C	-0.543338	0.385501	-1.394627
Br	1.965195	0.0	0.0
H	-1.512542	0.857209	-1.210968
H	0.154941	1.10636	-1.828574
C	-0.356722	1.020456	0.993004
N	-0.507643	1.896583	1.761495
C	-0.415872	-1.330861	0.436549
N	-0.62273	-2.435483	0.780971
N	-0.635191	-0.808868	-2.219332
H	-0.658128	-0.536926	-3.195122
H	-1.536056	-1.232288	-2.002884
Br	-3.545387	0.0	0.0
