15

C	0.0	0.0	0.0
C	-0.081806	0.097004	-1.531274
Br	2.201713	0.0	0.0
H	0.374124	1.02011	-1.846443
H	0.39593	-0.756361	-1.984053
N	-0.458074	1.139215	0.645044
H	-1.445854	1.025573	0.906729
H	-0.289352	1.981024	0.100739
N	-0.488109	-1.142088	0.56833
H	-0.470955	-1.919867	-0.073139
H	-1.41337	-0.992883	0.99263
N	-1.468396	0.137686	-2.047423
O	-1.966816	1.253041	-2.17564
O	-2.01145	-0.945675	-2.273236
Cl	-3.747444	0.0	0.0
