15

C	0.0	0.0	0.0
C	-0.461573	0.283081	-1.429199
Br	2.011017	0.0	0.0
H	-1.555329	0.314193	-1.405632
H	-0.086466	-0.493714	-2.087372
N	-0.414876	1.052674	0.875297
H	-0.183796	0.805736	1.830186
H	-1.432438	1.1139	0.792884
N	-0.409427	-1.359054	0.272717
H	-0.100115	-1.622154	1.203889
H	-1.43406	-1.332895	0.279395
N	0.010016	1.580851	-1.968778
O	0.949365	1.555425	-2.767495
O	-0.582491	2.597585	-1.61463
Cl	-3.544961	0.0	0.0
