15

C	0.0	0.0	0.0
C	-0.475893	0.18677	-1.442605
Br	1.973477	0.0	0.0
H	-1.569921	0.216354	-1.4169
H	-0.100409	-0.630893	-2.050807
N	-0.410782	1.120083	0.801346
H	-1.429145	1.173928	0.724017
H	-0.174743	0.93756	1.770686
N	-0.435721	-1.329463	0.370275
H	-1.460158	-1.281021	0.375772
H	-0.130785	-1.518934	1.319778
N	-0.010514	1.447836	-2.071989
O	-0.605893	2.483755	-1.787082
O	0.9326	1.370794	-2.864463
Cl	-3.563602	0.0	0.0
