15

C	0.0	0.0	0.0
C	-0.440522	0.030215	-1.461262
Br	2.047924	0.0	0.0
H	-1.53364	0.159075	-1.423564
H	-0.164281	-0.89271	-1.965061
N	-0.471251	1.094984	0.707857
H	-0.254806	1.043025	1.690527
H	-0.285872	1.987402	0.280285
N	-0.437965	-1.180557	0.67316
H	-0.140801	-2.012641	0.178465
H	-1.463381	-1.119312	0.684517
N	0.130496	1.127269	-2.283792
O	0.553443	0.834349	-3.400816
O	0.120379	2.268398	-1.821899
Cl	-3.6257	0.0	0.0
