15

C	0.0	0.0	0.0
C	-0.24081	0.386109	-1.484366
Br	2.035518	0.0	0.0
H	-0.344137	1.473985	-1.538262
H	0.604477	0.052642	-2.096389
N	-0.421284	1.034864	0.891659
H	-1.449368	1.013357	0.835554
H	-0.159798	0.764757	1.831692
N	-0.385458	-1.311462	0.388382
H	-1.226964	-1.245861	0.945355
H	-0.648534	-1.86062	-0.418181
N	-1.383202	-0.24751	-2.220541
O	-2.06139	0.48181	-2.935184
O	-1.426677	-1.482389	-2.210476
Cl	-3.51566	0.0	0.0
