15

C	0.0	0.0	0.0
C	-0.077207	-0.087072	-1.553803
Br	2.052938	0.0	0.0
H	0.483292	-0.959718	-1.882086
H	0.3422	0.819393	-1.981721
N	-0.452964	1.188079	0.623832
H	-1.479126	1.168713	0.575215
H	-0.093422	2.012229	0.159308
N	-0.523851	-1.13736	0.612348
H	-1.111329	-1.672262	-0.01606
H	-1.067727	-0.878092	1.423455
N	-1.414938	-0.260362	-2.19379
O	-1.852898	-1.409592	-2.228253
O	-1.921377	0.722015	-2.727246
Cl	-3.58561	0.0	0.0
