14
Coordinates from ORCA-job run
  C   -0.69911678836896      0.34121882610086     -0.52143612709341
  C   0.59926905994736     -0.44519532612502     -0.18208184237047
  Cl  -0.70071044976132      0.67567862551934     -2.27219943134031
  H   0.54224032275139     -1.37794841172975     -0.75278872899896
  C   -0.66069645546625      1.61204028561385      0.21542247989918
  N   -0.56129428867091      2.60841729987602      0.83016553107775
  N   -1.90408914624402     -0.36909877538462     -0.18242779828599
  H   -2.03087475812582     -1.14355083766744     -0.82507939009007
  H   -1.78962214353168     -0.73507836007471      0.75886562651274
  N   0.56028963335099     -0.76036294568270      1.23785938317784
  H   1.16187247727675     -1.54810042191493      1.44378247601226
  H   0.88249709929051      0.03006515220135      1.78610319278832
  C   1.80611776186948      0.28198767334972     -0.60583704666991
  N   2.79411767568247      0.82892721591803     -0.93034832461896
