14
Coordinates from ORCA-job run
  C   -0.64760910150463      0.26785716610952     -0.32339221486654
  C   0.62184505117052     -0.28973862718195      0.34983118954991
  Cl  -0.18112002558768      1.15228484452502     -1.80558190943377
  H   0.27742302472385     -0.82415798242777      1.24423630040941
  C   -1.28305852314232      1.23171153922556      0.59282619702150
  N   -1.88399586671825      1.91892927997987      1.33330597582187
  N   -1.49768466160903     -0.82887751591049     -0.71088837587532
  H   -1.87774400499249     -1.27893455740414      0.11601980759034
  H   -2.26938839691858     -0.49624277327214     -1.27767799686537
  N   1.47565033239492      0.79416309529321      0.78283296552935
  H   1.97002436109464      1.19250142720756     -0.00633291027417
  H   2.15808368672962      0.46253482815439      1.45215450056834
  C   1.26307038874973     -1.27470179528598     -0.54169096357081
  N   1.87450373560970     -2.02632892901266     -1.20564256560473
