14
Coordinates from ORCA-job run
  C   -1.02463286260889      0.01892861960007     -0.03217219802457
  C   0.42854417305610     -0.11709162993432     -0.49939970137032
  Cl  -2.10876383861494     -0.53413104866860     -1.40116473790425
  H   0.59457690625705     -1.16945581154264     -0.76147602112132
  H   -1.27425891356549      1.07171272473660      0.10703823394081
  N   -1.23301392060704     -0.68625332955273      1.18061601115486
  H   -1.12336594123224     -1.68422598098648      1.04362337975754
  H   -2.15856313636682     -0.51338025668160      1.55058556614696
  C   1.41427866817312      0.31466588843386      0.59200910533728
  H   2.43901666343378      0.23561066345368      0.22493601840159
  H   1.29424315378887     -0.31103152768582      1.47439373377058
  H   1.23176135782790      1.35296568912620      0.87765848809330
  C   0.65021230218902      0.67663637720529     -1.70988892717231
  N   0.87096538826957      1.34704962249649     -2.64775895101012
