14
Coordinates from ORCA-job run
  C   -0.99966602735567     -0.45587561048520     -0.12422025005497
  C   0.38428979037091     -0.07615784231188     -0.67662129163120
  Cl  -1.05869632305760     -2.22169240559712      0.15757599240008
  H   0.53950365178932     -0.65810469309314     -1.59135298926514
  H   -1.74728869314317     -0.27937497842257     -0.90722238937022
  N   -1.24971952182143      0.22250111357803      1.12291462888796
  H   -1.27563889420827      1.22436865425267      0.96043476965852
  H   -2.14693427257918     -0.05949828529725      1.49843093604398
  C   1.53237011508877     -0.32998475343137      0.30249871715077
  H   2.47967153593356     -0.03032904163456     -0.14873048029179
  H   1.58230929572360     -1.39062851652981      0.54722194175464
  H   1.37885629427681      0.23130840729817      1.22242557018869
  C   0.32896275399833      1.34031272794176     -1.05195282541788
  N   0.24998029498404      2.48315522373227     -1.31140233005345
