14
Coordinates from ORCA-job run
  C   -0.99359305427632     -0.45624469018509     -0.16450842366516
  C   0.41089896447079     -0.07378136985820     -0.66072437000085
  Cl  -1.06221188387154     -2.22247288225237      0.11087579152324
  H   0.60188218961757     -0.65140405377962     -1.57148578581627
  H   -1.70952814528669     -0.27875912840299     -0.97619424672875
  N   -1.29350026688038      0.21925184626378      1.07304287469153
  H   -2.20681891826904     -0.06056150148901      1.40948770812267
  H   -1.30915267738003      1.22163128800030      0.91268166182480
  C   1.51983988125115     -0.33160025667382      0.36134046690671
  H   1.32715097857742      0.22071369911511      1.27942201180300
  H   1.56433550470073     -1.39428942360179      0.59834492548470
  H   2.48325773126439     -0.02431072808619     -0.04869831958585
  C   0.36887711014545      1.34402306417060     -1.03272687588116
  N   0.29956258593649      2.48780413677930     -1.29085741867861
