14

C	0.0	0.0	0.0
C	-0.277533	0.028424	-1.536085
Br	1.965359	0.0	0.0
H	0.305444	-0.776828	-1.988738
H	0.13125	0.973204	-1.918451
C	-0.692732	1.100602	0.659988
N	-0.713604	2.167552	1.192185
C	-0.261901	-1.367963	0.662903
H	-1.324535	-1.589061	0.69103
H	0.134575	-1.354984	1.685758
H	0.26195	-2.144903	0.097937
C	-1.676356	-0.070774	-1.994101
N	-2.589444	-0.115787	-2.747712
H	-2.097196	0.0	0.0
