14

C	0.0	0.0	0.0
C	-0.66899	-0.031615	-1.360956
Br	1.962872	0.0	0.0
H	-0.450021	0.865337	-1.948206
H	-1.798095	-0.012153	-1.018112
C	-0.353022	1.267749	0.655469
N	-0.548105	2.296678	1.187667
C	-0.470274	-1.178564	0.841205
H	-1.569105	-1.106989	0.847015
H	-0.070093	-1.12125	1.854933
H	-0.14788	-2.112762	0.373535
C	-0.357557	-1.224343	-2.12053
N	-0.116584	-2.203138	-2.728298
H	-3.022357	0.0	0.0
