14

C	0.0	0.0	0.0
C	-0.660321	0.005207	-1.364189
Br	1.962005	0.0	0.0
H	-1.783632	0.062301	-1.043995
H	-0.49089	-0.952256	-1.865236
C	-0.344357	1.232683	0.724117
N	-0.533398	2.224983	1.325355
C	-0.493889	-1.215107	0.771924
H	-0.105214	-1.21799	1.791744
H	-1.593843	-1.127994	0.768784
H	-0.175345	-2.126109	0.258167
C	-0.27317	1.101028	-2.228661
N	0.012402	1.984607	-2.950747
H	-3.042499	0.0	0.0
