14

C	0.0	0.0	0.0
C	-0.268145	0.011488	-1.530551
Br	1.965002	0.0	0.0
H	0.095622	0.971753	-1.920303
H	0.359764	-0.767203	-1.979669
C	-0.707292	1.092837	0.65788
N	-0.723889	2.14313	1.221765
C	-0.261145	-1.380953	0.65074
H	-1.324657	-1.596773	0.695102
H	0.259214	-2.151924	0.074877
H	0.160679	-1.374789	1.661805
C	-1.643149	-0.17576	-2.016219
N	-2.569034	-0.162073	-2.750945
H	-2.099274	0.0	0.0
