17

C	0.0	0.0	0.0
C	-0.234643	0.0082	-1.541682
Br	1.954537	0.0	0.0
H	0.251567	0.932846	-1.870626
H	0.376657	-0.805291	-1.932956
C	-0.509617	1.178732	0.786024
H	-0.119954	1.165557	1.806121
H	-1.610017	1.037157	0.736175
H	-0.185503	2.096493	0.287923
N	-0.439786	-1.300194	0.625949
O	-0.569331	-2.268606	-0.116089
O	-0.552471	-1.323643	1.84669
C	-1.591574	-0.086597	-2.219765
H	-2.138099	-0.954866	-1.869023
H	-2.226159	0.76392	-2.001698
H	-1.372474	-0.165644	-3.29631
F	-2.765906	0.0	0.0
