17

C	0.0	0.0	0.0
C	-0.552098	-0.066344	-1.406781
Br	1.956467	0.0	0.0
H	-0.084727	-0.895543	-1.939931
H	-1.624935	-0.262951	-1.200435
C	-0.527991	1.149714	0.816462
H	-0.171945	1.092871	1.84368
H	-1.62618	1.014537	0.740198
H	-0.198235	2.090788	0.371943
N	-0.342664	-1.317165	0.713014
O	-0.437011	-1.295886	1.934446
O	-0.433863	-2.324699	0.021747
C	-0.412358	1.244971	-2.1679
H	-1.104671	1.983973	-1.760885
H	-0.68123	1.089671	-3.217078
H	0.604821	1.650658	-2.139377
F	-2.900575	0.0	0.0
