17

C	0.0	0.0	0.0
C	-0.528353	0.812236	-1.175587
Br	1.941988	0.0	0.0
H	-1.619964	0.777935	-0.978596
H	-0.146962	1.827172	-1.003011
C	-0.487884	0.580213	1.31195
H	-0.11954	1.606357	1.391454
H	-1.585747	0.542009	1.209643
H	-0.129358	-0.000111	2.161578
N	-0.405502	-1.47431	-0.081321
O	-0.251634	-2.030684	-1.166706
O	-0.812889	-2.025575	0.932066
C	-0.196662	0.389414	-2.601941
H	-0.458299	1.209985	-3.27979
H	-0.77777	-0.484092	-2.891501
H	0.862961	0.158495	-2.74355
F	-2.819413	0.0	0.0
