18

C	-0.282303	0.022497	-1.49715
C	0.0	0.0	0.0
F	-1.663133	0.194272	-1.747851
H	1.097867	0.0	0.0
N	0.404315	1.169439	-2.023773
H	0.481939	1.091582	-3.032115
H	1.347999	1.168805	-1.628205
C	0.107032	-1.287844	-2.159424
H	-0.522805	-2.113996	-1.822404
H	1.154875	-1.496361	-1.925362
H	-0.013156	-1.186399	-3.242962
C	-0.504035	-1.235451	0.739562
H	0.071663	-2.110853	0.433362
H	-0.352866	-1.106515	1.813655
H	-1.567603	-1.413195	0.555548
C	-0.495465	1.214207	0.631739
N	-0.89489	2.151296	1.218402
H	2.788105	0.0	0.0
