18

C	-0.323916	-0.108986	-1.495185
C	0.0	0.0	0.0
F	-0.072996	1.178452	-2.054292
H	1.096847	0.0	0.0
N	0.566232	-1.076133	-2.034452
H	1.510801	-0.874208	-1.687437
H	0.557386	-1.024779	-3.046189
C	-1.770504	-0.401452	-1.840968
H	-1.894291	-0.386922	-2.928632
H	-2.062337	-1.382917	-1.467104
H	-2.418226	0.365643	-1.410087
C	-0.435917	-1.225461	0.8032
H	0.021548	-1.182743	1.794875
H	-1.521908	-1.291805	0.920087
H	-0.068882	-2.120744	0.299152
C	-0.529187	1.223866	0.574761
N	-0.942122	2.212476	1.059466
H	2.813093	0.0	0.0
