18

C	-0.426548	0.048336	-1.468674
C	0.0	0.0	0.0
F	0.03712	-1.163282	-2.049478
H	1.095715	0.0	0.0
N	-1.848801	0.123065	-1.621449
H	-2.272908	-0.685261	-1.179458
H	-2.074264	0.089185	-2.610357
C	0.274348	1.167167	-2.204195
H	0.071266	1.088965	-3.277494
H	-0.079218	2.132891	-1.840396
H	1.347818	1.074422	-2.019559
C	-0.449403	-1.260697	0.738412
H	0.048563	-1.292703	1.710462
H	-0.12891	-2.134333	0.170006
H	-1.531608	-1.302829	0.904661
C	-0.459392	1.197343	0.688084
N	-0.817905	2.150294	1.276436
H	2.828145	0.0	0.0
