18

C	-0.323094	-0.028936	-1.508298
C	0.0	0.0	0.0
F	-0.159986	1.287952	-1.960815
H	1.098783	0.0	0.0
N	0.629232	-0.825345	-2.231322
H	0.399242	-1.806646	-2.139798
H	1.550068	-0.678002	-1.805848
C	-1.744821	-0.421286	-1.857427
H	-1.876463	-0.315577	-2.936392
H	-2.448497	0.238111	-1.343132
H	-1.956768	-1.455351	-1.571977
C	-0.40605	-1.282895	0.725222
H	0.005096	-2.146309	0.195975
H	-1.489936	-1.39726	0.820101
H	0.035851	-1.280353	1.725035
C	-0.567793	1.156229	0.666562
N	-1.068116	2.055222	1.237204
H	2.808591	0.0	0.0
