18

C	-0.429599	-0.105229	-1.463577
C	0.0	0.0	0.0
F	-1.805423	-0.537518	-1.503443
H	1.094836	0.0	0.0
N	-0.308994	1.145867	-2.124257
H	-0.651376	1.060771	-3.072939
H	-0.836722	1.863103	-1.641114
C	0.379975	-1.158008	-2.188869
H	0.171516	-1.111781	-3.262994
H	1.440438	-0.972994	-1.993121
H	0.111162	-2.153716	-1.83335
C	-0.419108	-1.208456	0.839224
H	0.057403	-2.107603	0.443432
H	-0.054184	-1.074989	1.860759
H	-1.501809	-1.346959	0.853737
C	-0.507723	1.224488	0.598511
N	-0.934107	2.216295	1.06631
H	2.807002	0.0	0.0
