18

C	-0.324067	-0.044156	-1.508553
C	0.0	0.0	0.0
F	-0.151545	1.265934	-1.977214
H	1.099139	0.0	0.0
N	0.620783	-0.85669	-2.22208
H	1.54323	-0.7089	-1.7968
H	0.384102	-1.833354	-2.116811
C	-1.75138	-0.425847	-1.84792
H	-1.8848	-0.335456	-2.927461
H	-1.976667	-1.452378	-1.54386
H	-2.443456	0.252746	-1.340956
C	-0.403285	-1.274342	0.742614
H	-0.002193	-2.14458	0.217141
H	0.050573	-1.264968	1.73624
H	-1.486613	-1.384523	0.850212
C	-0.562311	1.166102	0.652904
N	-1.06233	2.072939	1.210883
H	2.807131	0.0	0.0
