14

C	-0.119738	0.119017	-1.520584
C	0.0	0.0	0.0
Cl	-1.759614	1.009057	-2.035189
H	1.094304	0.0	0.0
H	-0.406567	-0.94247	0.367336
N	0.950038	0.920416	-1.967582
H	1.796515	0.665323	-1.410827
H	1.097084	0.849136	-2.965529
N	-0.174829	-1.195022	-2.087212
H	-0.100601	-1.136123	-3.095848
H	-1.056238	-1.640479	-1.861008
C	-0.509598	1.124026	0.754978
N	-0.900253	2.007546	1.423521
F	2.652409	0.0	0.0
