14

C	-0.121083	-0.122308	-1.520663
C	0.0	0.0	0.0
Cl	-1.756906	-1.025648	-2.03209
H	1.094304	0.0	0.0
H	-0.405458	0.944238	0.364985
N	-0.1889	1.189888	-2.089425
H	-0.112506	1.13163	-3.097194
H	-1.074912	1.626817	-1.867435
N	0.953333	-0.91559	-1.968091
H	1.1032	-0.837772	-2.965143
H	1.797072	-0.662333	-1.406545
C	-0.508343	-1.121493	0.759808
N	-0.898329	-2.00232	1.43258
F	2.653032	0.0	0.0
