14

C	-0.192982	0.231899	-1.510565
C	0.0	0.0	0.0
Cl	-0.083602	2.01174	-1.839858
H	1.090867	0.0	0.0
H	-0.304923	-1.034583	0.213879
N	0.915205	-0.372496	-2.229279
H	0.77976	-1.376882	-2.157252
H	1.763607	-0.175965	-1.66344
N	-1.487892	-0.194479	-1.984987
H	-1.635247	-1.150807	-1.680907
H	-1.465269	-0.181786	-3.001012
C	-0.676142	0.898677	0.906608
N	-1.204972	1.612923	1.676333
F	2.639802	0.0	0.0
