14

C	-0.121903	0.050703	-1.526988
C	0.0	0.0	0.0
Cl	-1.738584	1.017217	-1.971068
H	1.094263	0.0	0.0
H	-0.343248	0.939422	0.436025
N	0.95502	0.804638	-2.120144
H	0.804176	1.785911	-1.915409
H	1.789758	0.518443	-1.565328
N	-0.127054	-1.226536	-2.092784
H	-0.889567	-1.812184	-1.78006
H	-0.063915	-1.166203	-3.097975
C	-0.647416	-1.12817	0.622435
N	-1.165571	-2.06243	1.114423
F	2.634597	0.0	0.0
