18

C	-0.484898	-0.012209	-1.449006
C	0.0	0.0	0.0
F	-1.861088	-0.131316	-1.455986
H	1.098582	0.0	0.0
N	-0.207066	1.347553	-2.074132
O	0.915308	1.524315	-2.532089
O	-1.108234	2.185305	-2.046225
C	0.136132	-1.087792	-2.293276
H	-0.16474	-2.042331	-1.865467
H	-0.211858	-1.009008	-3.326295
H	1.221477	-0.996722	-2.251867
N	-0.42873	-1.272223	0.577924
H	-1.296612	-1.105283	1.073529
H	0.267551	-1.528895	1.268262
N	-0.467573	1.162435	0.747122
H	0.294861	1.820478	0.849478
H	-1.237743	1.625758	0.280096
Br	3.550191	0.0	0.0
