18

C	-0.356847	0.176462	-1.483313
C	0.0	0.0	0.0
F	-0.106792	-0.990977	-2.136724
H	1.099857	0.0	0.0
N	-1.856223	0.415865	-1.619859
O	-2.239015	1.580285	-1.494254
O	-2.585293	-0.552602	-1.80719
C	0.415162	1.276987	-2.170506
H	1.477182	1.075513	-2.006489
H	0.169073	2.260609	-1.775645
H	0.192462	1.259473	-3.240303
N	-0.485635	-1.265129	0.501976
H	-1.262869	-1.083954	1.124358
H	0.255468	-1.732931	1.005661
N	-0.530989	1.111709	0.799111
H	-0.590659	1.967152	0.25937
H	0.133206	1.277149	1.548009
Br	3.576615	0.0	0.0
