18

C	-0.586821	0.034473	-1.403219
C	0.0	0.0	0.0
F	-0.000186	1.034038	-2.142479
H	1.093917	0.0	0.0
N	-0.212478	-1.245687	-2.142265
O	-0.981282	-1.629681	-3.026519
O	0.858049	-1.766949	-1.8617
C	-2.080057	0.215477	-1.431883
H	-2.305418	1.150791	-0.920468
H	-2.427495	0.266491	-2.461521
H	-2.567729	-0.623011	-0.933994
N	-0.465744	-1.242598	0.628722
H	-1.121631	-1.039397	1.372473
H	0.334487	-1.713836	1.033637
N	-0.379933	1.246458	0.667806
H	-1.144955	1.100861	1.313495
H	0.420484	1.57661	1.191436
Br	3.584106	0.0	0.0
