18

C	-0.526801	-0.078668	-1.424662
C	0.0	0.0	0.0
F	-1.874079	-0.389825	-1.379791
H	1.093777	0.0	0.0
N	-0.448237	1.301119	-2.054184
O	-1.49546	1.903839	-2.261646
O	0.679651	1.70073	-2.311584
C	0.205034	-1.06412	-2.291665
H	0.073768	-2.051192	-1.847648
H	1.267258	-0.814128	-2.30021
H	-0.202516	-1.049997	-3.305975
N	-0.366281	-1.266144	0.636997
H	-1.303863	-1.215794	1.01325
H	0.286703	-1.443997	1.388792
N	-0.454501	1.233645	0.618559
H	0.147421	1.450651	1.401365
H	-1.409712	1.147145	0.944118
Br	3.560799	0.0	0.0
