14

C	0.0	0.0	0.0
C	-0.529849	-0.164163	-1.419592
Br	1.956581	0.0	0.0
H	-1.634868	-0.098295	-1.314198
H	-0.277134	0.998639	0.344372
N	-0.481268	-1.104971	0.779008
H	-1.505826	-1.05636	0.736098
H	-0.21138	-0.966572	1.746733
C	-0.142212	-1.423515	-2.036071
N	0.142864	-2.44692	-2.535841
N	-0.127418	0.993571	-2.289716
O	-0.203556	2.105401	-1.776648
O	0.197451	0.762479	-3.450423
Br	-3.620036	0.0	0.0
