14

C	0.0	0.0	0.0
C	-0.530316	0.112397	-1.425081
Br	1.998344	0.0	0.0
H	-1.637012	0.181093	-1.267599
H	-0.311832	0.886053	0.547813
N	-0.504841	-1.172095	0.572955
H	-0.013937	-2.019625	0.340948
H	-0.793646	-1.105417	1.532319
C	-0.196756	-1.050136	-2.231051
N	0.058863	-2.031784	-2.823402
N	-0.086198	1.374349	-2.09533
O	0.224231	1.33049	-3.283169
O	-0.113762	2.385432	-1.399414
Br	-3.629059	0.0	0.0
