13

C	0.0	0.0	0.0
C	-0.192317	0.004133	-1.553381
Cl	1.79799	0.0	0.0
H	0.334342	-0.866606	-1.94314
H	0.305616	0.895907	-1.933285
C	-0.619936	1.183221	0.595756
N	-0.648709	2.255164	1.109521
C	-0.580773	-1.206635	0.587677
N	-0.626844	-2.289272	1.073289
N	-1.480235	-0.015064	-2.416616
O	-2.625173	-0.061635	-2.00231
O	-1.175735	0.015051	-3.611117
H	-1.884362	0.0	0.0
