13

C	0.0	0.0	0.0
C	-0.297295	-0.045488	-1.518339
Cl	1.788917	0.0	0.0
H	0.100468	0.862145	-1.96905
H	-1.376853	-0.132198	-1.648939
C	-0.791127	1.154965	0.502148
N	-0.763513	2.267989	0.932256
C	-0.433337	-1.187918	0.752982
N	-0.526935	-2.11559	1.473853
N	0.326093	-1.17797	-2.242044
O	0.86027	-0.920868	-3.324472
O	0.214207	-2.302787	-1.760633
H	-2.133527	0.0	0.0
