13

C	0.0	0.0	0.0
C	-0.309505	-0.006253	-1.519622
Cl	1.788992	0.0	0.0
H	0.059446	0.918775	-1.95748
H	-1.388838	-0.124132	-1.627964
C	-0.552461	1.245714	0.547148
N	-0.580083	2.33286	1.016055
C	-0.570003	-1.129979	0.745106
N	-0.594395	-2.074453	1.459106
N	0.356382	-1.111478	-2.246489
O	0.174832	-2.253955	-1.832554
O	0.997854	-0.818058	-3.256565
H	-2.179809	0.0	0.0
