13

C	0.0	0.0	0.0
C	-0.361126	-0.052378	-1.493226
Cl	1.788951	0.0	0.0
H	-1.455647	-0.123139	-1.517543
H	0.025392	0.840814	-1.9761
C	-0.438995	1.287001	0.551676
N	-0.673942	2.270226	1.153638
C	-0.476565	-1.102982	0.837855
N	-0.745961	-2.073165	1.437008
N	0.204008	-1.199226	-2.237164
O	0.390138	-2.263733	-1.653267
O	0.355626	-1.024985	-3.450973
H	-2.329402	0.0	0.0
