16

C	-0.49519	0.010895	-1.447921
C	0.0	0.0	0.0
Br	-0.118867	1.717487	-2.352917
H	1.095239	0.0	0.0
H	0.111257	-0.700502	-2.019584
N	-1.918716	-0.230743	-1.498853
H	-2.047625	-1.067441	-0.934425
H	-2.198709	-0.430743	-2.4521
N	-0.434562	-1.318525	0.539459
H	0.399025	-1.879346	0.672826
H	-0.848178	-1.185222	1.453239
C	-0.546678	1.132623	0.848341
H	-0.214492	2.100104	0.473592
H	-0.172578	1.026388	1.8705
H	-1.640636	1.118713	0.855266
Br	3.641752	0.0	0.0
