16

C	-0.480611	-0.016708	-1.450554
C	0.0	0.0	0.0
Br	0.245583	1.573486	-2.470299
H	1.093609	0.0	0.0
H	-0.016702	-0.853457	-1.973233
N	-1.900781	-0.105049	-1.555754
H	-2.185221	-0.197373	-2.522551
H	-2.330235	0.731635	-1.180061
N	-0.405128	-1.256	0.64727
H	0.290885	-1.965051	0.440965
H	-1.298161	-1.55456	0.267907
C	-0.528326	1.176944	0.805182
H	-1.61215	1.103128	0.955194
H	-0.059514	1.145224	1.789085
H	-0.288466	2.132406	0.334741
Br	3.671252	0.0	0.0
