16

C	-0.410819	0.127057	-1.466696
C	0.0	0.0	0.0
Br	-0.363369	-1.656811	-2.373619
H	1.104305	0.0	0.0
H	-1.46162	0.415528	-1.559538
N	0.419372	1.020313	-2.217272
H	0.106428	1.97443	-2.102823
H	1.384437	0.935558	-1.904472
N	-0.621869	-1.140135	0.673292
H	-0.289228	-1.130112	1.63279
H	-0.246708	-1.987542	0.260768
C	-0.439472	1.271333	0.721907
H	-0.017753	2.162199	0.253564
H	-0.072511	1.251106	1.752193
H	-1.532344	1.340964	0.743208
Br	3.650681	0.0	0.0
