16

C	-0.217944	0.025641	-1.516085
C	0.0	0.0	0.0
Br	-2.166413	-0.089668	-1.954923
H	1.101197	0.0	0.0
H	0.080138	0.998902	-1.910816
N	0.474483	-0.995121	-2.253704
H	0.292528	-1.890153	-1.810759
H	1.469949	-0.804698	-2.131099
N	-0.441074	-1.213321	0.673933
H	-1.370851	-1.473031	0.35854
H	0.200959	-1.974451	0.489255
C	-0.542013	1.225291	0.707635
H	-0.217535	2.144329	0.211187
H	-1.635609	1.210812	0.734333
H	-0.167921	1.232928	1.731821
Br	3.59044	0.0	0.0
