11
Coordinates from ORCA-job run
  C   -0.54635040191988     -0.28776700435935      0.12788281679022
  C   0.81007831362783      0.22776449097616     -0.33520308421083
  F   -0.44942801666122     -0.51494893852142      1.51028039821893
  H   0.77491973840888      0.41044340529895     -1.41109672451663
  H   -0.77207655811787     -1.25699065128102     -0.32118823183242
  H   1.01715244325251      1.17928513407621      0.16435234245259
  N   -1.56341592029238      0.63591735776972     -0.20945149261519
  H   -1.42324490110115      1.51866116227374      0.26609887375755
  H   -2.47676214091670      0.27636304544861      0.03367112709002
  C   1.88561674843091     -0.71177942989354     -0.02861504565266
  N   2.74451069528907     -1.47594857178806      0.20226902051842
