11
Coordinates from ORCA-job run
  C   -0.65215434891270     -0.36914484529921      0.00026864382398
  C   0.84076426985725     -0.43999713504471      0.29823664428873
  F   -1.27387725909153     -1.08692269793724      1.04356345442808
  H   1.12636692588299     -1.48400642362786      0.44360723608083
  H   -0.89744443039429     -0.90480573938814     -0.91872273048532
  H   1.03945163793830      0.08524251396391      1.23768831121345
  N   -1.09699220302939      0.96353772488711     -0.09950572160132
  H   -2.07387569790405      1.01785516592061     -0.35242260440291
  H   -0.94036629680040      1.47526957200488      0.75910317031974
  C   1.63966639037845      0.14537340341233     -0.77397263285687
  N   2.28846101207538      0.59759846110832     -1.63984377080839
