11
Coordinates from ORCA-job run
  C   -0.66236877092605     -0.40201070958462      0.22965117030413
  C   0.86105206258139     -0.48171983208913      0.23356917685623
  F   -1.09547119782252     -1.11053679142697      1.34308997506846
  H   1.21810633500156      0.01276930140316      1.14068585804361
  H   -1.07456586841537     -0.94381563928743     -0.63110909807809
  H   1.16312877219064     -1.53003269633325      0.27356131735170
  N   -1.09426627365885      0.95034725365648      0.35397074649673
  H   -0.53423678897543      1.58366746348884     -0.19965607374146
  H   -2.06666981485625      1.05748130490419      0.10076792358114
  C   1.43438951565778      0.16089462701754     -0.94457997379627
  N   1.85190202922308      0.70095571825115     -1.89895102208617
