11
Coordinates from ORCA-job run
  C   -0.47166025449209      0.04279180826207      0.41639632565195
  C   0.70547979241224     -0.27744230572111     -0.49558831729126
  F   -0.12724854584396      1.19440675033137      1.14270656381850
  H   0.47573417160174     -1.17405864196919     -1.07473899628640
  H   -0.62100164408582     -0.74599986041450      1.15633358004076
  H   0.84772644078882      0.55183070840529     -1.19551528614052
  N   -1.65284628983241      0.20392513305173     -0.34537949344928
  H   -1.57033929524191      0.98895505238510     -0.97941379699773
  H   -2.45448344079317      0.35148993044305      0.25310092969542
  C   1.94112944136795     -0.47863922048025      0.25696926327977
  N   2.92750962411860     -0.65825935429354      0.86512922767880
