16

C	-0.582433	0.062008	-1.383776
C	0.0	0.0	0.0
F	-0.120586	-0.935338	-2.2001
H	1.096878	0.0	0.0
H	-1.673808	0.016848	-1.35705
N	-0.285774	1.353886	-2.115891
O	-0.950493	1.53046	-3.138352
O	0.579173	2.108887	-1.683803
C	-0.466126	-1.29675	0.646914
H	-0.158762	-2.158078	0.052803
H	-1.55556	-1.306407	0.767939
H	-1.5e-05	-1.392863	1.630693
N	-0.568785	1.152314	0.722327
H	-0.583603	0.926011	1.709713
H	0.084345	1.920408	0.614667
Cl	3.496078	0.0	0.0
