16

C	-0.349658	-0.016958	-1.486578
C	0.0	0.0	0.0
F	-0.089631	1.189305	-2.065091
H	1.097009	0.0	0.0
H	0.162983	-0.806552	-2.03556
N	-1.821482	-0.273239	-1.669939
O	-2.159509	-1.437184	-1.879154
O	-2.589906	0.675559	-1.513949
C	-0.485414	-1.263014	0.691832
H	-0.054654	-1.281555	1.692368
H	-1.576705	-1.284652	0.780891
H	-0.166137	-2.160872	0.157836
N	-0.467089	1.184478	0.699796
H	-1.448251	1.35163	0.504965
H	0.054493	1.985469	0.365383
Cl	3.448238	0.0	0.0
