16

C	-0.562352	0.002276	-1.394424
C	0.0	0.0	0.0
F	-0.054644	-1.002048	-2.174645
H	1.096859	0.0	0.0
H	-1.651779	-0.072233	-1.390577
N	-0.282582	1.284976	-2.143596
O	-1.043174	1.520288	-3.085757
O	0.675575	1.973328	-1.807482
C	-0.479933	-1.259748	0.704408
H	-0.027282	-1.31188	1.697654
H	-0.172229	-2.150169	0.154884
H	-1.571322	-1.257327	0.810792
N	-0.562992	1.195405	0.650644
H	-0.644876	1.01059	1.643565
H	0.120965	1.938066	0.552406
Cl	3.510037	0.0	0.0
