16

C	-0.516216	0.058166	-1.4199
C	0.0	0.0	0.0
F	-1.886144	0.172032	-1.432346
H	1.098105	0.0	0.0
H	-0.081253	0.891535	-1.966426
N	-0.186979	-1.181116	-2.210317
O	-0.949034	-2.140903	-2.110692
O	0.832511	-1.135213	-2.891046
C	-0.49644	-1.219183	0.768219
H	-0.11216	-2.150705	0.349359
H	-1.590184	-1.268096	0.773782
H	-0.136435	-1.144199	1.796962
N	-0.406926	1.281624	0.589632
H	0.300152	1.55905	1.258355
H	-1.290298	1.178154	1.073632
Cl	3.424152	0.0	0.0
