16

C	-0.384505	0.010122	-1.460619
C	0.0	0.0	0.0
F	0.106905	1.120092	-2.081683
H	1.1034	0.0	0.0
H	-0.047458	-0.882555	-1.989954
N	-1.886875	0.053403	-1.635136
O	-2.4209	1.125155	-1.891322
O	-2.463227	-1.023551	-1.485115
C	-0.474138	-1.242679	0.731751
H	-1.560604	-1.253533	0.83482
H	-0.020901	-1.253196	1.726779
H	-0.15135	-2.151716	0.219164
N	-0.560093	1.200309	0.636351
H	-0.196229	1.219267	1.585167
H	-0.151308	2.006537	0.175099
Cl	3.462441	0.0	0.0
