16

C	-0.385247	0.019018	-1.465476
C	0.0	0.0	0.0
F	0.1053	1.126473	-2.07496
H	1.095323	0.0	0.0
H	-0.048222	-0.870235	-1.999284
N	-1.886864	0.04695	-1.639563
O	-2.452476	-1.027861	-1.43509
O	-2.433407	1.096888	-1.944334
C	-0.476913	-1.244125	0.729204
H	-0.205135	-2.155233	0.192161
H	-1.561632	-1.23811	0.868228
H	0.013807	-1.274614	1.705886
N	-0.533308	1.2155	0.62332
H	0.216891	1.891725	0.686883
H	-0.825395	1.005536	1.571036
Cl	3.440299	0.0	0.0
