12

C	-0.388357	-0.063727	-1.45429
C	0.0	0.0	0.0
Cl	-2.185412	-0.221607	-1.722832
H	1.093944	0.0	0.0
H	0.047692	-0.966337	-1.882385
H	-0.3948	0.921478	0.451153
C	0.061294	1.104671	-2.210987
N	0.383515	2.040311	-2.841223
N	-0.414781	-1.232917	0.667277
H	0.33949	-1.489553	1.290409
H	-1.255931	-1.102761	1.212913
F	2.636227	0.0	0.0
