12

C	-0.58656	0.013077	-1.405395
C	0.0	0.0	0.0
Cl	-0.312024	1.594984	-2.223804
H	1.098267	0.0	0.0
H	-1.669672	-0.121669	-1.371118
H	-0.394916	0.874881	0.528794
C	-0.041341	-1.055805	-2.243476
N	0.33138	-1.927847	-2.935023
N	-0.447772	-1.268017	0.61187
H	-0.939374	-1.092244	1.478755
H	0.403459	-1.766827	0.84903
F	2.661589	0.0	0.0
