12

C	-0.386217	0.043412	-1.456326
C	0.0	0.0	0.0
Cl	-2.158252	-0.302462	-1.747349
H	1.0943	0.0	0.0
H	0.152604	-0.740564	-1.994871
H	-0.343212	-0.965321	0.401078
C	-0.090041	1.333698	-2.079379
N	0.153275	2.365938	-2.584577
N	-0.505836	1.159435	0.719944
H	0.232585	1.486251	1.327758
H	-1.316744	0.937162	1.279668
F	2.645488	0.0	0.0
