12

C	-0.396897	-0.08125	-1.449625
C	0.0	0.0	0.0
Cl	-2.180243	-0.425828	-1.695308
H	1.100853	0.0	0.0
H	0.123504	-0.91656	-1.92199
H	-0.341141	-0.923547	0.487591
C	-0.094698	1.142775	-2.18794
N	0.132348	2.119379	-2.797478
N	-0.497485	1.220166	0.623124
H	0.26198	1.610451	1.165454
H	-1.278019	1.040574	1.238937
F	2.640176	0.0	0.0
