12

C	-0.595734	-0.020542	-1.39854
C	0.0	0.0	0.0
Cl	-0.164057	1.457756	-2.323613
H	1.097734	0.0	0.0
H	-1.686713	-0.039741	-1.34623
H	-0.401024	0.882173	0.507599
C	-0.178238	-1.2001	-2.154558
N	0.147226	-2.1505	-2.762387
N	-0.498368	-1.230486	0.665063
H	0.284736	-1.876599	0.623875
H	-0.626309	-1.025956	1.650267
F	2.672965	0.0	0.0
