12
Coordinates from ORCA-job run
  C   1.04280624330383      0.01883819270278      0.20901103521759
  C   -0.37842617845677      0.08342104386246     -0.38946674334221
  Cl  2.25240416222311      0.08298124534907     -1.09176891860893
  H   -0.42242791513402      0.97675876929403     -1.01966385427666
  H   1.17132148870500     -0.93844399287776      0.72144150477070
  C   1.27055531088121      1.10956084629577      1.15197287393833
  N   1.43677027842225      1.99463920098353      1.90603701177687
  C   -1.35555613333060      0.23883185349267      0.70639088354046
  N   -2.16334346185080      0.29289057912216      1.55849291202034
  N   -0.61447460176576     -1.08202769781042     -1.21706465575641
  H   -1.35419025534346     -0.90213682433938     -1.88283182795631
  H   -0.88643893765401     -1.87631321607491     -0.65055022132376
