12
Coordinates from ORCA-job run
  C   0.81677872442469      0.60173857785349      0.41527901237183
  C   -0.34796868940192      0.07104170157801     -0.44956421649291
  Cl  0.29068101452266      1.00478587270316      2.05991668283961
  H   0.06003135348494     -0.02552776523687     -1.46946493163874
  H   1.21032337733301      1.51726149333492     -0.03378679926175
  C   1.86887001293484     -0.41110759662109      0.44285109885921
  N   2.68391658958794     -1.25608463377278      0.41324056449236
  C   -1.40820375029297      1.08141633052080     -0.51051331722420
  N   -2.26135035277859      1.88308089738676     -0.59234719659043
  N   -0.85977053628998     -1.16779912323864      0.10621582029274
  H   -1.79526990544717     -1.35779948807561     -0.22742627624562
  H   -0.26003783807746     -1.94100626643215     -0.15540044140210
