12
Coordinates from ORCA-job run
  C   0.88662654982723      0.63614146082236      0.10530747340776
  C   -0.36566150145904     -0.09378309745635     -0.43006210462837
  Cl  0.49096079513240      1.75104752668314      1.42582966543538
  H   -0.02379281282805     -0.65704102406823     -1.31425782225989
  H   1.32725869587190      1.22908156563427     -0.70014616986830
  C   1.85055904949479     -0.36841810582097      0.54666201062906
  N   2.58917749626380     -1.22509701199718      0.86253969237325
  C   -1.33731381543097      0.89548364944803     -0.90551337462443
  N   -2.12195666439589      1.66939872253181     -1.30871351642409
  N   -0.94975955489104     -0.91717533846289      0.61175265998944
  H   -1.91510376480459     -1.13612821953038      0.40526405803128
  H   -0.43299447278053     -1.78351012778361      0.70333742793891
