12
Coordinates from ORCA-job run
  C   0.93075768691752     -0.03847293515128      0.24260640805647
  C   -0.49192051907388      0.12778347708248     -0.36362903471802
  Cl  2.11837463582408     -0.22671323057584     -1.07544207034463
  H   -0.47880603064412      1.04498580025117     -0.96228150772361
  H   0.96510415102979     -0.95514358372006      0.83712716425880
  C   1.29189113221784      1.10272171094158      1.07479531497481
  N   1.55335830943322      2.03808337349503      1.73581081542322
  C   -1.42957133232760      0.31612336476953      0.75195110827667
  N   -2.15822060134594      0.42894137727020      1.66547291972473
  N   -0.95554471108851     -0.95277479398543     -1.20063674452463
  H   -0.36240647096674     -1.05588669000127     -2.01355597921966
  H   -0.98401624997565     -1.82864787037610     -0.69321839418415
