12
Coordinates from ORCA-job run
  C   1.04115515222944      0.03117616640837      0.21472815418839
  C   -0.37623911422547      0.05733188756838     -0.39651797021538
  Cl  2.25948696248999      0.00211640351357     -1.07859489763579
  H   -0.41469284368423      0.90715335525858     -1.08463116998275
  H   1.16319541211049     -0.88823841230368      0.79376727123968
  C   1.26438833712689      1.18511976922090      1.08059783770343
  N   1.42993420100629      2.12173008047161      1.76952345665806
  C   -1.35879022153210      0.28576400313205      0.68188582190867
  N   -2.16731920304107      0.39208227649224      1.52817047343108
  N   -0.60969952992303     -1.16000277663789     -1.14611939532649
  H   -0.89236611770874     -1.91332094829463     -0.53100779854384
  H   -1.34005303484845     -1.02191180482951     -1.83180178342503
