12
Coordinates from ORCA-job run
  C   0.81913888593026      0.58234845734672      0.18861355348512
  C   -0.50014839581040      0.04873177446172     -0.43840278015865
  Cl  0.63305892250398      0.81390770108672      1.94472871721634
  H   -0.30542819850293     -0.04665363552736     -1.51385880201855
  H   1.07037069913508      1.55666968602561     -0.23826752672949
  C   1.88920102005714     -0.37054063548347     -0.08580834315077
  N   2.70431210681976     -1.17495635152485     -0.34631266798635
  C   -1.54001119443102      1.07339565034254     -0.27262651769959
  N   -2.35366025701365      1.90772497381166     -0.13514763508181
  N   -0.97425588280862     -1.22433221877562      0.04278030351302
  H   -0.32143409476745     -1.96314398425166     -0.18759251952860
  H   -1.12214361111213     -1.20515141751202      1.04389421813934
