12
Coordinates from ORCA-job run
  C   0.94823422488406      0.04007480153927      0.15835480586557
  C   -0.53500232384042      0.10238183259712     -0.30589278556586
  Cl  2.01860225678299      0.10737686563035     -1.26766980768963
  H   -0.67302078504916      1.06651715963327     -0.80707974976043
  H   1.13240270304370     -0.91831137707670      0.65083023290330
  C   1.26869162405645      1.13215815517002      1.06928466391390
  N   1.49198243043790      2.02699697357756      1.79698629203054
  C   -1.37728698790527      0.08399644505153      0.89799680709326
  N   -2.02076627412385      0.05990535874853      1.87961548952781
  N   -0.96164307124348     -0.94154500620754     -1.20676961520224
  H   -0.84973818847864     -1.85820686010622     -0.79127649475224
  H   -0.44145560856430     -0.90134434855719     -2.07337983836401
