12
Coordinates from ORCA-job run
  C   1.00589369093803      0.03655842929173      0.22108124168950
  C   -0.44726559454174      0.04818486999511     -0.28707817895153
  Cl  2.11899403969632      0.18867531507496     -1.16693697303778
  H   -0.61339682941969      1.01134380064201     -0.79306021475360
  H   1.19839495082329     -0.93397130558549      0.68298510324318
  C   1.25244451471180      1.11661304651016      1.16972717922876
  N   1.43194520644670      1.99176916658968      1.93213635573184
  C   -1.34406002076883     -0.01426152588216      0.87259493402290
  N   -2.07354099405419     -0.06691710275497      1.79083319152460
  N   -0.66368115246190     -1.12593611336238     -1.12099221642431
  H   -1.65429913085814     -1.25882053735726     -1.28332798831998
  H   -0.21242868051165     -0.99323804316139     -2.01796243395358
