12
Coordinates from ORCA-job run
  C   1.08518179834926      0.36556697387026     -0.03007759135906
  C   -0.27709899991977     -0.00083258780324     -0.63992885363046
  Cl  1.51339076014237      2.04999827243084     -0.40599550240322
  H   -0.19422284652380      0.17151694730486     -1.71713596763023
  H   1.83047542298384     -0.28345842231789     -0.49261796418503
  C   1.07655178421260      0.13736718221422      1.41125899739145
  N   1.04081737842775     -0.08838813511379      2.56331898664705
  C   -1.33748266747168      0.88164694415542     -0.11614856424049
  N   -2.21987702615520      1.52699190410716      0.31383600090573
  N   -0.49992411718655     -1.41782168050591     -0.41291512087621
  H   -0.78424372529325     -1.58407990953889      0.54633345276050
  H   -1.23556776156552     -1.75950748880300     -1.01892787338005
