12
Coordinates from ORCA-job run
  C   0.75339807835777      0.69997014796064      0.38056429960561
  C   -0.30120594337518     -0.02294775252297     -0.48659133015846
  Cl  0.05013456641269      1.35735220873638      1.86940293565421
  H   0.21330345559167     -0.27606869023741     -1.42852215473467
  H   1.16692449348997      1.54034891728333     -0.18289461392515
  C   1.82350453368012     -0.24573632045089      0.68742223672894
  N   2.65940400463829     -1.04733960823048      0.88215082503197
  C   -1.37559076129922      0.91419850148120     -0.82751571116241
  N   -2.23818359230302      1.65016902106691     -1.13000924793557
  N   -0.83597644095930     -1.16779710097044      0.22620926020501
  H   -1.72480190332644     -1.45549758245852     -0.16072884056196
  H   -0.19091049090735     -1.94665174165778      0.16951234125250
