12
Coordinates from ORCA-job run
  C   1.08492252195585      0.34420578651853     -0.14260874916929
  C   -0.34142642971489      0.00895898331237     -0.60668785985433
  Cl  1.50541005898565      2.02247121463158     -0.55328109310737
  H   -0.36918704138884      0.18642221096129     -1.68587731045430
  H   1.76383975129908     -0.31608046114621     -0.68455078361650
  C   1.22273925081285      0.10621866372192      1.29058074442646
  N   1.29243186693992     -0.12764576060505      2.43947576833629
  C   -1.32231995555796      0.90928856768964      0.02960296031136
  N   -2.14157351625345      1.57113651459810      0.54993526405790
  N   -0.56817240919041     -1.40459854769206     -0.36296196007953
  H   -1.36815379598519     -1.72864976620347     -0.89225618860434
  H   -0.75651030190263     -1.57072740578662      0.61962920775363
