12
Coordinates from ORCA-job run
  C   0.82990126462477      0.63537095144428      0.33138112093727
  C   -0.34587289229052      0.01516384411279     -0.45556279195526
  Cl  0.31142876082946      1.27995895910202      1.89977904322067
  H   0.06147068625997     -0.23333129630387     -1.44972129061653
  H   1.24608777714444      1.46829201375806     -0.24109720617931
  C   1.85769335924723     -0.38763950414642      0.50601834067198
  N   2.65797828470534     -1.24355083002658      0.58484751492306
  C   -1.38254215141038      1.03064086357726     -0.66253416168622
  N   -2.21995841701881      1.82918111279982     -0.85813176220255
  N   -0.88779592234046     -1.12048717767291      0.26682260732724
  H   -0.30271431771334     -1.93510170970144      0.12502749150714
  H   -1.82467643203771     -1.33749722694305     -0.04582890594747
