12
Coordinates from ORCA-job run
  C   1.00239713626267      0.31130895280632     -0.16754318859740
  C   -0.46375681083403      0.05345450359758     -0.59721154695660
  Cl  1.50854943472070      1.96522271407062     -0.58603938090347
  H   -0.51777546737828      0.26886507446809     -1.66978421811205
  H   1.64481673066641     -0.37022440561610     -0.73136710105044
  C   1.16867554366267      0.05143663649353      1.25825368376581
  N   1.26172892711215     -0.21158990083557      2.39933221559866
  C   -1.35309867743184      0.99511742332113      0.09476438391441
  N   -2.05648034408875      1.74571197456243      0.65964121893249
  N   -0.91985790100268     -1.29953602292028     -0.37093683796455
  H   -0.89703638643661     -1.54330492549057      0.61185679252211
  H   -0.37516218525238     -1.96746202445719     -0.90096602114897
