12
Coordinates from ORCA-job run
  C   0.89887108823245      0.54073205357170      0.23276605230794
  C   -0.30982775909193     -0.08736651641013     -0.48020343184244
  Cl  0.39642373924297      1.30083789593346      1.76668127694961
  H   0.07904238191585     -0.54717691696573     -1.39605372015111
  H   1.31882982551821      1.33790506616433     -0.38542651669898
  C   1.92004118439267     -0.47323839610220      0.47495354218305
  N   2.76547034156360     -1.27291349224690      0.62863082599725
  C   -1.24745622151019      0.98084078425317     -0.88602996476902
  N   -2.02857081614736      1.79962317750942     -1.20099641460188
  N   -0.88279522443980     -1.13376062659673      0.33640915713341
  H   -1.39307274393919     -0.74135223189750      1.11791595433878
  H   -1.51695579573729     -1.70413079721291     -0.20764676084665
