12
Coordinates from ORCA-job run
  C   1.08854805512700      0.33601589779785     -0.14758343193801
  C   -0.33939322367076     -0.00008546280411     -0.60583364849832
  Cl  1.51835361451223      2.00336029358644     -0.59174474196704
  H   -0.36539041525769      0.15660243058974     -1.68830711068902
  H   1.76460533360567     -0.33874126841743     -0.67512564914314
  C   1.22341148145063      0.12534966710781      1.29013933096637
  N   1.28593621649759     -0.09489906705112      2.44217147763853
  C   -1.31642133963835      0.91818809158634      0.01066229195092
  N   -2.14570428206069      1.58894380019436      0.50301273294819
  N   -0.57474368910328     -1.40714179787915     -0.33491838257769
  H   -1.37991445859942     -1.73491620781362     -0.85400291686401
  H   -0.75928729286290     -1.55367637689714      0.65153004817321
