12
Coordinates from ORCA-job run
  C   0.94121073698545      0.56013384437327     -0.03352024118913
  C   -0.35385779199174     -0.19471635215616     -0.40639439179711
  Cl  0.60315861820956      2.07052236287498      0.83204895774062
  H   -0.03263616011644     -1.03842838494180     -1.03980840804425
  H   1.47894647375845      0.82327612660795     -0.94794983898727
  C   1.77354670811911     -0.32497233489871      0.77706123533075
  N   2.40103670792280     -1.09135611262555      1.40812310753912
  C   -1.19555462363501      0.66701517106645     -1.24183843812465
  N   -1.87639959474835      1.32763515401208     -1.93257226221713
  N   -1.06804018517049     -0.58790458104962      0.79365342427418
  H   -0.63657709449938     -1.40803395718275      1.20284140728995
  H   -2.03483379483393     -0.80117093608016      0.58735544818493
