12
Coordinates from ORCA-job run
  C   0.90421014864618      0.58702659190908      0.19431275700131
  C   -0.30200538686144     -0.10817521323136     -0.47514507192149
  Cl  0.39499050113001      1.83820764013647      1.34322334454284
  H   0.12781398207671     -0.76624924978393     -1.24874152578540
  H   1.50743070253084      1.07748636079644     -0.57394029932332
  C   1.71059737876372     -0.43086789031970      0.86286236977476
  N   2.32527477041321     -1.29608135210091      1.36550392596745
  C   -1.11413308343884      0.89282502121178     -1.17329819566482
  N   -1.76600215294412      1.67157013090440     -1.76154732718096
  N   -1.09814459257611     -0.79936762212243      0.52118800475070
  H   -2.02924246080491     -0.98940907947325      0.17548202574539
  H   -0.65978980693525     -1.67796533792659      0.77009999209357
