12
Coordinates from ORCA-job run
  C   0.76908038077533      0.64593467956268      0.38343159890758
  C   -0.28547239537511     -0.03700821355066     -0.50261670640643
  Cl  0.12544202869916      0.92369226152284      2.02396036560827
  H   0.18740312452980     -0.19059018116492     -1.47943653519083
  H   1.01318837323403      1.62973718436374     -0.02473906525308
  C   1.97905508488915     -0.16799708177169      0.43988768674407
  N   2.97377300715977     -0.79126241885513      0.45036653207522
  C   -1.42677602097657      0.88112677742632     -0.70166644249965
  N   -2.37264360441511      1.56328097780732     -0.84338676509413
  N   -0.62707345392318     -1.33393384990358      0.03742686367683
  H   -1.20637123371568     -1.23835259738627      0.86234055073972
  H   -1.13060529088161     -1.88362753805063     -0.64656808330756
