12
Coordinates from ORCA-job run
  C   0.69456081704210      0.66712898305588      0.34473849738309
  C   -0.30422838855971     -0.07600515818808     -0.58737814420542
  Cl  -0.12126182331877      1.22349911059177      1.82677092177741
  H   0.27196345221937     -0.36761982982291     -1.47427079021309
  H   1.08768009300084      1.55491124446256     -0.15719194123564
  C   1.78902883727480     -0.23875978109447      0.67640959549510
  N   2.65111282299367     -1.01061266471926      0.87824671230737
  C   -1.32879888024650      0.88113734586034     -1.02648384219685
  N   -2.14134460346509      1.65992853318446     -1.35855256048125
  N   -0.92696092166057     -1.26033108672701     -0.05216847222490
  H   -0.23813464809536     -1.98015969121128      0.12801034117104
  H   -1.43161675718477     -1.05511700539201      0.80086968242312
