12
Coordinates from ORCA-job run
  C   0.89051639039463      0.50058343486105     -0.03776472396745
  C   -0.46543353975639     -0.13608874533731     -0.45582335914133
  Cl  0.66097505388890      1.64360668857688      1.30842621416494
  H   -0.23772937088982     -0.80805303876089     -1.29259635276276
  H   1.31162710450077      1.06809513161757     -0.87157494443151
  C   1.80869001893509     -0.56419246003330      0.35161657466047
  N   2.49460515261744     -1.47210542975288      0.64295630840875
  C   -1.33519778237435      0.92745252000539     -0.97672211376058
  N   -2.00405123655206      1.78845977456232     -1.41068043408272
  N   -1.15767146668297     -0.89905133708125      0.55193691871084
  H   -0.62048803011290     -1.71447235040731      0.81958214553825
  H   -1.34684229396833     -0.33623418825027      1.37164376666310
