12
Coordinates from ORCA-job run
  C   1.01744268917623      0.26359914914100     -0.16271630370377
  C   -0.45896134788036      0.08700119214761     -0.59842526977174
  Cl  1.60460940081690      1.89889004422640     -0.54671820440454
  H   -0.50001612324262      0.32491936907930     -1.66680092617300
  H   1.62629073911811     -0.43676727705240     -0.74053487478475
  C   1.16834285048896     -0.03166887366359      1.25777138155278
  N   1.24290518083943     -0.29762343985922      2.39947970534783
  C   -1.30168039106706      1.05729818726962      0.11179957326107
  N   -1.97205339267243      1.81681349130961      0.70411112422596
  N   -0.98218191181514     -1.24566029521628     -0.39827537288016
  H   -0.97558991665713     -1.50772547732701      0.58003488086779
  H   -0.46910777710492     -1.93007607005504     -0.93872571353748
