12
Coordinates from ORCA-job run
  C   1.01122587998445      0.28951989681393     -0.16666075782938
  C   -0.46377743824351      0.08549573565773     -0.59558064845687
  Cl  1.55846202153244      1.94270794841647     -0.53297693313414
  H   -0.51703806889217      0.33709729814656     -1.66025440833735
  H   1.63194167867457     -0.38935878806625     -0.75729553389866
  C   1.17688597763427     -0.02034441921076      1.24915482685696
  N   1.25854375224217     -0.30016689607346      2.38692426565703
  C   -1.32352972311817      1.02599202150799      0.13428775691771
  N   -2.00918749213243      1.75306781692904      0.74927130882630
  N   -0.95584562400644     -1.26105479354345     -0.41019316885386
  H   -0.93890752816120     -1.53513425907644      0.56470143955320
  H   -0.42977343551397     -1.92682156150131     -0.96137814730093
