15

C	-0.095002	0.148605	-1.524885
C	0.0	0.0	0.0
Cl	-1.660037	1.006468	-2.092324
H	1.097244	0.0	0.0
H	-0.435899	-0.941472	0.337772
N	1.037962	0.892875	-1.952975
H	1.219741	0.783237	-2.941592
H	1.862112	0.623904	-1.353125
C	-0.220132	-1.17521	-2.165854
N	-0.272086	-2.225063	-2.69328
C	-0.501634	1.205112	0.773315
H	-0.150866	1.13858	1.8071
H	-1.592094	1.289729	0.776805
H	-0.085089	2.115246	0.338434
F	2.73976	0.0	0.0
