15

C	-0.094934	0.141922	-1.525671
C	0.0	0.0	0.0
Cl	-1.661274	0.995021	-2.096005
H	1.097185	0.0	0.0
H	-0.436001	-0.939892	0.342142
N	1.037413	0.884619	-1.958752
H	1.860824	0.61916	-1.356572
H	1.220498	0.765722	-2.94586
C	-0.218002	-1.184412	-2.160564
N	-0.262665	-2.236137	-2.684794
C	-0.501748	1.208322	0.768568
H	-0.150168	1.146158	1.8024
H	-0.086033	2.117012	0.329635
H	-1.592204	1.292498	0.772628
F	2.737953	0.0	0.0
