15

C	-0.543605	-0.044759	-1.416331
C	0.0	0.0	0.0
Cl	0.173002	-1.446406	-2.302402
H	1.093446	0.0	0.0
H	-0.340277	0.956821	0.424539
N	-1.997611	-0.17347	-1.57748
H	-2.416039	0.559029	-1.009244
H	-2.26309	-1.058383	-1.157171
C	-0.14703	1.173744	-2.14149
N	0.097123	2.188358	-2.68014
C	-0.47267	-1.157174	0.868563
H	0.032815	-1.081717	1.834072
H	-0.169	-2.110306	0.428968
H	-1.55464	-1.184277	1.05415
F	2.644283	0.0	0.0
