15

C	-0.123201	-0.073649	-1.53754
C	0.0	0.0	0.0
Cl	-0.153892	1.625585	-2.227098
H	1.095351	0.0	0.0
H	-0.32058	-0.987555	0.359129
N	1.017064	-0.754268	-2.106855
H	1.826518	-0.518453	-1.484451
H	0.856581	-1.753817	-2.037084
C	-1.380628	-0.686014	-1.990503
N	-2.387476	-1.220338	-2.274861
C	-0.710689	1.113024	0.739527
H	-0.643482	0.934602	1.816385
H	-1.772003	1.184167	0.475584
H	-0.241918	2.074882	0.533625
F	2.728087	0.0	0.0
