15

C	-0.127358	0.115485	-1.53155
C	0.0	0.0	0.0
Cl	-0.08244	1.879736	-2.016932
H	1.092996	0.0	0.0
H	-0.317894	-1.025845	0.232878
N	0.988878	-0.539196	-2.180226
H	1.808495	-0.375203	-1.550375
H	0.803101	-1.536656	-2.1807
C	-1.412312	-0.387154	-2.040831
N	-2.470468	-0.803829	-2.339483
C	-0.711787	1.006331	0.876069
H	-0.287028	2.002619	0.746931
H	-1.787721	1.059471	0.669214
H	-0.58325	0.726173	1.926777
F	2.723944	0.0	0.0
