15

C	-0.124527	0.021147	-1.539576
C	0.0	0.0	0.0
Cl	-0.368002	1.81218	-2.053599
H	1.092937	0.0	0.0
H	-0.462172	0.868598	0.468454
N	1.055071	-0.485749	-2.144882
H	0.942607	-1.416196	-2.51448
H	1.85475	-0.397334	-1.471546
C	-1.328236	-0.639305	-2.056414
N	-2.271118	-1.211671	-2.461991
C	-0.477669	-1.319544	0.590406
H	-0.203688	-1.359238	1.648518
H	-1.558577	-1.47586	0.503524
H	0.032467	-2.152759	0.099264
F	2.732938	0.0	0.0
