15

C	-0.543362	-0.020289	-1.416857
C	0.0	0.0	0.0
Cl	0.179341	-1.401499	-2.330074
H	1.093444	0.0	0.0
H	-0.33973	0.949646	0.440721
N	-1.997401	-0.152709	-1.579942
H	-2.259629	-1.045294	-1.173739
H	-2.419503	0.568629	-1.00078
C	-0.151747	1.213491	-2.119039
N	0.115678	2.237576	-2.62774
C	-0.474545	-1.171582	0.848004
H	-1.555272	-1.194619	1.040558
H	0.038964	-1.119519	1.810627
H	-0.181132	-2.117936	0.386972
F	2.643346	0.0	0.0
