15

C	-0.135124	-0.140828	-1.531331
C	0.0	0.0	0.0
Cl	-0.439927	1.572892	-2.226964
H	1.095288	0.0	0.0
H	-0.458672	0.913592	0.375723
N	1.05156	-0.676034	-2.093713
H	0.9508	-1.650203	-2.358219
H	1.851639	-0.511744	-1.433808
C	-1.329455	-0.888763	-1.957574
N	-2.287761	-1.509098	-2.231896
C	-0.472391	-1.24661	0.734748
H	-0.185295	-1.179379	1.787261
H	0.025085	-2.130254	0.324636
H	-1.554276	-1.406448	0.680614
F	2.736531	0.0	0.0
