15

C	-0.545745	-0.021519	-1.416064
C	0.0	0.0	0.0
Cl	0.166545	-1.410393	-2.325578
H	1.093418	0.0	0.0
H	-0.339045	0.950624	0.439454
N	-2.000445	-0.144692	-1.576456
H	-2.416992	0.578922	-0.995716
H	-2.266807	-1.036164	-1.170419
C	-0.14863	1.207519	-2.12353
N	0.093467	2.227544	-2.652614
C	-0.474053	-1.169602	0.851312
H	0.038023	-1.113412	1.814538
H	-1.555059	-1.19353	1.042612
H	-0.178249	-2.116827	0.393724
F	2.644626	0.0	0.0
