17
Coordinates from ORCA-job run
  C   0.52456077575944     -0.27718830873338     -0.52211003793128
  C   -0.43555055471999      0.83170649592697     -0.08916811044389
  F   0.46217091676013     -0.39832751523344     -1.88235738859636
  H   -0.20053430804859      1.72161449803202     -0.67194717601327
  N   1.91491777081873      0.29047741043015     -0.22392339761046
  O   2.62810486470284     -0.31304438343389      0.56772311683702
  O   2.19829103579622      1.31963660991595     -0.82661950832442
  C   0.34129997042713     -1.61980829484592      0.12135886411635
  H   0.43919925815740     -1.55585050139981      1.20305598097156
  H   1.10851089153353     -2.29775322399713     -0.25147355826251
  H   -0.64174102782218     -2.01124053921365     -0.13957959861919
  N   -0.32726537266131      1.06617121800811      1.30281957438570
  H   -0.71377385186763      1.96429929709337      1.55854228723125
  H   -0.79459800697097      0.34073164774182      1.83220570602271
  N   -1.83195028607961      0.41794313627957     -0.55064600066184
  O   -2.18474674124756      0.78636337932409     -1.66554071045192
  O   -2.48789533453759     -0.26573092589482      0.23465995735055
