17
Coordinates from ORCA-job run
  C   0.47478791394123     -0.14434486951142     -0.54202392681803
  C   -0.84905687993396      0.52174548828692     -0.08908141903793
  F   0.86264052012615      0.54624309128823     -1.65832564732100
  H   -1.61082398250941      0.21854709728123     -0.80941000936077
  N   1.52924106501126      0.13130519549619      0.51809731029789
  O   2.06001176445695      1.23726082972584      0.49093753104022
  O   1.72846375484975     -0.75652393741193      1.34112193080099
  C   0.40358303014620     -1.61272501735688     -0.85123898907364
  H   -0.32059621097102     -1.76113659620526     -1.65394101435843
  H   1.38227509895712     -1.95805236731136     -1.18741167755131
  H   0.09936030106778     -2.19036166606258      0.01718396843909
  N   -0.85220888262937      1.93622414887464      0.05615065620189
  H   -0.07013026588913      2.25911352872808      0.61143387089561
  H   -0.81661151573297      2.37602232548966     -0.85331343580651
  N   -1.25157070965858     -0.10884870864596      1.21834148908591
  O   -0.83480604892907      0.43489053896607      2.23541495661747
  O   -1.93455895230293     -1.12835908163148      1.15806440594854
