17
Coordinates from ORCA-job run
  C   0.47672533647673     -0.15375267287396     -0.58246689754046
  C   -0.55610411551676      0.83185825588529      0.00446312609218
  F   0.50008353655140      0.00602939871442     -1.93724963008476
  H   -0.44245857027786      1.76788436691563     -0.54333639930081
  N   1.80478742729740      0.38831039242559     -0.06538336335130
  O   2.33669173857604     -0.21061324944240      0.86430146924151
  O   2.19476511522870      1.42920889170737     -0.58297571200154
  C   0.32031376615822     -1.60897808841323     -0.24568561518976
  H   0.22259526292223     -1.77278004058173      0.82521634070210
  H   1.19370229584420     -2.15471432526232     -0.60355490212519
  H   -0.56759853669334     -1.99096935836466     -0.74875418064513
  N   -0.52012198987518      1.06156393918367      1.40499778379291
  H   -0.42998389765797      0.21996427629268      1.95476447568947
  H   0.17645296540409      1.74412965112197      1.66325348994751
  N   -1.91327335303528      0.29202758687207     -0.37269495144847
  O   -2.38649710589675      0.66465830879462     -1.44174845776736
  O   -2.41207987550586     -0.51282733297502      0.40885342398909
