17
Coordinates from ORCA-job run
  C   0.63424882639887     -0.02743201758593     -0.14838266427439
  C   -0.85286729612788      0.22064714375793      0.13930341130000
  F   1.27356457018121      1.15216093116015     -0.37652381007185
  H   -1.39724134970809     -0.72041437688183      0.09422871281718
  N   1.28104679286361     -0.68192866355539      1.05509695830037
  O   0.62879973338936     -1.60790494727696      1.53293940865199
  O   2.38272189684032     -0.29255806915956      1.40503314570242
  C   0.84308989925608     -0.94134732968988     -1.33135335846861
  H   0.41888572508882     -1.92633494393442     -1.13642146212504
  H   1.91419611371252     -1.03571553091822     -1.51867420051181
  H   0.37172309316215     -0.50368165168734     -2.21223171593021
  N   -1.43773136716699      1.19456139701958     -0.71657582824021
  H   -1.98558932099279      0.80535100595887     -1.46538361379408
  H   -0.78248014716699      1.89083570331738     -1.03815212560091
  N   -1.04071393987693      0.69273087425379      1.56845807727779
  O   -2.05440620628513      0.31186489927703      2.13954221763483
  O   -0.19524702356816      1.46816557594479      2.00809684733252
