17
Coordinates from ORCA-job run
  C   0.63349511958694     -0.15681845787353     -0.11778762009519
  C   -0.81679199422773      0.22459488545721      0.17936515436320
  F   1.37968239533095      0.98617498782128     -0.11798833868218
  H   -1.37172230042054     -0.66734048646102      0.47111966426774
  N   1.16049627211080     -1.05189288922336      0.99691562472251
  O   2.17443506704191     -0.70345146348637      1.57934503455265
  O   0.52462812671436     -2.08681012069800      1.16182503410225
  C   0.82017627861618     -0.89685973702416     -1.41614640624488
  H   0.52601781128914     -0.25159895279756     -2.24105092976632
  H   1.87303874739363     -1.16863855107344     -1.51604670662567
  H   0.20841169120643     -1.79771330566624     -1.42938300466123
  N   -1.40297863522722      0.86862467527564     -0.93406423831123
  H   -0.96925859999874      1.77063979797721     -1.09009136064420
  H   -2.39271048577381      1.01506559572344     -0.78923905022239
  N   -0.79024986761317      1.10088950138807      1.45028514252411
  O   -0.41756100942440      0.54623311141661      2.47823937884461
  O   -1.13910861660473      2.26990140924423      1.33670262187620
