17
Coordinates from ORCA-job run
  C   0.59474753942974     -0.21242244974484     -0.46628736162060
  C   -0.74568894995892      0.52825796844748     -0.23689803338943
  F   1.33015537467456      0.50280765295128     -1.37261089424667
  H   -1.50439829255380      0.05970224402247     -0.87057151201226
  N   1.42453496346013     -0.11938619960749      0.81528832336441
  O   2.08491392745825     -1.09031167948917      1.15797920548001
  O   1.40749723296553      0.98036249753350      1.36658107406508
  C   0.47728148717212     -1.62934230449952     -0.94502622290112
  H   -0.06897262538644     -2.23737687238395     -0.22868127990044
  H   1.47249978212216     -2.04528425247118     -1.09246512770357
  H   -0.04894197379674     -1.61701554647056     -1.90163657552803
  N   -0.67928360029636      1.90546360462233     -0.50265085012809
  H   -1.58279647652612      2.34185110795115     -0.38524778856207
  H   -0.00005921600616      2.35732672377163      0.09453826459463
  N   -1.24959993456769      0.18076393110105      1.19109622467835
  O   -1.11342361094793     -0.98267585072472      1.56047556865486
  O   -1.79746562724233      1.07727942499055      1.81711698515489
