17
Coordinates from ORCA-job run
  C   0.62793134264964     -0.19838917719269     -0.07995169421156
  C   -0.80964777080770      0.27713447949593      0.13067480321655
  F   1.44988722206815      0.88791607944608      0.00672202245941
  H   -1.44373805701985     -0.58090977647075      0.35494994066281
  N   1.01238120263874     -1.15827304742702      1.03922676185763
  O   2.00276794374193     -0.89704017319855      1.70222575261174
  O   0.29798652868023     -2.15054072636291      1.12595707497164
  C   0.85261149129443     -0.91433426682010     -1.38565282052742
  H   1.88786849818071     -1.25965488862786     -1.42238709890831
  H   0.18078492852963     -1.76727722099723     -1.46991784440576
  H   0.66397472213976     -0.22682065393887     -2.20728656296722
  N   -1.27042162106272      0.99161203496020     -0.99880950886579
  H   -2.25534384561441      1.20420811336247     -0.91651538196481
  H   -0.76556537219321      1.86450061663360     -1.09521576553278
  N   -0.81185200201363      1.11374656802426      1.42795671782506
  O   -0.55731514586589      0.50460720514128      2.46104727422407
  O   -1.06431006534584      2.30851483397216      1.32797632955473
