17
Coordinates from ORCA-job run
  C   0.52855954962489     -0.18156887230376     -0.52387097510297
  C   -0.76166587634773      0.54897832806366     -0.12844449805825
  F   0.93926872213231      0.44384346011710     -1.67359872657325
  H   -1.48165921499810      0.37695609929365     -0.94103568933493
  N   1.56086348223809      0.12954531465290      0.54639435835910
  O   2.55160206547616      0.76846988365957      0.23211363040964
  O   1.27976229453400     -0.31815931721870      1.65223829338596
  C   0.49405511872797     -1.66641016014967     -0.75473829766268
  H   1.46849767599627     -1.96218050663928     -1.14979237998682
  H   -0.27592560628580     -1.90633136996855     -1.48813331911750
  H   0.28920314496896     -2.20384502978005      0.16628042299880
  N   -0.43025793998295      1.90648522945712      0.17132878675400
  H   -0.04984918796758      2.35780519702571     -0.65039263963372
  H   -1.23369672330684      2.42007598343759      0.50608019026091
  N   -1.43760222748050     -0.08362019162311      1.06941284227011
  O   -1.60041343226320      0.59955441050333      2.07031415279566
  O   -1.84074184506594     -1.22959845852753      0.89684384823600
