17
Coordinates from ORCA-job run
  C   0.55709789836119     -0.16165888742052     -0.59209470576215
  C   -0.73044729628101      0.60362747693056     -0.23227522087353
  F   0.93420091828442      0.30041942686177     -1.81564731068580
  H   -1.34770286548602      0.56691958218661     -1.13172457535575
  N   1.63443071587908      0.25885109369734      0.39155531004753
  O   1.31152677649887      0.13534736744689      1.57150157360323
  O   2.70869177699518      0.63701141133551     -0.04428450253853
  C   0.52671961576179     -1.66742996392106     -0.61637514084011
  H   1.50268539421078     -2.00964912242294     -0.96690839742387
  H   -0.24320380950739     -2.00853476720110     -1.30683423470119
  H   0.32759112619384     -2.07942265724032      0.37063576342298
  N   -0.45028166442959      1.93958725944328      0.13099542161164
  H   -1.26000940064640      2.53229127066708      0.01547363818289
  H   -0.13520776585819      1.99529038373060      1.09184645525925
  N   -1.56616451447351     -0.16446177970609      0.80368961317653
  O   -2.09994700569587     -1.19622315469056      0.40390850198260
  O   -1.66997989980717      0.31803506030302      1.92453781089430
