17
Coordinates from ORCA-job run
  C   0.51272915960415     -0.14716834766082     -0.50569676242634
  C   -0.83607568054723      0.52810888654696     -0.15135928311916
  F   0.98789045296140      0.54188972918981     -1.58861750746784
  H   -1.54403532598148      0.23183670941547     -0.92738720683034
  N   1.48804755736043      0.11838105732236      0.63040813794291
  O   1.62309500114842     -0.77422276229020      1.46124801106562
  O   2.02362730359120      1.22227152232181      0.64770126566332
  C   0.45241034397226     -1.61442617412683     -0.82214340815205
  H   1.45085120551696     -1.96944981953320     -1.08117350680319
  H   -0.20816550801521     -1.75459857494879     -1.67937196881114
  H   0.07564568837330     -2.19040413754796      0.01857265822512
  N   -0.84020940032955      1.94295020828643     -0.00419837340393
  H   -0.10078607477552      2.25773040895816      0.61114893479208
  H   -0.72669775753912      2.38228428669909     -0.90764426950313
  N   -1.33963167595282     -0.10016721312618      1.12139342958587
  O   -2.02948237601104     -1.11066136587596      1.00982597303029
  O   -0.99021291337618      0.43664558636988      2.16729387621193
