17
Coordinates from ORCA-job run
  C   0.62845398931852     -0.17859354276274     -0.11386904243916
  C   -0.81024483987242      0.25332611839316      0.17099400821733
  F   1.40463900993167      0.94326817212075     -0.16227032628956
  H   -1.38833035788422     -0.61155268188722      0.49707809215001
  N   1.13423707163881     -1.04032539603448      1.03642808242938
  O   0.47655944687457     -2.05462123711881      1.23930774950985
  O   2.15276391517807     -0.68955978385167      1.60952800003008
  C   0.79114082023011     -0.97544936273358     -1.38129483377309
  H   0.51239216587389     -0.35583146763805     -2.23084451441726
  H   0.15508956127979     -1.85906280889504     -1.35699284045409
  H   1.83581790817891     -1.27997350949759     -1.47222653630929
  N   -1.38067031125687      0.87099008151936     -0.96532334753122
  H   -0.92366966059559      1.75507920996731     -1.15412312415412
  H   -2.36625080916184      1.04793843669235     -0.82622878629953
  N   -0.75547006582391      1.17589555356514      1.40734087888171
  O   -1.05039469861586      2.35400557609776      1.24538973639000
  O   -0.41506314529361      0.64546664206332      2.45910680405894
