17
Coordinates from ORCA-job run
  C   0.63944572717732     -0.15638139750739     -0.08346040462480
  C   -0.82522406431242      0.22390639373138      0.13375757628836
  F   1.38276709078262      0.98812787622571     -0.05153030948453
  H   -1.39328172079882     -0.66762437195743      0.40032270836982
  N   1.10766175802929     -1.04256492190766      1.06415627145411
  O   0.46716150643804     -2.07891654711791      1.20011710118131
  O   2.08608733154648     -0.68647243518179      1.70015832685345
  C   0.89613552076047     -0.90423431537139     -1.36512148451633
  H   0.64791604925877     -0.26329460695229     -2.20829468285846
  H   0.28536981545712     -1.80489357385505     -1.40653977956763
  H   1.95264797182960     -1.17712099525241     -1.40606724707639
  N   -1.35195100165421      0.86059918072555     -1.01310995797701
  H   -0.91373349956256      1.76362478992273     -1.14937657360970
  H   -2.34872789575577      1.00347256760615     -0.92375098887408
  N   -0.86831436728261      1.10711813493300      1.39935402145694
  O   -0.55465094913422      0.55770033696803      2.44954124696963
  O   -1.20830927277905      2.27595388499075      1.25984417601526
