17
Coordinates from ORCA-job run
  C   0.62628962897099     -0.01253358520284     -0.48206235851881
  C   -0.42515516122720      0.79326624290112      0.28198117579563
  F   0.84726750374077      0.59445328482374     -1.68665316539619
  H   -0.09507719172116      1.83112828394623      0.30821716312829
  N   1.91357336995232      0.19013996678344      0.32194304387509
  O   2.46046491744296     -0.79756038236059      0.79616960951098
  O   2.29368684846141      1.35188915772521      0.41371883293523
  C   0.34299068032119     -1.47130272359188     -0.68707298566375
  H   1.18484776928352     -1.92466747054082     -1.20952868201390
  H   -0.55647810444516     -1.57995917293027     -1.29275349424036
  H   0.21408711230343     -1.98616307949289      0.26270041708693
  N   -0.60905058530548      0.26339715480261      1.58180277428124
  H   -1.15673981622766     -0.58762360737330      1.55504248080160
  H   -1.06197570833424      0.92908967180470      2.19270012642584
  N   -1.68881371554304      0.80531886132422     -0.57692044111568
  O   -2.47728921130796     -0.12346073731383     -0.40417319922318
  O   -1.81362833636468      1.72758813469517     -1.37511129766894
