17
Coordinates from ORCA-job run
  C   0.38200326381640     -0.18926338940273     -0.64041495588317
  C   -0.66376705907238      0.75035964236650     -0.00203188313572
  F   0.14264666393510     -0.25013396715524     -1.98207396589250
  H   -0.79519033740181      1.58553443770541     -0.69071915830662
  N   1.68686633296455      0.58144415939518     -0.47418142202436
  O   2.45797986408098      0.20618344633819      0.40364919109297
  O   1.82096606491066      1.56579157030120     -1.19304218376303
  C   0.50044395648174     -1.57858257406448     -0.08227420029807
  H   -0.39530653561747     -2.13869914596504     -0.34992679693265
  H   1.36988064935274     -2.06863794644522     -0.52090255584907
  H   0.61004814417825     -1.57710282729046      0.99998619454587
  N   -0.40781491786276      1.21992072047484      1.31365992713145
  H   -0.09573896678261      0.50024341117427      1.94900483128155
  H   0.21980907417628      2.01001215022431      1.32043682752393
  N   -1.96761348237544     -0.00753746849553     -0.01034847393115
  O   -2.19165317669671     -0.71198389822188      0.96979753187487
  O   -2.67255953808755      0.10445167906066     -1.00861890743432
