17
Coordinates from ORCA-job run
  C   0.56569220627656     -0.15906432350839     -0.58483817929762
  C   -0.73361711451421      0.59459684706342     -0.24456269482811
  F   0.95250191652548      0.29972338824093     -1.80655023079807
  H   -1.33967360652250      0.54864712282157     -1.15119896112918
  N   1.62707141118124      0.27902283537774      0.40882607759998
  O   2.70057148211028      0.67067174845249     -0.01687074055221
  O   1.29321284001509      0.15528518775091      1.58566614023428
  C   0.55145521028724     -1.66520636152961     -0.59983237035566
  H   1.53536867687956     -1.99931213309861     -0.93570108736090
  H   0.34416413449864     -2.07278033725437      0.38728908669384
  H   -0.20567581408149     -2.01874497845484     -1.29814898893958
  N   -0.47161747700046      1.93489813631646      0.11640465451060
  H   -1.28668585076190      2.51797060617416     -0.01013655851458
  H   -0.16738741833756      1.99803567471327      1.08029586471324
  N   -1.57472075795321     -0.17751993626045      0.78409759167954
  O   -2.09380291598040     -1.21602504614546      0.38263343470195
  O   -1.69685692262233      0.30880156934076      1.90162696164250
