17
Coordinates from ORCA-job run
  C   0.51529053875676     -0.32967007692031     -0.50026483827658
  C   -0.53688450711935      0.74375152925692     -0.21888327323174
  F   0.37067583310604     -0.75010156805393     -1.79300576406348
  H   -0.45232437545532      1.50381371388756     -0.99477262985893
  N   1.84568921597363      0.42750013944449     -0.46116505272705
  O   1.96106321645728      1.32245834360476     -1.29083118655982
  O   2.67954142813542      0.08831552467024      0.36896951126730
  C   0.54068571954795     -1.51139756150155      0.42332044826092
  H   1.35582755075276     -2.17201156313279      0.12950185362679
  H   -0.40409788502817     -2.04874585956341      0.34372765838644
  H   0.70581214679680     -1.20402382665915      1.45388092694627
  N   -0.35798709452908      1.28690901903416      1.07623997339226
  H   -0.83261610262016      2.17379746957241      1.17477729241241
  H   -0.69456947554641      0.65050504602378      1.78808674296423
  N   -1.90339929617421      0.09954627039604     -0.44762075429107
  O   -2.41433523106076     -0.45897588837380      0.52258497440911
  O   -2.37737168199318      0.17832928831456     -1.57554588265707
