17
Coordinates from ORCA-job run
  C   0.61309224353036     -0.08717315293667     -0.06131240050000
  C   -0.87117327730690      0.22494148040846      0.19870448134361
  F   1.31641582088707      1.07831332400909     -0.01233585913736
  H   -1.40030684993561     -0.71072253359442      0.37819146507875
  N   1.12520353193329     -0.98597843612543      1.05501098092800
  O   0.59892955641821     -2.09336644326261      1.09499528986032
  O   2.00000354084366     -0.55274854018437      1.78857074493259
  C   0.86709861489942     -0.78104052596810     -1.37437024883675
  H   0.59810852246477     -0.11186167926649     -2.19140097371951
  H   0.29302991224050     -1.70410277761386     -1.44229378161082
  H   1.93038756294384     -1.01471699860115     -1.45390307917569
  N   -1.52660508545209      0.99840729231003     -0.79649828903178
  H   -0.98812957937165      1.80416593526351     -1.08214457764584
  H   -1.81647818314612      0.44328285571668     -1.58725127405547
  N   -0.91738538673579      0.98602331628424      1.51061774787039
  O   -0.85599246064149      0.30167284758018      2.52891406269920
  O   -0.96619848357151      2.20690403598088      1.44850571100036
