17
Coordinates from ORCA-job run
  C   0.45005880371692     -0.01023709589943     -0.62405852615742
  C   -0.60001091957668      0.77977980341050      0.18675253376915
  F   0.39006409959610      0.40330655512327     -1.92250596232577
  H   -0.57412899179512      1.80509827672037     -0.18365285733495
  N   1.77388517073007      0.50654870938443     -0.07177693493339
  O   2.38672298676615     -0.22213403402625      0.70247850907385
  O   2.07837413676396      1.64923040346744     -0.39608533687970
  C   0.38928084543436     -1.50982275070740     -0.56532193148720
  H   -0.50063357096174     -1.84325222708710     -1.09879150984953
  H   1.27183118275776     -1.92398086021189     -1.05326810085399
  H   0.35096868137216     -1.87848018753063      0.45737193915729
  N   -0.49112966712256      0.75440437690529      1.60242713586002
  H   -0.31934596510085     -0.16538952237133      1.98111967791371
  H   0.18406199539274      1.42183967326618      1.94415507176647
  N   -1.94339666128176      0.22451556263430     -0.21520795521707
  O   -2.49691752988666      0.74363088072497     -1.17961311396321
  O   -2.34968459680483     -0.73505756380272      0.43397736146177
