17
Coordinates from ORCA-job run
  C   0.77479049643422     -0.09876342891119     -0.12604419141704
  C   -0.37803033232934      0.80552149110162      0.31268031733084
  F   1.67794197292532      0.65588353632546     -0.82123401215361
  H   0.05071148031917      1.66389322384859      0.82862593026087
  N   1.47533303078061     -0.47650495001684      1.18160220687435
  O   1.53540828759927     -1.66172354392955      1.48354368158746
  O   1.93046809780209      0.46529536195625      1.82065756515973
  C   0.41203526719736     -1.32117234271624     -0.91622949540238
  H   -0.27203718171324     -1.96116825394516     -0.36286506616955
  H   -0.04513910339481     -1.01623617940678     -1.85738534902161
  H   1.31818693289053     -1.88906339177843     -1.12491082816136
  N   -1.28373764345643      0.09240276122729      1.13468013873641
  H   -1.86775449249279     -0.52453463509074      0.58398296998420
  H   -1.87320854292237      0.71867350338213      1.66555156592720
  N   -1.00130495533907      1.38112508652833     -0.95789804711279
  O   -1.90458400204951      0.72207477585558     -1.47163388969300
  O   -0.54807931225103      2.44229698556971     -1.37212349672974
