17
Coordinates from ORCA-job run
  C   0.40320027500894     -0.30811228042912     -0.57621678696821
  C   -0.69186463033938      0.70183207486320     -0.17246669780430
  F   0.19335531280746     -0.67206865248186     -1.87419698068422
  H   -0.83529302613955      1.36593369139802     -1.02533961439434
  N   1.67257131927579      0.53674834810340     -0.56942857614037
  O   1.78303509942025      1.34251317520255     -1.48711649576826
  O   2.43920663290286      0.39866534617311      0.37889577369208
  C   0.56768872547856     -1.53511389190328      0.27413013637141
  H   -0.30180041027122     -2.17677264091513      0.13383184303148
  H   1.46093539145362     -2.07303442168991     -0.04437281506194
  H   0.66524690061040     -1.29222580159145      1.32990987835425
  N   -0.48712045221431      1.44876203116739      1.01772123529714
  H   0.09694594063037      2.25695149795358      0.86374397570569
  H   -0.15026537646945      0.89724726360795      1.79306941660530
  N   -1.96862888838329     -0.09168823590858     -0.04472218615986
  O   -2.18771937690565     -0.59240520040579      1.05460420769311
  O   -2.65849343686539     -0.20723230314405     -1.05304631376897
