17
Coordinates from ORCA-job run
  C   0.62491024141906     -0.20341005770499     -0.08938906980900
  C   -0.80503440309101      0.28476238408381      0.14240859583052
  F   1.45325913615012      0.88085836145076     -0.05002301751779
  H   -1.43772613767537     -0.56389007559308      0.40341370979226
  N   1.03201406622710     -1.13682970720383      1.04402485259092
  O   2.04084469293238     -0.86534740985024      1.67427942835712
  O   0.31417514098956     -2.12177872613121      1.17450108234843
  C   0.81577210291180     -0.95388442253520     -1.38111127843098
  H   0.61255463100502     -0.28675746416639     -2.21598120959664
  H   1.84808748449005     -1.30616437190472     -1.43231940495905
  H   0.13761834366096     -1.80466426234040     -1.42824682844330
  N   -1.28856341944493      0.97266379567044     -0.99384094852287
  H   -0.78177716197361      1.83985692688668     -1.12495246389878
  H   -2.27035072973249      1.19242199373299     -0.89504683356538
  N   -0.77316400034186      1.15419321985019      1.41775477779429
  O   -1.03012556354398      2.34580702085059      1.29490588666439
  O   -0.49049442398279      0.57116279490456      2.45862272136586
