17
Coordinates from ORCA-job run
  C   0.58286279917844     -0.16319955547095     -0.53852133522469
  C   -0.75724695371073      0.55055529544951     -0.27476312740829
  F   1.17577208810653      0.45766427964613     -1.59139269062699
  H   -1.46587158001069      0.22886060894874     -1.04082717133536
  N   1.48080337883816      0.09749835827742      0.67421784708185
  O   2.08888453783219      1.16228338054285      0.69010575364278
  O   1.48943033015487     -0.76428386865587      1.54667959013817
  C   0.49790746172249     -1.64016259126926     -0.81057320585981
  H   1.50387957301661     -2.02033540863935     -0.99345341269066
  H   0.05198465586298     -2.18394577054061      0.01617063702404
  H   -0.10421989279421     -1.78749787392416     -1.70848242147584
  N   -0.62757804195750      1.94915559941416     -0.25905630528406
  H   -1.51716439841759      2.41202480936765     -0.13972440270578
  H   0.03662693455682      2.27932615161546      0.42700914840421
  N   -1.33721947491715     -0.05133701356415      1.02523633889410
  O   -1.96808176463777     -1.09939183680766      0.91668727062619
  O   -1.13176965282345      0.57378543561004      2.06068748680015
