17
Coordinates from ORCA-job run
  C   0.58864043799439     -0.17960483031733     -0.49788525804925
  C   -0.48483324521243      0.80854842141943     -0.03865559328408
  F   0.66003236052502     -0.13953987264687     -1.86224982500345
  H   -0.26747441465982      1.77214087566130     -0.49824904602795
  N   1.90028872903233      0.43224332540469      0.00074432233014
  O   2.16521355755333      1.53935547520748     -0.45370497739546
  O   2.57504551322950     -0.21407933491853      0.79221576677736
  C   0.44435678578958     -1.59885574175971     -0.03389228091461
  H   1.29420860517618     -2.17733619252708     -0.39483982694388
  H   -0.47493575620958     -2.01748750509790     -0.44304532315919
  H   0.42694833407706     -1.66058953688778      1.05226357487313
  N   -0.51352535475523      0.89063865187901      1.37412943783476
  H   -0.96667719458737      0.08047533696357      1.77800567221757
  H   -0.98889992797875      1.72573978909661      1.68729969152194
  N   -1.80213425260730      0.35984094385943     -0.66973819796365
  O   -2.08089702475197      0.82179897209343     -1.77065024111014
  O   -2.47335715261495     -0.44328877742974     -0.02274789570322
