17
Coordinates from ORCA-job run
  C   0.51581967874801     -0.14178666319272     -0.50458322729693
  C   -0.84151647025367      0.51921286541728     -0.15532892605813
  F   0.98536446531275      0.55235966987219     -1.58702565391078
  H   -1.54106610511709      0.21909388203823     -0.93758220696002
  N   1.48356317504230      0.13651069744173      0.63465163202587
  O   1.61548519223075     -0.74972657994724      1.47298984954119
  O   2.01545736380007      1.24214823723765      0.64755307260407
  C   0.47592189664599     -1.60981093309843     -0.82027958780641
  H   -0.17738435187372     -1.75883297139302     -1.68159332147365
  H   0.10140230324990     -2.19040073718436      0.01822002024169
  H   1.48058513981460     -1.95169583749186     -1.07296281125409
  N   -0.85998780804998      1.93353151147746     -0.00522197546728
  H   -0.73357294198596      2.37617650123742     -0.90531115171614
  H   -0.13613875084457      2.25407467279151      0.62535457476603
  N   -1.34693123733607     -0.11660339895180      1.11240251880440
  O   -1.01604233609678      0.42530889351414      2.16171051028018
  O   -2.01995921328654     -1.13755980976822      0.99400668368006
