17
Coordinates from ORCA-job run
  C   0.60943778292134     -0.12297154255646     -0.03567147042844
  C   -0.86431346273031      0.27400595356507      0.16245763834864
  F   1.37800132715620      0.99664379917963      0.06928806059617
  H   -1.45626238020588     -0.63137832508212      0.29511200351298
  N   1.01397862229652     -1.07104857321205      1.08426035379698
  O   0.42275361227706     -2.14578126139760      1.07649586486145
  O   1.87504984229398     -0.70281983330359      1.86785884103191
  C   0.88266778882408     -0.80724415303157     -1.34987416355263
  H   0.68733234217558     -0.11013613275407     -2.16450842464273
  H   1.93400551299478     -1.09840692112181     -1.38781578239192
  H   0.26227601957056     -1.69546958710250     -1.46074405631249
  N   -1.42367767675410      1.10586474104412     -0.84371862328973
  H   -0.82449439840097      1.88179813716437     -1.08783981778026
  H   -1.71259845891662      0.58561644342076     -1.65810312747341
  N   -0.92748485686894      1.00950331396813      1.48823842193448
  O   -0.95825141871507      0.30181705298743      2.49193655527357
  O   -0.89742019791818      2.23200688823233      1.45262772651541
