17
Coordinates from ORCA-job run
  C   0.53076532123914     -0.17846212577931     -0.52475429639307
  C   -0.76308508548416      0.54590506273524     -0.13079017167862
  F   0.93775932821439      0.44968004900936     -1.67436619928684
  H   -1.47942227592894      0.37243276005595     -0.94630035874681
  N   1.56026305304467      0.13704358226945      0.54620375225910
  O   1.27373401065084     -0.30273418123660      1.65393951895997
  O   2.55817243837077      0.76300551654687      0.22935569046915
  C   0.50386901770478     -1.66339688329320     -0.75583401481370
  H   1.48057581656625     -1.95407941128246     -1.14905022911713
  H   -0.26313465806375     -1.90680477981324     -1.49129560134599
  H   0.29977361125212     -2.20229131100397      0.16473205910848
  N   -0.43780982984984      1.90618039289520      0.16841318475510
  H   -1.23252466763155      2.40218836674903      0.54742749011189
  H   -0.10318140737737      2.37204832075303     -0.66477298409430
  N   -1.43702393390461     -0.08978989522915      1.06433766365381
  O   -1.81632411082860     -1.24466002653874      0.89820893016590
  O   -1.61240662797409      0.59473456316257      2.06254556599305
