17
Coordinates from ORCA-job run
  C   0.40765227753937     -0.22995136558537     -0.61087411508099
  C   -0.71768651807393      0.69255834061943     -0.09391336319110
  F   0.20005211361858     -0.45830001673652     -1.93977281668166
  H   -0.89691949027536      1.43392068480786     -0.87319622701550
  N   1.64777645928544      0.65187065060937     -0.51833907322061
  O   2.43146265235497      0.43325530892234      0.40034186237279
  O   1.71814432189592      1.56104721407165     -1.33826525187454
  C   0.61807913711300     -1.53515435985518      0.10167271770472
  H   1.52777547686951     -2.00517076066378     -0.27259724644071
  H   -0.22988224305626     -2.18705190313568     -0.10723423997138
  H   0.71095592667891     -1.40393995864362      1.17752239308451
  N   -0.52253746054350      1.32330646418889      1.16325090220772
  H   0.04394482410247      2.15491911911353      1.08899892692433
  H   -0.17296540213451      0.70461798352619      1.88007278481728
  N   -1.96128504533765     -0.15811970854500     -0.03191692038057
  O   -2.15221635889549     -0.76376432016369      1.01879799214892
  O   -2.65235067114150     -0.21204337253044     -1.04454832540324
