15

C	0.0	0.0	0.0
C	-0.643856	0.027835	-1.378063
Br	1.950095	0.0	0.0
H	-1.705627	0.21083	-1.085643
H	-0.313394	0.89009	0.550496
C	-0.390983	-1.182872	0.769435
N	-0.570094	-2.161638	1.394868
N	-0.490712	-1.275112	-2.031609
H	-1.217279	-1.873096	-1.640109
H	-0.733406	-1.157203	-3.01016
C	-0.111196	1.145063	-2.249279
H	0.904665	0.932386	-2.59608
H	-0.762184	1.266069	-3.121639
H	-0.105558	2.094962	-1.707106
H	-3.151206	0.0	0.0
