15

C	0.0	0.0	0.0
C	-0.528656	-0.030917	-1.431275
Br	1.961094	0.0	0.0
H	-1.616361	-0.138168	-1.231966
H	-0.341378	0.89576	0.520279
C	-0.382963	-1.189096	0.763113
N	-0.54897	-2.173455	1.382898
N	-0.02659	-1.211191	-2.122132
H	0.860215	-1.011133	-2.573634
H	-0.693413	-1.486366	-2.83237
C	-0.287301	1.291597	-2.145683
H	0.779373	1.531656	-2.218626
H	-0.694481	1.234021	-3.160291
H	-0.8017	2.104126	-1.624002
H	-3.002814	0.0	0.0
