15

C	0.0	0.0	0.0
C	-0.518936	0.204453	-1.453056
Br	1.95175	0.0	0.0
H	0.332244	0.595084	-2.020371
H	-0.304346	0.864761	0.588994
C	-0.412245	-1.232568	0.661885
N	-0.609918	-2.256442	1.204538
N	-1.530504	1.252147	-1.402706
H	-2.345508	0.857498	-0.860001
H	-1.8644	1.398789	-2.353125
C	-0.961985	-1.114093	-2.091963
H	-1.215476	-0.925945	-3.140803
H	-0.172642	-1.874627	-2.061685
H	-1.854803	-1.478198	-1.582272
H	-3.379148	0.0	0.0
