15

C	0.0	0.0	0.0
C	-0.501506	-0.039158	-1.443255
Br	1.960628	0.0	0.0
H	-1.589653	-0.142934	-1.260963
H	-0.349729	0.897694	0.509179
C	-0.394613	-1.183135	0.766875
N	-0.523292	-2.148129	1.425769
N	0.009731	-1.225013	-2.117842
H	0.898869	-1.028693	-2.564388
H	-0.649918	-1.509117	-2.830755
C	-0.24402	1.276492	-2.164148
H	0.825649	1.501337	-2.241932
H	-0.744868	2.100129	-1.646252
H	-0.654792	1.218446	-3.176949
H	-2.917089	0.0	0.0
