15

C	0.0	0.0	0.0
C	-0.575268	0.06431	-1.421129
F	1.370787	0.0	0.0
H	-1.699149	0.056798	-1.177364
N	-0.430698	1.207581	0.656491
H	-1.459394	1.133878	0.661737
H	-0.114808	1.167432	1.621367
N	-0.432718	-1.260641	0.544746
H	-1.46183	-1.188169	0.547547
H	-0.128294	-1.30273	1.513017
C	-0.224153	-1.098912	-2.225754
N	0.033618	-2.009722	-2.92188
C	-0.212641	1.292059	-2.118916
N	0.05856	2.256614	-2.733045
H	-2.901547	0.0	0.0
