15

C	0.0	0.0	0.0
C	-0.577856	-0.073165	-1.419122
F	1.37079	0.0	0.0
H	-1.702142	-0.063207	-1.171188
N	-0.431994	1.263845	0.537994
H	-1.460679	1.191595	0.543643
H	-0.125084	1.312245	1.504858
N	-0.429616	-1.203212	0.664934
H	-1.458419	-1.130098	0.671435
H	-0.111367	-1.157348	1.629248
C	-0.219671	-1.305324	-2.110768
N	0.047923	-2.274149	-2.719886
C	-0.228947	1.084801	-2.231566
N	0.026723	1.990982	-2.934297
H	-2.900416	0.0	0.0
