15

C	0.0	0.0	0.0
C	-0.578565	-0.008452	-1.420898
F	1.37104	0.0	0.0
H	-1.703333	-0.006798	-1.171941
N	-0.431873	1.238894	0.594562
H	-1.460481	1.165116	0.599534
H	-0.121193	1.245361	1.561799
N	-0.431175	-1.231914	0.609025
H	-0.122643	-1.224983	1.577233
H	-1.460169	-1.160263	0.61066
C	-0.228335	-1.20961	-2.167999
N	0.011554	-2.164629	-2.809287
C	-0.223716	1.184258	-2.179066
N	0.052832	2.115615	-2.839348
H	-2.898333	0.0	0.0
