15

C	0.0	0.0	0.0
C	-0.580802	-0.10855	-1.415723
F	1.371621	0.0	0.0
H	-1.705495	-0.091231	-1.163085
N	-0.430357	1.277477	0.506881
H	-0.119078	1.350976	1.471245
H	-1.458891	1.206293	0.517239
N	-0.429566	-1.185691	0.695852
H	-0.116047	-1.112318	1.659486
H	-1.458045	-1.114176	0.696839
C	-0.227985	-1.358332	-2.076729
N	0.021449	-2.350936	-2.654201
C	-0.2339	1.028688	-2.257691
N	0.017139	1.919215	-2.982036
H	-2.896443	0.0	0.0
