15

C	0.0	0.0	0.0
C	-0.265029	-0.159207	-1.536533
F	1.428016	0.0	0.0
H	0.418211	0.563717	-1.99527
N	-0.481594	1.281096	0.376045
H	-0.31031	1.358212	1.376093
H	-1.513586	1.15703	0.273197
N	-0.441822	-1.039221	0.855424
H	-0.141957	-1.944765	0.505971
H	-1.475381	-0.965749	0.787187
C	-1.602919	0.133197	-2.09564
N	-2.368006	0.399724	-2.954262
C	0.152026	-1.498375	-1.964239
N	0.492215	-2.571673	-2.297488
H	-2.771922	0.0	0.0
