15

C	0.0	0.0	0.0
C	-0.300088	0.231569	-1.510656
F	1.42804	0.0	0.0
H	0.319347	-0.508753	-2.029004
N	-0.42902	1.003975	0.909196
H	-1.461208	0.943672	0.845287
H	-0.125377	1.921087	0.594812
N	-0.469851	-1.297398	0.335821
H	-0.298576	-1.400228	1.333039
H	-1.501133	-1.18472	0.237357
C	0.177723	1.562197	-1.900366
N	0.566028	2.625099	-2.213999
C	-1.68538	0.049581	-2.019557
N	-2.441677	-0.086108	-2.92003
H	-2.74211	0.0	0.0
