14

C	0.0	0.0	0.0
C	-0.219147	-0.024994	-1.539394
Cl	1.765823	0.0	0.0
H	0.408461	-0.84967	-1.88689
H	-0.414898	0.84264	0.529908
H	0.293237	0.884396	-1.87678
N	-0.438306	-1.227774	0.720888
O	-0.607315	-1.121097	1.930574
O	-0.454151	-2.281885	0.090678
C	-1.538244	-0.121073	-2.291358
H	-2.093823	-1.007733	-2.009449
H	-1.261707	-0.167821	-3.355815
H	-2.181822	0.730325	-2.105472
F	-2.351746	0.0	0.0
