14

C	0.0	0.0	0.0
C	-0.433798	-0.21617	-1.438836
Cl	1.767405	0.0	0.0
H	-1.482068	-0.511135	-1.337184
H	-0.399402	0.899578	0.44745
H	0.192878	-0.994789	-1.881555
N	-0.431264	-1.118744	0.899328
O	-0.468069	-2.246676	0.419713
O	-0.597339	-0.841907	2.081395
C	-0.340793	1.087224	-2.218769
H	0.666886	1.517199	-2.21573
H	-0.632471	0.930538	-3.26186
H	-1.042209	1.799632	-1.778923
F	-2.522835	0.0	0.0
