14

C	0.0	0.0	0.0
C	-0.462531	-0.129995	-1.444106
Cl	1.758182	0.0	0.0
H	0.333393	-0.582736	-2.04599
H	-0.385354	0.871629	0.512064
H	-1.35467	-0.745873	-1.41817
N	-0.415436	-1.168516	0.85949
O	-0.438089	-0.968198	2.069606
O	-0.584047	-2.251514	0.317778
C	-0.862086	1.236946	-1.986548
H	-0.069743	1.984141	-1.867409
H	-1.10004	1.167549	-3.051807
H	-1.75709	1.512665	-1.429405
F	-2.49823	0.0	0.0
