14

C	0.0	0.0	0.0
C	-0.488826	0.140429	-1.432737
Cl	1.759172	0.0	0.0
H	-1.583375	0.211633	-1.278103
H	-0.370122	0.816472	0.607309
H	-0.087057	1.107455	-1.764214
N	-0.458109	-1.229019	0.733813
O	-0.535952	-2.282733	0.113452
O	-0.608094	-1.105229	1.944479
C	-0.096225	-0.945064	-2.430009
H	-0.685247	-1.844457	-2.262785
H	-0.300395	-0.585691	-3.443688
H	0.961676	-1.216171	-2.381082
F	-2.628518	0.0	0.0
