14

C	0.0	0.0	0.0
C	-0.541397	0.159151	-1.406942
Cl	1.75882	0.0	0.0
H	-0.082677	1.083669	-1.780603
H	-0.355482	0.81063	0.62565
H	-1.623526	0.302933	-1.190324
N	-0.434552	-1.233778	0.744286
O	-0.680436	-1.089241	1.935491
O	-0.403818	-2.309021	0.154426
C	-0.318624	-0.978943	-2.391374
H	-0.58963	-0.633893	-3.394957
H	0.714703	-1.338354	-2.423671
H	-0.966369	-1.815657	-2.137078
F	-2.699123	0.0	0.0
