16
Coordinates from ORCA-job run
  C   1.08676128727077     -0.14571362694381     -0.27530550734953
  C   -0.39438726145803      0.17893430698095     -0.31564385483898
  F   1.73531329405282      0.56323763240537     -1.28009065033398
  H   -0.72499715257678     -0.09381028829721     -1.32420088390725
  H   1.52682760155049      0.22419040599748      0.66622342147021
  N   1.34438013189132     -1.54038705653751     -0.54037627463627
  H   0.98780468296772     -2.10783042993422      0.21807733613032
  H   2.34732575910367     -1.68133026922181     -0.58287609334514
  C   -0.61370649326915      1.67258084064345     -0.09393242172945
  H   -0.30934652707771      1.96479574839901      0.91636865823678
  H   -1.67020274392666      1.92632637990917     -0.20983396017627
  H   -0.04015424768742      2.26423950661199     -0.80824836652881
  C   -1.16436710698211     -0.65135691681135      0.70870186070204
  H   -1.16014732099765     -1.71443017429750      0.45928529355200
  H   -0.74375778428995     -0.52488639585558      1.71252332480378
  H   -2.20834611857134     -0.33255966304844      0.75032811795056
