16
Coordinates from ORCA-job run
  C   0.99551386864776     -0.23205650456756     -0.50743675229116
  C   -0.15029537891046      0.34331945477095      0.31241694369061
  F   0.49996228756843     -0.66696408582714     -1.73789172665263
  H   0.28684626158814      0.68838015661663      1.26035142425851
  H   1.70810490740175      0.56418749903321     -0.76868466290228
  N   1.59592436067356     -1.36347604382946      0.13688111736682
  H   1.71571821695831     -1.19485739352373      1.12626473346410
  H   2.49488534854802     -1.58123586783348     -0.27209656360412
  C   -1.20979865133855     -0.71624342426727      0.60516160464975
  H   -2.02096567583930     -0.28722910419140      1.19897056830819
  H   -1.62964250140987     -1.09016465257756     -0.33055750662218
  H   -0.79657396083352     -1.56832146909511      1.14539861541784
  C   -0.75443180213217      1.54778823871142     -0.40425937296035
  H   -1.18289589183980      1.24209831999012     -1.36072067758683
  H   -0.00261448799983      2.31779231004763     -0.59969700460268
  H   -1.54773690108246      1.99698256654275      0.19789926006641
