19

C	-0.58373	0.018931	-1.568003
C	0.187258	-0.035176	-0.238864
Br	-0.362292	-1.750948	-2.478545
H	1.25035	-0.194077	-0.477658
C	-2.072443	0.222776	-1.359022
H	-2.456767	-0.518705	-0.659369
H	-2.615747	0.164178	-2.305771
H	-2.222034	1.219099	-0.931563
C	0.013761	1.056849	-2.500198
H	-0.054164	2.025569	-2.002924
H	1.068448	0.842989	-2.687979
H	-0.517053	1.080348	-3.45598
N	-0.327001	-1.055246	0.670607
H	0.272739	-0.924074	1.49963
H	-0.106131	-1.974076	0.295421
N	0.107806	1.270234	0.400722
H	0.82649	1.186817	1.148735
H	-0.772473	1.265913	0.913388
H	1.781103	0.130875	2.315837
