19

C	-0.590986	-0.030386	-1.451068
C	0.041644	-0.221537	-0.059853
Br	-0.155924	-1.641283	-2.538466
H	1.090462	-0.510937	-0.218226
C	-2.103571	0.067729	-1.380565
H	-2.537958	-0.857583	-0.99881
H	-2.344033	0.89374	-0.705172
H	-2.525756	0.272326	-2.367946
C	0.02335	1.165524	-2.157342
H	-0.300302	2.071463	-1.640589
H	1.113277	1.141861	-2.096094
H	-0.298127	1.203056	-3.201771
N	-0.624121	-1.309669	0.655247
H	0.002444	-1.63379	1.383465
H	-1.434722	-0.912014	1.120787
N	-0.052961	1.059287	0.633545
H	0.049169	0.851081	1.625038
H	0.856778	1.563389	0.418846
H	2.426137	1.937529	0.206652
