19

C	-0.612046	0.000306	-1.554085
C	0.205362	0.05124	-0.248742
Br	-0.179445	1.623614	-2.61461
H	1.244701	0.293062	-0.513601
C	-0.214262	-1.190314	-2.413092
H	0.868186	-1.21503	-2.566819
H	-0.700339	-1.144559	-3.390493
H	-0.524477	-2.108806	-1.908446
C	-2.105376	0.013837	-1.286202
H	-2.327979	-0.821251	-0.616025
H	-2.672873	-0.096465	-2.214434
H	-2.396023	0.947594	-0.804458
N	0.095733	-1.249783	0.424968
H	0.578942	-1.065915	1.330692
H	0.699776	-1.916683	-0.051826
N	-0.252725	1.102147	0.637071
H	-1.095649	0.742939	1.080914
H	0.440393	1.086824	1.398739
H	1.613722	-0.148959	2.505184
