19

C	-0.589533	9.4e-05	-1.550003
C	0.203292	0.04692	-0.232152
Br	-0.236034	1.679038	-2.553388
H	1.252616	0.226944	-0.485459
C	-0.112088	-1.139605	-2.435335
H	-0.622434	-1.121641	-3.402427
H	-0.301359	-2.081992	-1.920612
H	0.96433	-1.061828	-2.603813
C	-2.091156	-0.062223	-1.322598
H	-2.627978	-0.09028	-2.274342
H	-2.331165	-0.974806	-0.766296
H	-2.434167	0.806239	-0.758357
N	0.172602	-1.278202	0.395157
H	-0.715446	-1.355028	0.888579
H	0.876764	-1.160791	1.154904
N	-0.196593	1.153118	0.629784
H	-1.06509	0.883351	1.086943
H	0.511115	1.109485	1.377439
H	1.888498	-0.130404	2.265292
