19

C	-0.596381	-0.000217	-1.544943
C	0.202592	-0.047051	-0.230788
Br	-0.244999	-1.677615	-2.551636
H	1.251043	-0.224786	-0.489276
C	-2.097035	0.05959	-1.310539
H	-2.335958	0.971478	-0.752638
H	-2.436085	-0.809738	-0.745229
H	-2.638272	0.087304	-2.259793
C	-0.124752	1.141089	-2.431334
H	0.950947	1.064899	-2.605065
H	-0.639669	1.123465	-3.396009
H	-0.312882	2.082639	-1.914676
N	-0.191015	-1.155003	0.631717
H	-1.057964	-0.887509	1.09316
H	0.520014	-1.110657	1.376158
N	0.17208	1.27728	0.398195
H	-0.713789	1.351476	0.895942
H	0.880054	1.160447	1.154529
H	1.898795	0.130433	2.258733
