19

C	-0.580814	0.00854	-1.568277
C	0.18862	-0.036347	-0.237957
Br	-0.367046	-1.771311	-2.461128
H	1.251129	-0.202468	-0.474239
C	-2.068703	0.221613	-1.362848
H	-2.21388	1.222968	-0.945727
H	-2.457249	-0.510789	-0.655988
H	-2.611429	0.155932	-2.309454
C	0.022693	1.034355	-2.509907
H	-0.041236	2.008273	-2.022326
H	-0.50688	1.050902	-3.466519
H	1.07661	0.813791	-2.694206
N	-0.331292	-1.044782	0.68111
H	-0.115019	-1.968377	0.315045
H	0.268664	-0.908578	1.509173
N	0.114794	1.27577	0.388722
H	-0.766265	1.280601	0.900051
H	0.83161	1.195818	1.13861
H	1.778181	0.143508	2.317457
