19

C	-0.269107	-0.071924	-1.489594
C	0.041811	-0.13	0.010697
Br	-2.269391	0.134746	-1.735817
H	1.124382	-0.322101	0.029835
C	0.394316	1.128996	-2.131255
H	-0.076568	2.062287	-1.823172
H	1.430501	1.175303	-1.762868
H	0.355698	1.0582	-3.222459
C	0.113536	-1.36748	-2.182298
H	1.200195	-1.47812	-2.093019
H	-0.363751	-2.217754	-1.698633
H	-0.14946	-1.339664	-3.242958
N	-0.630572	-1.276984	0.629756
H	-0.273585	-1.30067	1.58016
H	-1.612237	-1.027188	0.718868
N	-0.107149	1.111526	0.734699
H	0.813789	1.582028	0.647906
H	-0.836051	1.687937	0.328496
H	2.597508	1.483412	0.139959
