19

C	-0.580651	-0.045629	-1.616653
C	0.187822	0.061548	-0.289265
Br	-0.438916	1.719518	-2.5522
H	1.237351	0.26362	-0.529142
C	0.06244	-1.068677	-2.534864
H	1.106311	-0.810348	-2.727151
H	0.038554	-2.032274	-2.023747
H	-0.467486	-1.129715	-3.48948
C	-2.058647	-0.312975	-1.403449
H	-2.163241	-1.309047	-0.962244
H	-2.475483	0.420074	-0.71359
H	-2.604377	-0.291795	-2.350373
N	0.166559	-1.236953	0.36873
H	-0.712697	-1.26495	0.882266
H	0.881937	-1.111121	1.113947
N	-0.371946	1.070511	0.606398
H	0.234101	0.978794	1.435912
H	-0.19267	1.992785	0.217604
H	1.79407	0.000966	2.259274
