15

C	0.0	0.0	0.0
C	-0.348824	-0.268374	-1.490989
Cl	1.774542	0.0	0.0
H	-0.015787	0.642188	-2.00796
H	0.292741	-1.080121	-1.834967
N	-0.568615	1.137507	0.618135
H	-1.547461	0.940651	0.832938
H	-0.533993	1.916102	-0.028981
N	-0.388968	-1.228459	0.834652
O	-0.260199	-2.3158	0.280901
O	-0.753067	-1.049466	1.98878
N	-1.70016	-0.567244	-1.847053
H	-2.386159	0.080131	-1.46976
H	-1.975571	-1.470778	-1.484831
Br	-4.331137	0.0	0.0
