15

C	0.0	0.0	0.0
C	-0.416415	-0.028175	-1.461298
Cl	1.850723	0.0	0.0
H	-1.483184	-0.262608	-1.46219
H	0.150727	-0.811454	-1.969192
N	-0.534215	1.039456	0.682053
H	-0.327965	1.162248	1.646509
H	-0.793366	1.830789	0.111306
N	-0.315877	-1.313842	0.712224
O	-0.412336	-2.319148	0.018268
O	-0.402221	-1.263084	1.928826
N	-0.21213	1.313921	-2.00987
H	-0.873358	1.477929	-2.755352
H	0.72682	1.40912	-2.372952
Br	-3.686567	0.0	0.0
