15

C	0.0	0.0	0.0
C	-0.537209	0.205831	-1.404224
Cl	1.76825	0.0	0.0
H	-0.013359	-0.470105	-2.078914
H	-1.596809	-0.070285	-1.363462
N	-0.551703	0.909553	0.908403
H	-1.574736	0.83009	0.826741
H	-0.279627	0.672991	1.854801
N	-0.30795	-1.487429	0.409679
O	-0.466897	-1.695467	1.606943
O	-0.311363	-2.337331	-0.472006
N	-0.294894	1.589987	-1.813694
H	-0.757827	1.721934	-2.705815
H	-0.774399	2.188544	-1.150525
Br	-3.806486	0.0	0.0
