15

C	0.0	0.0	0.0
C	-0.54065	-0.121939	-1.41815
Cl	1.765273	0.0	0.0
H	-0.334222	0.854735	-1.862742
H	-1.626982	-0.225421	-1.312264
N	-0.536919	1.135024	0.629677
H	-0.305761	1.116716	1.616167
H	-1.557665	1.082905	0.52982
N	-0.335256	-1.296911	0.817669
O	-0.30215	-1.181696	2.037843
O	-0.574997	-2.334266	0.211229
N	0.098766	-1.150784	-2.232647
H	-0.320908	-2.040633	-1.999039
H	-0.119703	-0.952869	-3.201065
Br	-3.833461	0.0	0.0
