15

C	0.0	0.0	0.0
C	-0.515761	0.025282	-1.423469
Cl	1.846951	0.0	0.0
H	0.066352	-0.681522	-2.012948
H	-1.554299	-0.321121	-1.370334
N	-0.537307	0.994502	0.806638
H	-1.560931	0.938901	0.711464
H	-0.286978	0.8399	1.77563
N	-0.253348	-1.438783	0.576515
O	-0.241999	-2.380059	-0.206934
O	-0.398927	-1.517683	1.790798
N	-0.369469	1.367973	-1.982194
H	-0.62621	1.308629	-2.96169
H	-1.06857	1.957486	-1.540332
Br	-3.761283	0.0	0.0
