10
Coordinates from ORCA-job run
  C   -1.12740433692123     -0.24579128118925     -0.17667773751760
  C   0.26670586623309      0.07701454154580      0.38846216495310
  H   -1.83168852037334      0.53447261602116      0.11435469551888
  H   0.21326435338403      0.12598045611510      1.48210380553566
  H   -1.47066942366827     -1.20266950766401      0.21829454585038
  H   -1.09026068739067     -0.30327934662832     -1.26456618741884
  C   0.74285105069395      1.38185174917064     -0.08950899648405
  N   1.08449110334489      2.43770538908066     -0.47091664468112
  C   1.23446625329930     -0.97116889377608      0.03866849556994
  N   1.97824434139826     -1.83511572267573     -0.24021414132635
