10
Coordinates from ORCA-job run
  C   -1.12411502308254     -0.19723210757024     -0.24278433761058
  C   0.25051852799002      0.04285360856382      0.40515934773083
  H   -1.03815980404912     -0.18090713765053     -1.32926496213827
  H   0.14657414792755      0.02373255407090      1.49600596671405
  H   -1.51216814718729     -1.16773146234149      0.06863744784385
  H   -1.81879931967095      0.58288736095293      0.07077002995280
  C   0.78640732379689      1.35969317274626      0.03560228973681
  N   1.17608834988091      2.42564470696968     -0.26282637782186
  C   1.20291739090117     -1.01084733357751      0.03113792890041
  N   1.93173655349336     -1.87909336216381     -0.27243733330802
