10
Coordinates from ORCA-job run
  C   -1.11738393134950     -0.23083252071846     -0.24327826506233
  C   0.25132217185966      0.04112002658547      0.40487168317296
  H   -1.46132662130441     -1.22898899288984      0.02917393261220
  H   0.15378481224292     -0.01128371045398      1.49539467852124
  H   -1.04157579746529     -0.16527991698514     -1.32838124271374
  H   -1.84174539782897      0.50486255063177      0.10732660021658
  C   0.73679906389485      1.38582481139456      0.06792756318787
  N   1.08389250896899      2.47310579229125     -0.20510081523163
  C   1.23885173587837     -0.96778679435679     -0.00048869411500
  N   1.99738145510336     -1.80174124549883     -0.32644544058816
