10
Coordinates from ORCA-job run
  C   -1.13004953863248     -0.21685059029888     -0.19139625717101
  C   0.26858156360948      0.04553324478246      0.39384177204739
  H   -1.48636685516798     -1.19493432974733      0.13386239406388
  H   0.21610651459598      0.01784512859991      1.48828964925074
  H   -1.82359276342320      0.54995058351796      0.15577365368222
  H   -1.09351657209677     -0.19608368698073     -1.28061600768026
  C   0.76242751801823      1.37403649389720      0.00835162397832
  N   1.11728399930055      2.44949293608734     -0.29922161025711
  C   1.22077200323721     -0.98885845812409     -0.03121550558096
  N   1.94935413055898     -1.84113132173386     -0.37766971233322
