14
Coordinates from ORCA-job run
  C   0.00515291334824     -0.58070058005235     -0.04423034066771
  C   0.27511667624115      0.82172467769246     -0.55744694094004
  F   -0.43616256412154     -1.38405289897818     -1.06113490394980
  H   0.89329758411476      1.38399547221709      0.13974817724683
  H   0.73841650558645      0.76710745090267     -1.53796130143051
  N   -0.88103413091891     -0.62924063988246      1.01888480306561
  H   -0.82539860600186      0.15435044390826      1.65145630050507
  H   -0.87073646875645     -1.52016868132685      1.49526943499897
  N   1.39132597875317     -1.22246215100282      0.28121059154158
  O   2.35845216342349     -0.82792371438361     -0.36210545932125
  O   1.38698670618812     -2.11296755544998      1.12302355078217
  N   -1.02187414004516      1.54195043926089     -0.68889619131346
  O   -1.61008446946557      1.44582488264077     -1.76007425888590
  O   -1.40345814834590      2.16156285445411      0.30325653836843
