14
Coordinates from ORCA-job run
  C   -0.07039635396531     -0.56790721929950     -0.00625011417647
  C   -0.57390509986966      0.85174319581671      0.11183337101362
  F   -0.19006878568415     -0.97924218419838     -1.31003118428226
  H   -0.25429383632348      1.28735955419026      1.05603375927536
  H   -1.65952366394777      0.87547438642627      0.02699560513711
  N   -0.71860901092855     -1.40892686319464      0.91623114752876
  H   -1.71887786750204     -1.41913991802720      0.76452740625805
  H   -0.35719631028940     -2.35399761827499      0.85328087383239
  N   1.41755337993133     -0.66140472571077      0.34012885723314
  O   1.83882145493001      0.12461076767560      1.17609841331665
  O   2.03081274885957     -1.57387785598803     -0.19583838574998
  N   -0.04677102868520      1.71765705635401     -0.98398726149070
  O   -0.80165805039748      2.59289793195402     -1.39449051318512
  O   1.10411242387212      1.51475349227665     -1.35553197471054
