14
Coordinates from ORCA-job run
  C   0.03506167972276     -0.56920682141731     -0.00495947714710
  C   -0.71756577123610      0.73724756112606     -0.10406232578612
  F   0.41112662326707     -0.96613277820563     -1.26418134399125
  H   -0.78736037276274      1.20686196561685      0.87469682248552
  H   -1.70949543638096      0.57069220322175     -0.52186026624710
  N   -0.71664043580775     -1.53119633907067      0.69284174480886
  H   -1.59880118256594     -1.71436008120341      0.23258698558811
  H   -0.19530335386981     -2.39601087515711      0.78236117601383
  N   1.32801928264837     -0.40816985347098      0.79886937424743
  O   1.32098095263837      0.42450862700174      1.69360213233250
  O   2.22552600869954     -1.19135073845480      0.52114230798493
  N   -0.03158728165332      1.69855076320000     -1.01725037806194
  O   -0.75801956505162      2.41660797148246     -1.69630599579045
  O   1.19405885235211      1.72195839533104     -0.98748075643725
