14
Coordinates from ORCA-job run
  C   0.07482439872240     -0.75663357054209     -0.14452963989585
  C   -0.01697529402212      0.45798791678918     -1.04646735755207
  F   0.67265164761427     -1.75075947841820     -0.87453609203813
  H   0.92919970145282      0.61841070351903     -1.55412822153023
  H   -0.81745582116662      0.29530304716971     -1.76960287737196
  N   -1.13890666504585     -1.21904616840017      0.35494090954254
  H   -0.98945612442489     -1.98957080153995      0.99514538202710
  H   -1.63712845339729     -0.47033052449950      0.81768891076563
  N   1.13911272742027     -0.47857915544991      0.96067191122255
  O   1.99193251714525      0.36964074048169      0.72022654281786
  O   1.06368257659652     -1.17838973425696      1.96335852425948
  N   -0.33358570415056      1.71849190498546     -0.31493374471284
  O   -0.95443137735629      1.62532940198713      0.74370904484310
  O   0.01753587061210      2.76014571817458     -0.85054329237718
