14
Coordinates from ORCA-job run
  C   -0.06507310709685     -0.64031840727049     -0.11435475881628
  C   -0.59256401605677      0.77393346137798      0.08230318238089
  F   -0.20725499817066     -0.97255690283506     -1.41572107019748
  H   -1.67231893010434      0.78139922964027     -0.05895161787435
  H   -0.32182348178176      1.13649700688898      1.07356165320452
  N   -0.66776572435068     -1.64193276112953      0.69070625822176
  H   -0.48143211284869     -1.48980268421620      1.67267282217613
  H   -1.66199823785554     -1.70480821285745      0.51540282049749
  N   1.42092792444264     -0.68909688828373      0.23773711293011
  O   2.20547908465073     -1.05878917921333     -0.61510357372420
  O   1.66351603511121     -0.37581607860335      1.39951970437953
  N   -0.01887840488495      1.72387030537185     -0.91442362288552
  O   -0.80684172419414      2.40993675199952     -1.55683147340540
  O   1.20602769313979      1.74748435913054     -0.99551743688719
