8
Coordinates from ORCA-job run
  C   1.15692362076141     -0.40913933105307      0.13091807512858
  C   -0.10609826311871      0.03781907596855     -0.01179834623118
  H   1.98456394033284      0.28694878155561      0.19547498900283
  H   1.36254901251920     -1.47175008031547      0.18131625254430
  C   -1.21930352245123     -0.86688837044743     -0.10123647311768
  N   -2.12724256724759     -1.60981888537247     -0.17483179482889
  C   -0.40538605493339      1.44172053916699     -0.08179529670056
  N   -0.64500616586254      2.59110827049727     -0.13804740579739
