8
Coordinates from ORCA-job run
  C   1.16190896996178     -0.38798535347535      0.14869684979771
  C   -0.10682813019848      0.03545172119715     -0.01331000187248
  H   1.97642592027416      0.32374574863327      0.21150699195730
  H   1.38493669249092     -1.44605368964220      0.21968426984378
  C   -1.20440187383496     -0.88833644838909     -0.09912738807913
  N   -2.09977293566708     -1.64673192420168     -0.16804866847016
  C   -0.42745391702249      1.43303110914887     -0.11014289849272
  N   -0.68581472600385      2.57687883672903     -0.19025915468430
