8
Coordinates from ORCA-job run
  C   1.13830654965891     -0.35374701562737      0.31865324739246
  C   -0.10450415613446      0.03351585680997     -0.02891506244763
  H   1.94152033711414      0.37006740014358      0.39047749022760
  H   1.35189141280051     -1.39470069973645      0.53063032649709
  C   -1.18491857405713     -0.90867763648767     -0.13128625306714
  N   -2.06441434640777     -1.68424823579418     -0.21264229974177
  C   -0.41340869278980      1.40745814555530     -0.31542691306112
  N   -0.66347253018439      2.53133218513682     -0.55149053579951
