8
Coordinates from ORCA-job run
  C   1.13834854646127     -0.38241145126364      0.28349331454770
  C   -0.10464226294571      0.03510149662985     -0.02622814716550
  H   1.95737153700684      0.32430055921071      0.34616201742963
  H   1.33647000220363     -1.43050893596521      0.47392321698232
  C   -1.20721306208968     -0.88238490351713     -0.11509131900835
  N   -2.10603912838683     -1.63647831556489     -0.18624282697185
  C   -0.39189250625465      1.41954014053448     -0.28353495257213
  N   -0.62240312599487      2.55284140993583     -0.49348130324183
