8
Coordinates from ORCA-job run
  C   1.17686061036425     -0.35981973988209      0.08446105534010
  C   -0.10875012515225      0.03289623438481     -0.00716546555466
  H   1.48005136573685     -1.34041891032956     -0.26287591481190
  H   1.92522016280527      0.29977730119818      0.50768111744762
  C   -1.11956929399384     -0.82332153984483     -0.56434732080595
  N   -1.94114381454407     -1.52807184549389     -1.02243095811173
  C   -0.53460355459782      1.32845372932276      0.44627070528650
  N   -0.87806535061839      2.38950477064461      0.81740678121003
