8
Coordinates from ORCA-job run
  C   1.15479017265970     -0.39773423135117      0.17495022435564
  C   -0.10632806556822      0.03634364071374     -0.01629931594645
  H   1.97798633571155      0.30511011606342      0.22519463347200
  H   1.36343394247557     -1.45565115323941      0.28216275987713
  C   -0.40759036382179      1.43407201821368     -0.16085365068879
  N   -0.64948590417141      2.57835553956957     -0.27796289346742
  C   -1.21457605914926     -0.87590803623312     -0.08559627750935
  N   -2.11823005813614     -1.62558789373671     -0.14059548009275
