8
Coordinates from ORCA-job run
  C   1.19170058316111     -0.30424650254437      0.09770368792918
  C   -0.10971018921713      0.02768222753737     -0.00944490852527
  H   1.52725347988010     -1.30552948294794     -0.14523414003258
  H   1.92085307780138      0.42587660899272      0.42850288242133
  C   -0.57804539271241      1.34902593448671      0.30689758189143
  N   -0.95647070716829      2.43097687265845      0.56731768401055
  C   -1.09626735075216     -0.92196850545149     -0.44565814569474
  N   -1.90031350099260     -1.70181715273145     -0.80208464199990
