8
Coordinates from ORCA-job run
  C   1.17042974182315     -0.32121852701260      0.23335857836033
  C   -0.10459254874435      0.03065066415163     -0.02365307175980
  H   1.49580380553893     -1.34642156311891      0.10191044608821
  H   1.88798941950951      0.41526810840314      0.57458096132718
  C   -0.56372291225739      1.38249459836271      0.14312173681042
  N   -0.94308329039939      2.48618337716004      0.28195731513881
  C   -1.07448115004093     -0.92935967111775     -0.47465337018095
  N   -1.86734306542953     -1.71759698682827     -0.83762259578420
