8
Coordinates from ORCA-job run
  C   1.17764794177127     -0.28577450360155      0.23201803526745
  C   -0.10839521776482      0.02621026952692     -0.02106197256108
  H   1.87940260640487      0.47899847736840      0.54315349702564
  H   1.52803812508109     -1.30584682782304      0.12788742968638
  C   -0.59679898783137      1.37150655823389      0.10947286593360
  N   -0.99186649164063      2.47328139023207      0.21711127362917
  C   -1.05781150569742     -0.97013837503661     -0.43486739344304
  N   -1.83121647032299     -1.78823698890008     -0.77271373553812
