8
Coordinates from ORCA-job run
  C   1.14600581755856     -0.39936152836016      0.22273001139220
  C   -0.10531683387498      0.03696131328929     -0.02034891123606
  H   1.97711404077063      0.29548208341131      0.24695370031812
  H   1.33865987782042     -1.45127684963366      0.39749234402374
  C   -0.38625019142083      1.42661213375309     -0.25516185843261
  N   -0.61152914609604      2.56418869806371     -0.44683309975566
  C   -1.22351943120588     -0.86510192710588     -0.05747888904577
  N   -2.13516413355187     -1.60650392341770     -0.08735329726395
