8
Coordinates from ORCA-job run
  C   1.16666713808045     -0.37879794289051      0.13426224833684
  C   -0.10732594615435      0.03472673344616     -0.01250828892110
  H   1.39290459917240     -1.42990151936498      0.26834216602689
  H   1.98258454627653      0.33419149205284      0.11925428074057
  C   -0.43266754933385      1.42307762713161     -0.19157637843046
  N   -0.69427090882374      2.55964304529250     -0.33768840533290
  C   -1.20616342205782     -0.89138013056470      0.00305781910095
  N   -2.10172845715962     -1.65255930510292      0.01685655847921
