16

C	-0.528827	-0.087467	-1.415205
C	0.0	0.0	0.0
F	-1.894609	0.037994	-1.450878
H	1.09797	0.0	0.0
H	-0.246534	-1.025476	-1.889168
N	0.020697	0.999756	-2.3038
O	-0.511716	2.105742	-2.241164
O	0.962036	0.692378	-3.027668
N	-0.444894	-1.250636	0.650423
H	0.385296	-1.785077	0.88282
H	-0.912934	-1.032771	1.521305
C	-0.504767	1.229197	0.737615
H	-0.044183	1.25164	1.727831
H	-1.593265	1.198665	0.844408
H	-0.23634	2.149339	0.219976
Cl	3.405963	0.0	0.0
