16

C	-0.585078	0.040922	-1.392433
C	0.0	0.0	0.0
F	-0.105404	1.093758	-2.120394
H	1.093812	0.0	0.0
H	-1.677099	0.09216	-1.375516
N	-0.288151	-1.217035	-2.165693
O	0.858687	-1.377726	-2.558442
O	-1.237082	-1.979625	-2.350707
N	-0.447874	-1.250889	0.616901
H	0.339434	-1.67239	1.09336
H	-1.179221	-1.080933	1.295619
C	-0.445976	1.247155	0.755808
H	-0.12791	2.153818	0.23756
H	0.015028	1.246638	1.745783
H	-1.537788	1.271355	0.873274
Cl	3.446978	0.0	0.0
