16

C	-0.579373	-0.01305	-1.386626
C	0.0	0.0	0.0
F	-0.104833	1.002277	-2.172574
H	1.09691	0.0	0.0
H	-1.670475	0.043089	-1.361905
N	-0.29434	-1.288103	-2.153348
O	-0.987534	-1.4539	-3.157094
O	0.590893	-2.039784	-1.764846
N	-0.568815	-1.17792	0.678707
H	-0.591412	-0.985211	1.673022
H	0.087924	-1.939545	0.549158
C	-0.466937	1.272159	0.693428
H	-0.162826	2.154317	0.129088
H	0.001101	1.334542	1.678949
H	-1.556232	1.274795	0.816554
Cl	3.491475	0.0	0.0
