16

C	-0.511403	0.000104	-1.435293
C	0.0	0.0	0.0
F	-0.0936	1.094953	-2.125933
H	1.095446	0.0	0.0
H	-1.605334	-0.041837	-1.477658
N	-0.066815	-1.222221	-2.201318
O	0.890527	-1.129743	-2.953572
O	-0.733753	-2.238046	-1.990584
N	-0.428134	-1.177408	0.750148
H	-1.323744	-1.521841	0.425693
H	0.249295	-1.917127	0.6161
C	-0.498671	1.267946	0.68031
H	-0.095556	1.283741	1.692868
H	-1.594109	1.275052	0.744663
H	-0.163061	2.162319	0.153286
Cl	3.437638	0.0	0.0
