16

C	-0.382171	-0.016613	-1.459913
C	0.0	0.0	0.0
F	0.107735	-1.131629	-2.070944
H	1.103447	0.0	0.0
H	-0.035587	0.869331	-1.992935
N	-1.884167	-0.047671	-1.640626
O	-2.450664	1.036768	-1.508687
O	-2.428192	-1.117284	-1.883089
N	-0.56513	-1.199205	0.632934
H	-0.150336	-2.007693	0.1787
H	-0.21212	-1.216557	1.583971
C	-0.475022	1.244523	0.728902
H	-1.56119	1.257729	0.832648
H	-0.021271	1.254967	1.723361
H	-0.150503	2.151972	0.215399
Cl	3.456666	0.0	0.0
