16

C	-0.350427	0.005957	-1.485408
C	0.0	0.0	0.0
F	-0.086431	-1.204254	-2.055622
H	1.097009	0.0	0.0
H	0.162419	0.79146	-2.040741
N	-1.82217	0.261694	-1.672814
O	-2.157886	1.421684	-1.914332
O	-2.593712	-0.681611	-1.496563
N	-0.461548	-1.183524	0.705069
H	-1.434857	-1.372207	0.485608
H	0.086045	-1.979218	0.398298
C	-0.491021	1.263726	0.685453
H	-0.177015	2.162102	0.148391
H	-0.061543	1.288609	1.686737
H	-1.582959	1.279529	0.775264
Cl	3.448104	0.0	0.0
