15
Coordinates from ORCA-job run
  C   0.61873167086591     -0.33063286319775     -0.31240687044172
  C   -0.89821661234107     -0.21571231492768     -0.01749725343993
  Br  0.87302232517704     -1.81617311291798     -1.56255136678370
  H   -1.22173574691438     -1.20125492353764      0.33342057060308
  C   1.43740523065184     -0.60397578486773      0.94536065225083
  H   2.48609081554019     -0.74672153431617      0.68464351130505
  H   1.07160970109379     -1.51142217924230      1.43087630140075
  H   1.35575700362225      0.23584020031367      1.63885559316086
  C   1.06064217763960      0.89430157132382     -0.97355117140456
  N   1.37930279129910      1.91052668680036     -1.47179457512077
  N   -1.64004887173816      0.11259003483352     -1.21610247156680
  H   -1.52364305994491      1.09126635138748     -1.45410063629459
  H   -2.62700936438728     -0.06661662867791     -1.08165653650214
  C   -1.09445342154165      0.74518345206606      1.08940333022807
  N   -1.27845463902226      1.50280104496025      1.96910092260558
