15
Coordinates from ORCA-job run
  C   0.66172976389814      0.03800892215807     -0.28916054512226
  C   -0.76663580293059      0.32656038909678      0.23302797264208
  Br  0.55133130522340     -0.45738108671857     -2.18889859543438
  H   -0.64077379366827      0.60528258129750      1.28684948668813
  C   1.31810627604611     -1.09672820069445      0.48735035183374
  H   1.39731837302773     -0.81070172716826      1.54051268109786
  H   2.31838496335483     -1.28933972077528      0.09899906089548
  H   0.70607264201125     -1.99277752928482      0.40598405638840
  C   1.45849829174525      1.25791626838225     -0.20081432474237
  N   2.10475417115198      2.23164693350799     -0.07126559188091
  N   -1.57886244118391     -0.87376693973773      0.18578358272140
  H   -1.87092057892287     -1.05737087620576     -0.76731570604508
  H   -2.41050637113108     -0.74764011529880      0.74986183751564
  C   -1.35558963060719      1.48767064974968     -0.46259628434525
  N   -1.89190716801479      2.37962045169141     -1.00831798221246
