15
Coordinates from ORCA-job run
  C   0.54194925559933     -0.46784216430564     -0.44876180393308
  C   -0.92901559113535      0.00592204470674     -0.31777720377785
  Br  0.52604645992762     -2.37094159008470     -0.92727898639731
  H   -1.41787881379279     -0.18652461245921     -1.27756966782074
  C   1.33347613001036     -0.27218494455256      0.83693672589926
  H   1.36154065594567      0.79224204549796      1.08129304142946
  H   2.35680870591752     -0.62463066461442      0.70646863501468
  H   0.86974988742775     -0.83180855044068      1.65167837027226
  C   1.15406557897057      0.25905488739116     -1.55725878570761
  N   1.65947137123497      0.84410258594644     -2.44224162492521
  N   -0.93712625516085      1.43591730392389     -0.05933574455194
  H   -1.74030184275550      1.87593406277217     -0.48757268188188
  H   -0.95562441231617      1.63329179467517      0.93290803839729
  C   -1.62730570845658     -0.77666612670288      0.71735802443602
  N   -2.19585542141657     -1.31586607175342      1.59315366354667
