15
Coordinates from ORCA-job run
  C   0.66257938883078      0.11024959060462     -0.26745593582800
  C   -0.77812572847463      0.25515852153027      0.27945460859054
  Br  0.58329479536398     -0.02252126159636     -2.22787912859849
  H   -0.66978417817257      0.33454414035094      1.36850649361215
  C   1.34660040346842     -1.13109359487489      0.29177274562419
  H   0.76306818760203     -2.01293631309909      0.03510051604088
  H   2.35561807104629     -1.21858767085868     -0.11158240884561
  H   1.40789643465239     -1.04541727946335      1.38084758591304
  C   1.42129405158667      1.31382735166965      0.05872285536256
  N   2.03742053583885      2.26345948739876      0.37649090195474
  N   -1.55294377735998     -0.93772797727211     -0.00303624940603
  H   -1.82849062535446     -0.94853424733977     -0.97848770371732
  H   -2.39463565609999     -0.94113170904101      0.56035662900649
  C   -1.39677441050043      1.50883138216090     -0.19424933807512
  N   -1.95601749242734      2.47187957983013     -0.56956157163402
