15
Coordinates from ORCA-job run
  C   0.59841522393857     -0.47667126027017     -0.35575228305807
  C   -0.90415689209182     -0.09338120061364     -0.37498483277213
  Br  0.73292531579220     -2.41865308960915     -0.60606292076921
  H   -1.31135232519090     -0.42735452769692     -1.33410114065755
  C   1.28389497963279     -0.08251265075034      0.94537604983848
  H   2.33324025696630     -0.37698699462444      0.92207138962279
  H   1.23071513515079      1.00225183357601      1.06368107727372
  H   0.79851921955027     -0.57607510573529      1.78964385641581
  C   1.24348129981484      0.15894995653438     -1.50108258310272
  N   1.77796631407664      0.66875038961129     -2.41525578880038
  N   -1.01754094406799      1.35279776640883     -0.28934529129325
  H   -1.81664056012349      1.68426911776143     -0.81313367113082
  H   -1.11369774682248      1.66074438711973      0.66977625902164
  C   -1.62342135427524     -0.79942824584613      0.70005085541059
  N   -2.21134792235049     -1.27570037586558      1.59911902400108
