15
Coordinates from ORCA-job run
  C   0.60246301926522     -0.45107732598186     -0.34574301940389
  C   -0.90848426421228     -0.08558598340435     -0.33897272743009
  Br  0.76306079256522     -2.34060268995616     -0.84382474780622
  H   -1.33252749085928     -0.42980569832886     -1.29298558122236
  C   1.27581420729596     -0.20932212423966      0.99741712320356
  H   2.34321200520080     -0.42062318605126      0.92771555476321
  H   0.83549915237868     -0.86000358549985      1.75456232180088
  H   1.12382960596614      0.83375652994672      1.27861324429795
  C   1.22897795792107      0.33817224757031     -1.40286361457328
  N   1.69199666710172      1.01625090916369     -2.24440153056144
  N   -1.03009059954958      1.35041129531161     -0.11326932888589
  H   -1.93980703032472      1.58070008473247      0.26662396024099
  H   -0.91297241072256      1.84656227621631     -0.98911897364316
  C   -1.58773129506818     -0.81192261207927      0.73760994859419
  N   -2.15224031695822     -1.35891013739985      1.60963737062555
