15
Coordinates from ORCA-job run
  C   0.61238515042518     -0.32495776192221     -0.33301175439782
  C   -0.89746628545214     -0.21798869577836     -0.00169494794142
  Br  0.83761537256996     -1.77823913390911     -1.62638243608245
  H   -1.21375006545702     -1.21390564158190      0.32570124230387
  C   1.45806297343697     -0.63061334289941      0.89899735867672
  H   2.50017378561671     -0.77036881955044      0.61137306570163
  H   1.09990466915270     -1.54818162748916      1.37109853681912
  H   1.39509918992159      0.19293459730179      1.61383210939923
  C   1.04087152685870      0.91591942438930     -0.97284700030522
  N   1.35168211867493      1.94199550119381     -1.45550455745441
  N   -1.66518262879654      0.14718918067578     -1.17277873306353
  H   -2.64948898566541     -0.03369190429266     -1.02107396145035
  H   -1.55164409983459      1.13252367619194     -1.38382034834908
  C   -1.06962227259784      0.71172983021624      1.13558055859248
  N   -1.24664044885317      1.47665471745441      2.01053086755124
