16
Coordinates from ORCA-job run
  C   -0.65192130250856      0.25037202708628     -0.68371563334151
  C   0.54883278652198     -0.25976398481869      0.11549736217492
  Cl  -0.47356530437155     -0.24945029676595     -2.40412293960810
  H   0.63508155692771     -1.34046985252227     -0.08106912144256
  H   -0.63178510935720      1.34296407036170     -0.68227075497887
  C   -1.98470421585999     -0.25432280640410     -0.16595627518197
  H   -2.79962664690006      0.08027381428093     -0.80905742810147
  H   -2.15733423505980      0.13628705012599      0.83819350957280
  H   -1.99876488098092     -1.34754063089368     -0.14182095537174
  N   0.29572120136132      0.04725374257210      1.52624882406645
  H   1.16984082346834      0.03485033435918      2.03801186873904
  H   -0.30057366095810     -0.65921574896970      1.93965341923633
  C   1.84199369681444      0.42360834386775     -0.30099265005307
  H   1.78220240725850      1.48990920619689     -0.06571583122811
  H   2.03489765003470      0.30596348860332     -1.36652327998628
  H   2.68970523360919     -0.00071875707974      0.24463988550415
