16
Coordinates from ORCA-job run
  C   -0.90606973757682     -0.36613994568685     -0.00402489966033
  C   0.62823684156057     -0.41722803945325     -0.07715987210657
  Cl  -1.44815074193656     -0.05218423492282      1.68533624208498
  H   0.84650717108302     -0.66622413721866     -1.12512735572879
  H   -1.28418068109887     -1.36743480402493     -0.23163363791061
  C   -1.54751729206440      0.65007628067190     -0.92978780160026
  H   -2.63288095994914      0.53872352513523     -0.93266904903873
  H   -1.31339406787854      1.66833022579411     -0.61834793257931
  H   -1.18209189537089      0.50210306656948     -1.95061158110972
  N   1.23955816847270     -1.46273719061288      0.73340775714218
  H   1.03801610427554     -1.28850721068531      1.71190443887429
  H   0.84000837371985     -2.36560971388004      0.50178665149691
  C   1.29632595966298      0.91130413657613      0.24521319355344
  H   2.37657793927446      0.78777469931541      0.16202521181446
  H   1.06545902098646      1.22492329668309      1.26603861519902
  H   0.98359579683964      1.70483004573939     -0.43534998043094
