13

C	0.0	0.0	0.0
C	-0.490966	0.220016	-1.436969
F	1.396041	0.0	0.0
H	-1.598483	0.21911	-1.37082
H	-0.304302	0.864769	0.602062
N	-0.462789	-1.268842	0.453668
H	-0.214593	-1.376828	1.430347
H	-1.484211	-1.245682	0.398461
C	-0.038043	-0.856736	-2.320441
N	0.326257	-1.684519	-3.068945
C	-0.033115	1.513527	-1.946033
N	0.349633	2.559524	-2.316476
Br	-3.617213	0.0	0.0
