13

C	0.0	0.0	0.0
C	-0.509996	0.253868	-1.425341
F	1.37127	0.0	0.0
H	-1.615411	0.260121	-1.337026
H	-0.318147	0.846636	0.621961
N	-0.462257	-1.281671	0.427129
H	-0.189967	-1.415077	1.395303
H	-1.484572	-1.255848	0.398614
C	-0.081526	-0.80475	-2.340946
N	0.26531	-1.622753	-3.107927
C	-0.055159	1.556617	-1.914408
N	0.29492	2.609708	-2.297202
Br	-3.622833	0.0	0.0
