13

C	0.0	0.0	0.0
C	-0.301859	0.247808	-1.514274
F	1.374861	0.0	0.0
H	0.623718	-0.09345	-1.992756
H	-0.328978	0.842206	0.616396
N	-0.464996	-1.292995	0.370505
H	-1.488038	-1.258186	0.266189
H	-0.2791	-1.419906	1.360408
C	-0.381031	1.681829	-1.806639
N	-0.318656	2.829352	-2.042388
C	-1.35668	-0.503419	-2.201546
N	-2.016506	-1.11704	-2.953922
Br	-3.523275	0.0	0.0
