13

C	0.0	0.0	0.0
C	-0.492148	-0.084838	-1.449956
F	1.39803	0.0	0.0
H	-1.599135	-0.070287	-1.38389
H	-0.304177	0.972154	0.40708
N	-0.458998	-1.145606	0.710904
H	-0.210697	-1.042464	1.688265
H	-1.481055	-1.138339	0.656015
C	-0.043854	-1.322465	-2.091646
N	0.317575	-2.290282	-2.648383
C	-0.035637	1.072778	-2.22066
N	0.326307	2.01254	-2.823931
Br	-3.612161	0.0	0.0
