13
Coordinates from ORCA-job run
  C   1.23941378630859     -0.57404827709819     -0.23259383565772
  C   0.02969256594230      0.08945938298816      0.40697281014403
  F   1.32039423515889     -1.86556973614221      0.26501662917293
  H   0.15078900560424      0.10223381431990      1.49053895415718
  H   2.16035490763171     -0.04708480625522      0.02786101665257
  H   1.13113256257613     -0.62412571939518     -1.31602852136803
  C   -1.28035628560602     -0.55838543837797      0.00178805372673
  H   -2.12304317060340     -0.06414612993253      0.48868765960426
  H   -1.26856281910730     -1.60605929097168      0.30368551947277
  H   -1.40976641666143     -0.50243254153396     -1.08037543695187
  N   0.02250566016362      1.52538256388657     -0.00917248684378
  O   -0.07113407479423      2.37776057603040      0.87052217896730
  O   0.09758004338690      1.74701560248192     -1.21790254107638
