19

C	0.0	0.0	0.0
C	-0.377612	0.259265	-1.476471
F	1.422065	0.0	0.0
H	0.271153	-0.435041	-2.033637
C	-0.506426	1.019766	0.987048
H	-0.192906	0.745511	1.999104
H	-0.110574	2.010143	0.764625
H	-1.598708	1.038155	0.952696
N	-0.441878	-1.30393	0.369612
H	-0.260012	-1.489308	1.347355
H	0.037306	-1.995963	-0.194414
C	-0.019452	1.674583	-1.911116
H	0.996329	1.942701	-1.613156
H	-0.107403	1.745755	-2.996046
H	-0.719173	2.39325	-1.476806
N	-1.744443	-0.03388	-1.852125
H	-2.419661	0.520145	-1.327284
H	-1.974539	-0.980314	-1.57126
Br	-4.715414	0.0	0.0
