19

C	0.0	0.0	0.0
C	-0.49722	-0.225754	-1.43621
F	1.392727	0.0	0.0
H	-1.493695	-0.669962	-1.358571
C	-0.37548	1.353855	0.579032
H	0.090932	2.141255	-0.012756
H	-1.457728	1.480072	0.599365
H	0.013454	1.40775	1.601745
N	-0.408487	-1.133713	0.797686
H	-0.131492	-0.961442	1.760012
H	-1.427241	-1.165353	0.779684
C	0.417723	-1.194441	-2.166651
H	0.513097	-2.121802	-1.603497
H	1.408556	-0.757257	-2.302827
H	0.010289	-1.434888	-3.153358
N	-0.559251	1.055231	-2.158688
H	-0.611018	0.844115	-3.14914
H	-1.445985	1.487571	-1.908711
Br	-3.822488	0.0	0.0
