19

C	0.0	0.0	0.0
C	-0.430268	-0.011081	-1.477492
F	1.412403	0.0	0.0
H	-1.524461	-0.000617	-1.477623
C	-0.412479	1.26435	0.732936
H	0.021861	2.15558	0.275933
H	-0.05858	1.207446	1.767362
H	-1.502748	1.326599	0.727148
N	-0.451115	-1.207593	0.638348
H	-0.316253	-1.111239	1.639576
H	-1.4609	-1.250203	0.489733
C	0.071262	-1.262083	-2.187603
H	-0.289421	-2.166327	-1.69899
H	-0.271955	-1.237963	-3.223745
H	1.164978	-1.284999	-2.182759
N	0.029893	1.167876	-2.220105
H	-0.521518	1.971493	-1.943948
H	0.991728	1.353895	-1.95563
Br	-3.894352	0.0	0.0
