19

C	0.0	0.0	0.0
C	-0.379495	-0.147797	-1.472749
F	1.441578	0.0	0.0
H	0.044655	0.733088	-1.982773
C	-0.43148	1.303372	0.627086
H	0.00429	1.38425	1.626959
H	-1.517995	1.333375	0.711332
H	-0.078744	2.148468	0.031621
N	-0.475626	-1.108973	0.728877
H	-0.220446	-1.961836	0.247089
H	-0.13951	-1.105949	1.681653
C	-1.880873	-0.196762	-1.691655
H	-2.329504	-1.043539	-1.175342
H	-2.400788	0.684106	-1.318492
H	-2.095829	-0.277328	-2.763049
N	0.229938	-1.397281	-1.950876
H	-0.150776	-1.622215	-2.861821
H	1.229378	-1.264915	-2.045049
Br	-5.237134	0.0	0.0
