16

C	0.0	0.0	0.0
C	-0.254807	0.267216	-1.500353
F	1.392904	0.0	0.0
H	0.495096	-0.359691	-1.997367
N	-0.527795	0.914124	0.894567
H	-1.213312	1.484296	0.410127
H	-1.012564	0.42692	1.637339
N	-0.313834	-1.44983	0.360688
O	-0.203669	-2.273155	-0.541745
O	-0.550314	-1.694947	1.537825
N	-0.026648	1.70311	-1.700804
H	-0.162259	1.916018	-2.681103
H	0.935605	1.908103	-1.457652
C	-1.506816	-0.09113	-2.181596
N	-2.175559	-0.309737	-3.126137
Br	-3.597525	0.0	0.0
