16

C	0.0	0.0	0.0
C	-0.543978	-0.100236	-1.432831
F	1.352892	0.0	0.0
H	-1.641342	-0.135073	-1.32129
N	-0.551393	0.984754	0.846117
H	-1.569004	0.835449	0.868142
H	-0.380438	1.903436	0.450917
N	-0.298885	-1.38095	0.661032
O	-1.452726	-1.778822	0.604282
O	0.649485	-1.979718	1.158642
N	-0.086732	-1.250653	-2.19218
H	0.884474	-1.44719	-1.980865
H	-0.649926	-2.052016	-1.937799
C	-0.182824	1.148703	-2.118302
N	0.102628	2.166915	-2.629134
Br	-3.966018	0.0	0.0
