16

C	0.0	0.0	0.0
C	-0.604343	0.036106	-1.395603
F	1.352315	0.0	0.0
H	-1.696693	-0.013325	-1.236838
N	-0.554667	0.983166	0.816733
H	-1.577539	0.927426	0.758454
H	-0.258724	0.880524	1.779092
N	-0.262465	-1.476405	0.530938
O	-1.415384	-1.726758	0.845485
O	0.696589	-2.235984	0.6207
N	-0.182034	-1.123105	-2.160245
H	0.765855	-1.006308	-2.496116
H	-0.799207	-1.250216	-2.950975
C	-0.260939	1.320888	-2.031265
N	0.044996	2.284401	-2.630425
Br	-3.973647	0.0	0.0
