16

C	0.0	0.0	0.0
C	-0.39869	0.096956	-1.515998
F	1.361188	0.0	0.0
H	-0.398207	1.179944	-1.691846
N	-0.571503	0.996154	0.779373
H	-1.577931	1.025516	0.590673
H	-0.446586	0.782246	1.76316
N	-0.278948	-1.431684	0.545731
O	-0.246214	-2.36231	-0.253769
O	-0.422957	-1.531746	1.760786
N	-1.634123	-0.441886	-2.01255
H	-2.445134	-0.062145	-1.520175
H	-1.647605	-1.442259	-1.864116
C	0.694797	-0.460461	-2.336114
N	1.528962	-0.894601	-3.039076
Br	-4.127654	0.0	0.0
