15
Coordinates from ORCA-job run
  C   1.25795490563204     -0.07588210661661     -0.14746720143588
  C   -0.17569527743576      0.04432363525352      0.39579155451096
  H   1.89202642574578     -0.61316967298616      0.56495456507511
  H   -0.13053631962975      0.63011582224766      1.32187728370011
  H   1.25283873676926     -0.65788845153900     -1.07603015647777
  C   1.86372894828307      1.22743573062403     -0.41708305515189
  N   2.32287655946790      2.28795979678644     -0.62095043872731
  C   -0.71023440442284     -1.34704520057873      0.72282858031933
  H   -0.75640891583940     -1.96449977152869     -0.17991965265036
  H   -1.71947942491451     -1.28730262244250      1.13726850358708
  H   -0.07755555049038     -1.85978561669658      1.45247141921183
  C   -1.07882252054778      0.76858729508980     -0.59707542118455
  H   -2.09363232655534      0.85589607140503     -0.20110297622171
  H   -0.71438531147159      1.77516320406496     -0.81438064038975
  H   -1.13367552459072      0.21509188691684     -1.54018236416520
