15
Coordinates from ORCA-job run
  C   1.07878911024229      0.58772833697888     -0.31585982469811
  C   -0.24268774063458      0.14033646315945      0.33054677055568
  H   1.08736384460480      0.30381164408027     -1.37437323693650
  H   -0.20965747666318      0.43214132082890      1.38722278639863
  H   1.17394650261224      1.67752133143052     -0.27440179528086
  C   2.24698220784204     -0.00354421822076      0.33626878390302
  N   3.16301830207302     -0.49181358568168      0.88384332709120
  C   -0.40784496586082     -1.37350624355919      0.24656123434806
  H   -1.34384684807981     -1.68533495610856      0.71652506157642
  H   -0.43321754937708     -1.69886382735542     -0.79853389351568
  H   0.41034331617318     -1.89719941175088      0.74607330102085
  C   -1.40540056596160      0.86591984460515     -0.34041101550503
  H   -2.35534848949767      0.58555967720079      0.12101377134165
  H   -1.30143560813337      1.95147262941816     -0.26103638997401
  H   -1.46100403933946      0.60677099497438     -1.40243888032533
