14

C	0.0	0.0	0.0
C	-0.558308	0.026506	-1.412615
Cl	1.785661	0.0	0.0
H	-1.655831	0.064209	-1.272239
H	-0.338301	0.884356	0.536409
C	-0.427066	-1.213533	0.694044
N	-0.62128	-2.213521	1.279021
N	-0.161935	-1.079046	-2.194151
H	-0.762222	-1.177185	-2.998995
H	0.798425	-1.001423	-2.499787
N	-0.182348	1.380101	-2.026022
O	0.123549	1.390959	-3.217593
O	-0.256512	2.373364	-1.308163
Cl	-3.434067	0.0	0.0
