14

C	0.0	0.0	0.0
C	-0.556526	0.008596	-1.413703
Cl	1.785737	0.0	0.0
H	-1.653861	0.051787	-1.275812
H	-0.340526	0.889395	0.526157
C	-0.428947	-1.208937	0.705432
N	-0.632623	-2.202792	1.29745
N	-0.164783	-1.113512	-2.176401
H	0.79631	-1.04369	-2.482278
H	-0.763711	-1.220821	-2.98083
N	-0.177972	1.34745	-2.051709
O	0.111297	1.338316	-3.247726
O	-0.230128	2.352178	-1.348039
Cl	-3.430913	0.0	0.0
