14

C	0.0	0.0	0.0
C	-0.411816	0.603695	-1.378111
Cl	1.776843	0.0	0.0
H	0.500131	0.730119	-1.965217
H	-0.340073	0.691022	0.767417
C	-0.42464	-1.35243	0.360737
N	-0.563842	-2.431221	0.80384
N	-1.033941	1.862057	-1.206311
H	-1.931939	1.666567	-0.755931
H	-1.215507	2.269588	-2.11458
N	-1.164048	-0.372462	-2.304078
O	-1.864112	0.146419	-3.16572
O	-0.862018	-1.558419	-2.247905
Cl	-3.123477	0.0	0.0
