14

C	0.0	0.0	0.0
C	-0.55586	0.007486	-1.435265
Cl	1.781362	0.0	0.0
H	-1.62316	0.239165	-1.311051
H	-0.337451	0.895652	0.519632
C	-0.426456	-1.204996	0.70734
N	-0.649856	-2.204798	1.280497
N	-0.391794	-1.16504	-2.209905
H	-1.128511	-1.818526	-1.976249
H	0.517638	-1.59319	-2.088801
N	0.074766	1.201609	-2.114496
O	0.738584	1.030178	-3.131512
O	-0.115315	2.284605	-1.562002
Cl	-3.40735	0.0	0.0
