14

C	0.0	0.0	0.0
C	-0.556129	-0.002897	-1.413847
Cl	1.77544	0.0	0.0
H	-1.652887	0.043736	-1.275974
H	-0.345827	0.893908	0.515584
C	-0.426236	-1.199688	0.720923
N	-0.610649	-2.188651	1.326097
N	-0.163881	-1.128978	-2.16987
H	-0.776293	-1.256024	-2.961624
H	0.790718	-1.053142	-2.493243
N	-0.167411	1.333032	-2.054974
O	0.185671	1.313329	-3.233757
O	-0.269544	2.344568	-1.36725
Cl	-3.426789	0.0	0.0
