14

C	0.0	0.0	0.0
C	-0.54588	0.028835	-1.452316
Cl	1.780522	0.0	0.0
H	-0.315028	1.005321	-1.879542
H	-0.343438	0.908641	0.498406
C	-0.45072	-1.160863	0.767175
N	-0.716073	-2.062422	1.47145
N	-1.903678	-0.303121	-1.639512
H	-2.570301	0.416997	-1.369847
H	-2.190562	-1.122298	-1.11555
N	0.263215	-0.952669	-2.272042
O	0.195867	-2.127372	-1.924289
O	0.896323	-0.518749	-3.23073
Cl	-4.527825	0.0	0.0
