14

C	0.0	0.0	0.0
C	-0.420936	0.63247	-1.361581
Cl	1.776524	0.0	0.0
H	0.493652	0.823678	-1.927763
H	-0.338646	0.679859	0.779415
C	-0.435638	-1.354591	0.332404
N	-0.596072	-2.447731	0.731546
N	-1.107977	1.852993	-1.176574
H	-1.288355	2.272355	-2.079944
H	-2.006892	1.616512	-0.742905
N	-1.095596	-0.3693	-2.318852
O	-0.682503	-1.523863	-2.301055
O	-1.854309	0.106762	-3.153765
Cl	-3.214229	0.0	0.0
