17

C	-0.421016	0.013409	-1.479956
C	0.0	0.0	0.0
Br	-2.343166	0.270156	-1.697889
H	1.088788	0.0	0.0
C	0.341574	1.10479	-2.198178
H	1.408784	0.967057	-2.009546
H	0.026408	2.075559	-1.812943
H	0.137735	1.061849	-3.26868
N	-0.072354	-1.353734	-2.092458
O	-0.86158	-2.273004	-1.914364
O	0.991739	-1.413306	-2.696315
N	-0.488554	-1.214035	0.735565
O	0.191104	-2.225845	0.599856
O	-1.518362	-1.110819	1.39951
C	-0.470376	1.202292	0.668262
N	-0.844257	2.189332	1.183353
Cl	3.15384	0.0	0.0
