17

C	-0.357817	0.032074	-1.490782
C	0.0	0.0	0.0
Br	-2.270646	0.114515	-1.88574
H	1.092565	0.0	0.0
C	0.342972	1.212654	-2.130166
H	-0.05065	2.13908	-1.710584
H	1.413197	1.135684	-1.912454
H	0.172884	1.203508	-3.204514
N	0.129711	-1.258491	-2.151752
O	0.4062	-1.199711	-3.342703
O	0.16208	-2.263646	-1.452295
N	-0.510767	-1.173686	0.80453
O	-1.723908	-1.359976	0.801142
O	0.319085	-1.80802	1.437286
C	-0.494982	1.203075	0.652144
N	-0.892099	2.174539	1.180731
Cl	3.181586	0.0	0.0
