17

C	-0.408312	-0.015849	-1.483043
C	0.0	0.0	0.0
Br	-0.020448	1.733897	-2.226796
H	1.092222	0.0	0.0
C	0.337841	-1.067266	-2.270235
H	1.405608	-0.896338	-2.114383
H	0.084969	-0.986767	-3.327779
H	0.083709	-2.063202	-1.915672
N	-1.925817	-0.223021	-1.562863
O	-2.646384	0.682811	-1.166333
O	-2.306159	-1.319814	-1.967695
N	-0.468322	-1.293405	0.630509
O	0.238094	-2.278901	0.455876
O	-1.535407	-1.270925	1.242876
C	-0.527792	1.112861	0.772694
N	-0.887559	2.017271	1.430686
Cl	3.171507	0.0	0.0
