17

C	-0.522953	0.00227	-1.45153
C	0.0	0.0	0.0
Br	0.180197	-1.564786	-2.351617
H	1.092082	0.0	0.0
C	-2.02153	0.072918	-1.650434
H	-2.231888	0.204721	-2.712719
H	-2.435197	0.917797	-1.100776
H	-2.480971	-0.846917	-1.298883
N	0.123822	1.251137	-2.090593
O	-0.601918	2.245517	-2.133463
O	1.288736	1.184552	-2.445302
N	-0.464372	-1.24307	0.731295
O	-1.682285	-1.388443	0.866381
O	0.400822	-2.002141	1.153638
C	-0.528408	1.143181	0.732949
N	-0.953531	2.066352	1.323468
Cl	3.192486	0.0	0.0
