15
Coordinates from ORCA-job run
  C   -0.57146416896540     -0.06285054437901     -0.72431005022783
  C   0.80087869927505     -0.65814131328008     -0.36085061996028
  H   -0.95508609687385     -0.60698759173973     -1.59556327928032
  H   1.44383756643589     -0.60939487233832     -1.24542564054358
  H   0.64950032837464     -1.72044379476842     -0.13898644344726
  C   -0.41953823817608      1.33842436418338     -1.13125726354516
  N   -0.28226796561366      2.46489789011171     -1.43300641324617
  C   -1.59844893670194     -0.17464242619915      0.40805322229253
  H   -1.67807207232022     -1.21559549096472      0.73122223689689
  H   -2.58220869951320      0.15843419051864      0.07240978675217
  H   -1.31140011815366      0.43493009568153      1.26548442457178
  C   1.48751440835520      0.03219792510537      0.81306177148375
  H   0.92611474743592     -0.08914733190861      1.74133959445637
  H   1.61010504569913      1.10141389697308      0.62412347786808
  H   2.48053550074217     -0.39309499699568      0.97370519592903
