17
Coordinates from ORCA-job run
  C   0.73871598276363      0.09492975348622      0.56408807863366
  C   -0.70154312167678      0.21938740538430      0.05794986446622
  H   0.77124318022644      0.17146851474896      1.65395040177515
  H   -1.09635082370999      1.16725270502407      0.44503946114532
  N   1.44948523573921      1.38946422120326      0.10803414816381
  O   1.05869625804266      2.43262747831221      0.62806489632858
  O   2.32486696605540      1.30093514325733     -0.74868249806422
  N   1.34919913757416     -1.08471619833281      0.09437630397213
  H   2.32925433962042     -1.13177327949297      0.33529654144965
  H   1.23808318582759     -1.13249891257021     -0.91136038475639
  C   -1.54214109396598     -0.93176732805240      0.58462665328041
  H   -2.58737856715685     -0.80119158372507      0.29008782810901
  H   -1.50302550984039     -0.97435064778015      1.67514214215637
  H   -1.17312079426151     -1.87859470645491      0.19025422495864
  N   -0.65597326376009      0.17649442587895     -1.40496144563449
  H   -1.55365885869682     -0.10993228132038     -1.77414839390838
  H   -0.44735225278108      1.09126529043361     -1.78775782207547
