17
Coordinates from ORCA-job run
  C   0.79048955789854      0.35098708861341     -0.07978999254814
  C   -0.62686364376276     -0.13732661763057      0.24846722146369
  H   0.84110274892609      0.79132478596356     -1.07952378341056
  H   -0.51838184668427     -0.90707366507126      1.02298681359135
  N   1.63963267701076     -0.92083960702047     -0.22665392921562
  O   1.88285607931248     -1.31119900934763     -1.36760333740198
  O   2.01076922174365     -1.46143484634628      0.81218526373126
  N   1.29084409529354      1.25190126042870      0.88923617564186
  H   2.27709143577448      1.43937655311722      0.76999230871237
  H   1.10173175551613      0.93520961103277      1.82972796239250
  C   -1.28277828359056     -0.76067393795505     -0.98251083280795
  H   -0.69458453821874     -1.58119265743357     -1.39929241882769
  H   -1.41634754730914     -0.00380343357675     -1.76102393004020
  H   -2.26809984084653     -1.15455177755775     -0.71949757091842
  N   -1.37614284836465      0.96141356711943      0.85261487771054
  H   -1.29467492901391      1.79917451388335      0.28836830930227
  H   -2.35664409368512      0.70970817178089      0.90131686262472
