17
Coordinates from ORCA-job run
  C   0.83012129480626      0.33094123158549      0.32959698241506
  C   -0.69949306987704      0.22019204076755      0.29777245298145
  H   1.09309064390275      1.37897951227694      0.53625113556369
  H   -0.97855793540049      0.13014846427973      1.35866463418069
  N   1.46014675478633      0.09962214470827     -1.02907266147985
  O   2.62358072024316     -0.29908097353368     -1.03352910808390
  O   0.82061648456917      0.41494855142078     -2.02586575970067
  N   1.39297179704577     -0.64837551802412      1.22821390710608
  H   1.11809207699550     -0.42508137962581      2.17635460523797
  H   2.40280276452044     -0.63560350893593      1.16933161712654
  C   -1.17954157635227     -1.05085880481691     -0.39172811414952
  H   -2.23486450261640     -1.21826292793442     -0.16234882110742
  H   -0.60601605156420     -1.91061598893738     -0.04225746210137
  H   -1.07084569535118     -0.96787475192041     -1.47327489684288
  N   -1.27614107845488      1.43628505679382     -0.27141015379365
  H   -1.84974436204809      1.22540436628262     -1.07574295987021
  H   -1.84721826520482      1.91823248561346      0.40904460251799
