15

C	-0.35532	-0.013742	-1.46748
C	0.0	0.0	0.0
Cl	-0.059289	1.594928	-2.233371
H	1.089174	0.0	0.0
H	-0.346567	-0.924576	0.459455
N	0.385531	-1.062744	-2.057071
H	1.364915	-0.992454	-1.774924
H	0.310283	-1.026342	-3.066433
N	-1.826742	-0.357963	-1.730806
O	-2.502745	-0.717253	-0.774344
O	-2.189716	-0.337143	-2.900649
N	-0.561404	1.103192	0.810675
O	-1.492594	1.765418	0.354708
O	-0.079736	1.233534	1.931516
Br	3.429801	0.0	0.0
