15

C	-0.341566	0.014071	-1.474134
C	0.0	0.0	0.0
Cl	0.154722	1.664612	-2.109092
H	1.088114	0.0	0.0
H	-0.457163	0.822649	0.5417
N	0.273565	-1.069374	-2.095031
H	1.259059	-1.102436	-1.838801
H	0.14371	-1.084952	-3.0943
N	-1.850008	-0.001113	-1.750102
O	-2.240676	-0.716043	-2.666538
O	-2.541059	0.738454	-1.06488
N	-0.48773	-1.283805	0.588666
O	0.340501	-2.144541	0.872518
O	-1.707053	-1.390274	0.743865
Br	3.46277	0.0	0.0
