15

C	-0.536545	-0.022693	-1.415921
C	0.0	0.0	0.0
Cl	-0.638693	1.685035	-2.012594
H	1.090245	0.0	0.0
H	-0.388537	0.841303	0.563574
N	0.187095	-0.804803	-2.297686
H	0.645069	-1.577891	-1.836182
H	-0.355715	-1.086573	-3.101098
N	-2.056533	-0.42032	-1.363554
O	-2.70364	-0.040837	-0.395881
O	-2.492459	-1.052909	-2.318983
N	-0.407856	-1.218889	0.749475
O	-0.634426	-1.09264	1.946267
O	-0.447094	-2.284174	0.130251
Br	3.415772	0.0	0.0
