15

C	-0.524432	0.014439	-1.417871
C	0.0	0.0	0.0
Cl	-0.233272	1.645607	-2.088853
H	1.090315	0.0	0.0
H	-0.362872	0.864036	0.549301
N	0.026306	-0.943784	-2.263466
H	-0.417286	-0.942766	-3.170804
H	-0.014043	-1.858338	-1.834648
N	-2.103334	-0.060969	-1.369316
O	-2.650578	-0.584561	-2.333443
O	-2.670225	0.419948	-0.395854
N	-0.462147	-1.189502	0.761777
O	-0.872631	-2.173938	0.136056
O	-0.388984	-1.113285	1.982895
Br	3.442245	0.0	0.0
