15

C	-0.34542	0.171846	-1.464952
C	0.0	0.0	0.0
Cl	-2.081739	0.599004	-1.735445
H	1.090171	0.0	0.0
H	-0.438725	-0.897489	0.417506
N	0.492401	1.076294	-2.093856
H	0.453828	0.996463	-3.100721
H	1.445505	1.006431	-1.736025
N	-0.278225	-1.268845	-2.123351
O	-0.629945	-2.237344	-1.461099
O	0.094305	-1.292367	-3.289877
N	-0.485331	1.147127	0.802074
O	-0.008132	2.253873	0.573117
O	-1.339643	0.901979	1.658055
Br	3.420942	0.0	0.0
