15

C	-0.518331	0.003591	-1.418467
C	0.0	0.0	0.0
Cl	-2.407018	0.124617	-1.328654
H	1.091054	0.0	0.0
H	-0.392898	-0.846704	0.550679
N	0.080654	0.911285	-2.249029
H	-0.297572	0.954839	-3.181618
H	0.272156	1.796344	-1.805386
N	-0.367143	-1.392946	-2.040711
O	-0.426317	-1.433591	-3.263186
O	-0.231902	-2.347588	-1.288918
N	-0.432055	1.219726	0.725948
O	-0.899702	1.070118	1.851253
O	-0.256468	2.310797	0.180258
Br	3.420802	0.0	0.0
