17
Coordinates from ORCA-job run
  C   -0.61539085239958      0.51225824177364     -0.27148609275207
  C   0.49562351028046     -0.52724719431572     -0.03534977387592
  F   -0.06047337598212      1.78289785660574     -0.24563060436906
  H   0.07917008485775     -1.51861242913053     -0.22397356575364
  C   -1.13704066602472      0.28021735032746     -1.63176924175065
  N   -1.55694114335432      0.07293432845433     -2.70862806178600
  C   -1.73650809042508      0.46385471050530      0.74942116134361
  H   -2.51294694448713      1.17412791683813      0.46417397138053
  H   -2.16585879836726     -0.53691907193357      0.81279540436766
  H   -1.34407126394085      0.74817289700977      1.72665213152415
  N   0.81889550923010     -0.52692017768896      1.42964389071579
  O   1.53210228805023      0.38019929411165      1.84967064652789
  O   0.30946883305149     -1.41791556231833      2.10846548373941
  C   1.74359147793289     -0.26577445439059     -0.85275503830323
  H   2.49731250589229     -1.02485266644743     -0.63660500137295
  H   2.15072948739539      0.71538288504808     -0.61886460283689
  H   1.50333743829043     -0.31280392444896     -1.91676070679863
