17
Coordinates from ORCA-job run
  C   -0.80412255612611     -0.00622445234217     -0.53493781570389
  C   0.63408583341237     -0.50138774162610     -0.28775197902832
  F   -0.80965093030455      0.33932303215530     -1.88965820461734
  H   0.85122244011084     -1.22486805134437     -1.07530215643648
  C   -1.74117847611924     -1.13128774867823     -0.36708860285447
  N   -2.48767168190527     -2.02731984355830     -0.22955351918212
  C   -1.26593310371089      1.20554183588732      0.24588633945504
  H   -2.27258851972240      1.46694068523330     -0.08376395455806
  H   -0.60489069999935      2.04709956538900      0.03714693841229
  H   -1.27325138352355      0.99864781896557      1.31372598382796
  N   0.73171974104804     -1.27952620660921      0.98770143101623
  O   1.38040398291364     -2.32091755352921      0.94880110809938
  O   0.20062486064023     -0.79818766807136      1.98717165380352
  C   1.67017040953422      0.60689113026620     -0.26262605369947
  H   1.54074775522716      1.24417110275800      0.61309301475089
  H   1.57888639265935      1.21023515361189     -1.16697099879908
  H   2.67042593586552      0.17086894149235     -0.23587318448608
