17
Coordinates from ORCA-job run
  C   -0.67536691637756      0.43221733098346     -0.26916426976632
  C   0.56520598177283     -0.45140937309594     -0.04232083729734
  F   -0.30342882163161      1.76561636044615     -0.19013832309671
  H   0.29475272871903     -1.48306486470927     -0.27540398306078
  C   -1.13558449855865      0.17697713156641     -1.64730554950718
  N   -1.50433973671006     -0.05297951080715     -2.73821477868575
  C   -1.79679753089797      0.19283359284078      0.72403048117559
  H   -1.46448708634575      0.48938903215373      1.71971928241385
  H   -2.65728120618775      0.80244071799558      0.44699818785914
  H   -2.08692380924052     -0.85858216008354      0.74100346212309
  N   0.85690278206844     -0.46196664633252      1.42916533749199
  O   1.42769419987379      0.51899378038470      1.89809891709469
  O   0.46251158879826     -1.43953830144751      2.06395933532720
  C   1.77987297108050      0.01161464310329     -0.81960563766834
  H   1.56826387350635     -0.02581262752291     -1.89009330984047
  H   2.62742644494574     -0.64428312822779     -0.61348084445268
  H   2.04257903518493      1.02955402275252     -0.54024747010997
