17
Coordinates from ORCA-job run
  C   -0.81106455667615      0.00678441461428     -0.51322240034012
  C   0.60489484325568     -0.55789113031309     -0.27724336011106
  F   -0.84143340207823      0.32378541668315     -1.87145841928550
  H   0.73001360109030     -1.39023697816320     -0.97154334167885
  C   -1.81030839402048     -1.05313099277366     -0.28772471426934
  N   -2.61757404920770     -1.88369126146481     -0.09348619409713
  C   -1.16852834317297      1.25265938835954      0.26911112178081
  H   -1.13245540715262      1.06407225309167      1.34122549637184
  H   -2.17534481793927      1.56548145147168     -0.01086337436355
  H   -0.47236448142483      2.05345393049349      0.01982310459491
  N   0.66757954899476     -1.18080199295440      1.08642234192378
  O   0.63883728906233     -2.40810322767012      1.14092371561114
  O   0.73616228412978     -0.41856275020168      2.04986972158109
  C   1.70464575667378      0.47121410185686     -0.43590485055869
  H   1.66429342003749      1.21666510750688      0.35653737911249
  H   1.60486123596185      0.96023954976110     -1.40566125454972
  H   2.67778547246626     -0.02193728029770     -0.39680497172209
