12

C	0.0	0.0	0.0
C	-0.284718	-0.082427	-1.507958
Cl	1.77693	0.0	0.0
H	0.103851	0.834876	-1.958614
H	-1.351851	-0.169292	-1.67932
H	0.243807	-0.938356	-1.925097
C	-0.710293	1.104543	0.639802
N	-0.684792	2.180642	1.151927
N	-0.378823	-1.29057	0.709994
O	-0.445033	-1.241973	1.934661
O	-0.404018	-2.320496	0.038433
H	-2.1514	0.0	0.0
