12

C	0.0	0.0	0.0
C	-0.285568	-0.074217	-1.511291
Cl	1.76152	0.0	0.0
H	0.098446	0.850245	-1.951301
H	-1.35171	-0.163099	-1.688082
H	0.244384	-0.923429	-1.93917
C	-0.797665	1.060258	0.633145
N	-0.789649	2.132253	1.161587
N	-0.365595	-1.318306	0.685734
O	-0.442742	-1.294426	1.909121
O	-0.392729	-2.333917	-0.005635
H	-2.132693	0.0	0.0
