16

C	-0.569007	0.099533	-1.412723
C	0.0	0.0	0.0
Br	-0.407698	-1.596689	-2.399079
H	1.095211	0.0	0.0
H	-1.65118	0.273371	-1.370512
C	0.134118	1.186576	-2.206465
H	-0.028113	2.139436	-1.698775
H	-0.246091	1.243734	-3.229574
H	1.207421	0.980956	-2.218706
N	-0.423739	-1.197936	0.70288
H	-1.317768	-1.05944	1.16194
H	0.27505	-1.40504	1.406602
N	-0.351828	1.28047	0.653639
H	-1.143988	1.144947	1.27264
H	0.44739	1.547664	1.221778
H	2.9491	0.0	0.0
