16

C	-0.577604	-0.009028	-1.407596
C	0.0	0.0	0.0
Br	-0.09378	1.639891	-2.389845
H	1.100013	0.0	0.0
H	-0.064245	-0.799608	-1.956632
C	-2.083847	-0.17715	-1.463429
H	-2.333165	-1.122731	-0.975885
H	-2.579383	0.636842	-0.932116
H	-2.443648	-0.201679	-2.49455
N	-0.378607	-1.279925	0.605781
H	-1.130348	-1.10632	1.2637
H	0.432446	-1.618401	1.113548
N	-0.543184	1.112383	0.79799
H	0.083386	1.189657	1.598003
H	-0.389683	1.967228	0.269205
H	2.964056	0.0	0.0
