16

C	-0.593747	-0.020106	-1.402291
C	0.0	0.0	0.0
Br	0.088688	1.488706	-2.451275
H	1.098257	0.0	0.0
H	-0.217644	-0.898525	-1.934825
C	-2.109308	0.028441	-1.412245
H	-2.439536	0.961401	-0.952381
H	-2.494703	-0.809802	-0.826623
H	-2.505091	-0.021762	-2.429504
N	-0.446364	-1.255051	0.667527
H	-0.075757	-2.026265	0.112013
H	0.110681	-1.288838	1.521347
N	-0.465621	1.146629	0.758042
H	0.313404	1.49648	1.304458
H	-1.206927	0.852535	1.383679
H	2.960623	0.0	0.0
