16

C	-0.370046	0.004127	-1.46059
C	0.0	0.0	0.0
Br	-2.341377	0.09979	-1.748956
H	1.104774	0.0	0.0
H	-0.008688	0.94697	-1.872336
C	0.200603	-1.177228	-2.215936
H	0.06304	-1.066163	-3.294092
H	-0.27884	-2.108992	-1.907769
H	1.271765	-1.218887	-1.982645
N	-0.488626	-1.217822	0.683804
H	0.053858	-1.996529	0.316579
H	-0.159659	-1.12271	1.642819
N	-0.452839	1.202963	0.658011
H	0.172563	1.39876	1.431942
H	-1.39108	1.053657	1.014578
H	2.941237	0.0	0.0
