16

C	-0.504782	0.083647	-1.438361
C	0.0	0.0	0.0
Br	-0.22243	-1.598448	-2.413497
H	1.096323	0.0	0.0
H	-1.596253	0.202144	-1.451362
C	0.187272	1.194627	-2.212231
H	1.26773	1.067476	-2.116577
H	-0.098256	1.184098	-3.26618
H	-0.08117	2.168012	-1.792762
N	-0.494432	-1.18124	0.686268
H	0.179213	-1.383333	1.420492
H	-1.359464	-0.928401	1.151234
N	-0.365153	1.244791	0.708807
H	0.460252	1.831485	0.743006
H	-1.098532	1.754223	0.233615
H	2.965677	0.0	0.0
