16

C	-0.58091	0.015237	-1.406267
C	0.0	0.0	0.0
Br	-0.093442	1.676456	-2.366331
H	1.100292	0.0	0.0
H	-0.071981	-0.768594	-1.968884
C	-2.088383	-0.148814	-1.459936
H	-2.580306	0.658748	-0.915389
H	-2.338603	-1.101215	-0.984899
H	-2.45231	-0.157026	-2.489886
N	-0.379968	-1.289494	0.58425
H	-1.130712	-1.123874	1.247445
H	0.431975	-1.637703	1.086
N	-0.539901	1.099797	0.818832
H	0.08873	1.162646	1.617367
H	-0.387371	1.963203	0.304253
H	2.96374	0.0	0.0
