16

C	-0.348196	0.097669	-1.464008
C	0.0	0.0	0.0
Br	-2.330472	0.2852	-1.746192
H	1.106636	0.0	0.0
H	0.043201	1.038634	-1.858231
C	0.16037	-1.082387	-2.254475
H	-0.034207	-0.971527	-3.324074
H	-0.300155	-1.996187	-1.880772
H	1.241377	-1.134754	-2.076315
N	-0.442221	-1.268549	0.572397
H	-1.183557	-1.059056	1.226919
H	0.336119	-1.628386	1.111239
N	-0.414525	1.157177	0.791684
H	-1.095912	1.71586	0.289435
H	0.410243	1.723813	0.95914
H	2.87522	0.0	0.0
