16

C	-0.499945	-0.053634	-1.443515
C	0.0	0.0	0.0
Br	0.061255	1.571982	-2.420146
H	1.101173	0.0	0.0
H	0.03865	-0.854165	-1.955945
C	-2.004865	-0.18013	-1.60536
H	-2.494734	0.621483	-1.054644
H	-2.297741	-0.135941	-2.656027
H	-2.34914	-1.139298	-1.206747
N	-0.341259	-1.212705	0.733323
H	0.396656	-1.89032	0.581053
H	-1.236783	-1.601739	0.469186
N	-0.604188	1.137463	0.703536
H	-0.352161	0.989753	1.674908
H	-0.102996	1.969764	0.405063
H	2.985371	0.0	0.0
