16

C	-0.532179	0.037592	-1.432125
C	0.0	0.0	0.0
Br	-0.029749	1.730012	-2.318306
H	1.099794	0.0	0.0
H	0.006442	-0.72623	-2.00042
C	-2.032819	-0.157082	-1.566186
H	-2.28522	-1.107621	-1.090433
H	-2.335297	-0.171886	-2.61624
H	-2.589897	0.644666	-1.067997
N	-0.431674	-1.30632	0.556025
H	0.412865	-1.868164	0.622164
H	-0.718082	-1.102574	1.505576
N	-0.464801	1.087432	0.853828
H	0.335429	1.690904	1.010809
H	-1.164258	1.646857	0.382077
H	2.926361	0.0	0.0
