17

C	0.0	0.0	0.0
C	-0.227429	-0.051337	-1.533759
Cl	1.867576	0.0	0.0
H	0.451633	-0.804926	-1.947304
H	0.128816	0.914295	-1.912822
N	-0.467599	1.229435	0.535509
H	0.177227	1.99091	0.402303
H	-0.778424	1.155922	1.491145
C	-0.654448	-1.150988	0.712931
H	-0.405096	-2.104222	0.245143
H	-0.365386	-1.178687	1.76768
H	-1.741228	-0.936306	0.60853
C	-1.651344	-0.308181	-2.002875
H	-1.741487	0.012061	-3.048991
H	-2.416616	0.150051	-1.346417
H	-1.874851	-1.378027	-1.965905
F	-3.43573	0.0	0.0
