17

C	0.0	0.0	0.0
C	-0.525827	-0.154206	-1.414499
Cl	1.870965	0.0	0.0
H	-1.6147	-0.227143	-1.206132
H	-0.139001	-1.087873	-1.837894
N	-0.392245	1.272096	0.525684
H	-0.350102	1.268741	1.536887
H	0.197255	2.009761	0.164671
C	-0.545067	-1.098094	0.878289
H	-0.163635	-1.013623	1.902095
H	-0.278057	-2.080441	0.480128
H	-1.640401	-0.916161	0.809052
C	-0.242853	1.024475	-2.332033
H	-0.783624	1.902494	-1.973626
H	0.825252	1.259274	-2.397615
H	-0.60133	0.81228	-3.34392
F	-3.029719	0.0	0.0
