17

C	0.0	0.0	0.0
C	-0.548214	0.180044	-1.398523
Cl	1.866419	0.0	0.0
H	-0.147328	1.114679	-1.812718
H	-1.635114	0.280838	-1.170476
N	-0.364602	1.144272	0.779435
H	0.051913	1.088823	1.700045
H	-0.048592	1.992469	0.326516
C	-0.536221	-1.238393	0.669814
H	-1.634572	-1.079109	0.583927
H	-0.198197	-2.148742	0.170062
H	-0.218321	-1.278093	1.71667
C	-0.282255	-0.978739	-2.347636
H	-0.592131	-0.712747	-3.36229
H	0.776792	-1.254993	-2.379302
H	-0.865216	-1.85263	-2.051659
F	-3.04784	0.0	0.0
