17

C	0.0	0.0	0.0
C	-0.213601	0.085386	-1.545574
Cl	1.807413	0.0	0.0
H	0.268048	1.025359	-1.834121
H	0.398592	-0.714997	-1.975368
N	-0.593509	1.142562	0.631748
H	-1.613645	0.933455	0.462173
H	-0.45324	1.047912	1.635845
C	-0.47363	-1.32449	0.577479
H	-0.155813	-1.412111	1.622509
H	-1.568653	-1.266204	0.516465
H	-0.079092	-2.179378	0.019608
C	-1.591779	0.023696	-2.19024
H	-1.44021	0.102624	-3.276485
H	-2.112329	-0.902661	-1.962641
H	-2.254194	0.806024	-1.838092
F	-3.001606	0.0	0.0
