18

C	0.0	0.0	0.0
C	-0.623029	0.170457	-1.370736
Br	2.02119	0.0	0.0
H	-1.74344	0.17605	-1.037339
N	-0.385897	1.078296	0.85361
H	-0.171604	0.855967	1.815735
H	0.061551	1.940997	0.581241
N	-0.477293	-1.25802	0.478745
H	-1.513245	-1.106311	0.482043
H	-0.17126	-1.382961	1.438724
C	-0.337045	-0.94425	-2.355319
H	-0.476528	-1.896725	-1.847892
H	-1.01664	-0.87707	-3.204733
H	0.696007	-0.884687	-2.716378
N	-0.382741	1.468958	-2.025654
O	-0.8777	1.612119	-3.148835
O	0.252651	2.364772	-1.453694
H	-2.967073	0.0	0.0
