18

C	0.0	0.0	0.0
C	-0.515876	0.128976	-1.438934
Br	2.012089	0.0	0.0
H	-1.613099	0.181844	-1.275753
N	-0.416787	1.173142	0.718665
H	-0.179873	1.047603	1.698467
H	-1.449592	1.134367	0.643738
N	-0.471806	-1.274543	0.470986
H	-0.217664	-1.361581	1.451025
H	-1.50646	-1.143279	0.434623
C	-0.136621	-1.001746	-2.366792
H	0.944622	-1.074928	-2.477334
H	-0.522062	-1.931584	-1.952141
H	-0.581427	-0.835593	-3.351732
N	-0.131546	1.440265	-2.043539
O	-0.904044	2.386067	-1.898373
O	0.919699	1.494579	-2.6877
H	-2.980133	0.0	0.0
