18

C	0.0	0.0	0.0
C	-0.476722	0.065422	-1.466018
Br	2.049993	0.0	0.0
H	-1.542755	0.366514	-1.302736
N	-0.409061	1.137917	0.702433
H	-0.124553	2.006289	0.279131
H	-0.173839	1.063123	1.679873
N	-0.520248	-1.115189	0.700322
H	-0.270245	-1.981207	0.239026
H	-1.560386	-0.949165	0.620828
C	-0.421372	-1.248686	-2.207658
H	-1.180603	-1.904957	-1.782496
H	0.566025	-1.71158	-2.148746
H	-0.663779	-1.094289	-3.259092
N	0.216788	1.138952	-2.232015
O	0.844238	0.836864	-3.25082
O	0.133049	2.294538	-1.805239
H	-3.021276	0.0	0.0
