18

C	0.0	0.0	0.0
C	-0.510825	-0.017897	-1.452688
Br	2.029104	0.0	0.0
H	-1.611841	0.135558	-1.244412
N	-0.529584	1.03311	0.814209
H	-1.564752	0.83391	0.736268
H	-0.375462	1.920723	0.350009
N	-0.403244	-1.229313	0.589955
H	0.197919	-1.997928	0.334258
H	-0.42057	-1.107931	1.593447
C	-0.291031	-1.303977	-2.212551
H	-0.863987	-2.083614	-1.710898
H	0.766413	-1.574819	-2.260938
H	-0.663209	-1.20588	-3.232583
N	-0.004722	1.146499	-2.220445
O	0.576178	0.94803	-3.292481
O	-0.20208	2.275787	-1.758805
H	-2.992534	0.0	0.0
