15

C	-0.087588	-0.023116	-0.002856
C	-0.405979	-0.318511	-1.471807
Br	1.921052	0.398599	0.048395
H	0.462882	-0.798713	-1.935319
H	-0.56829	0.890865	0.317095
C	-0.298013	-1.049798	0.999847
N	-0.332364	-1.813605	1.892732
C	-0.791789	0.961752	-2.177414
H	-0.927387	0.803947	-3.247376
H	-1.723896	1.280432	-1.713218
H	-0.004448	1.704032	-2.022449
N	-1.477182	-1.365768	-1.643601
O	-1.295396	-2.426436	-1.054791
O	-2.35375	-1.167441	-2.475388
F	-2.350618	0.152818	0.072541
