15

C	-0.095082	-0.013922	0.003624
C	-0.417005	-0.074894	-1.492793
Br	1.910312	0.410791	0.11637
H	0.453919	-0.467781	-2.028993
H	-0.582395	0.833452	0.465536
C	-0.293638	-1.18877	0.83078
N	-0.317594	-2.08638	1.589426
C	-0.81535	1.29785	-1.985257
H	-0.032682	2.012419	-1.717366
H	-0.95414	1.310434	-3.066339
H	-1.747808	1.532103	-1.473961
N	-1.480366	-1.090591	-1.826237
O	-2.3625	-0.769713	-2.612638
O	-1.287152	-2.230038	-1.414967
F	-2.358992	0.128588	0.112449
