15

C	-0.092244	-0.015685	-0.002511
C	-0.410994	0.190825	-1.486517
Br	1.910008	0.392656	0.190329
H	0.462856	-0.095697	-2.082032
H	-0.585591	0.732261	0.602569
C	-0.285725	-1.320778	0.600136
N	-0.307126	-2.339732	1.185864
C	-0.815396	1.627758	-1.726266
H	-0.952744	1.832804	-2.787984
H	-1.749777	1.762187	-1.183435
H	-0.036655	2.286461	-1.333093
N	-1.468858	-0.753527	-1.999142
O	-1.270977	-1.947295	-1.797684
O	-2.351037	-0.301067	-2.717864
F	-2.35785	0.095692	0.123978
