18

C	-0.321028	-0.094318	-1.495864
C	0.0	0.0	0.0
Br	0.197134	1.730865	-2.304061
H	1.094268	0.0	0.0
C	0.631589	-1.077947	-2.153369
H	0.622401	-0.977002	-3.241803
H	1.627241	-0.875421	-1.740277
H	0.319018	-2.093082	-1.894525
N	-1.688246	-0.367441	-1.768885
H	-2.278559	0.338222	-1.34268
H	-1.861945	-0.37192	-2.766677
C	-0.386861	-1.290896	0.739425
H	-1.442391	-1.551209	0.627284
H	0.233742	-2.108309	0.370217
H	-0.154368	-1.166461	1.799882
C	-0.636044	1.136209	0.633728
N	-1.207304	2.012618	1.172717
F	2.609463	0.0	0.0
