18

C	-0.312247	-0.039306	-1.502352
C	0.0	0.0	0.0
Br	0.044689	1.763652	-2.258334
H	1.096033	0.0	0.0
C	0.695803	-0.971637	-2.174663
H	0.680565	-0.849125	-3.260545
H	0.42682	-2.00946	-1.944115
H	1.683865	-0.753476	-1.750827
N	-1.715805	-0.300568	-1.777635
H	-1.847046	-0.37256	-2.781944
H	-1.942964	-1.204667	-1.374484
C	-0.373158	-1.307809	0.714256
H	-1.447846	-1.52211	0.721464
H	0.172119	-2.140258	0.267033
H	-0.039107	-1.233161	1.751291
C	-0.602811	1.120016	0.695442
N	-1.077661	1.986317	1.334237
F	2.622488	0.0	0.0
