18

C	-0.15564	-0.112078	-1.550763
C	0.0	0.0	0.0
Br	0.005731	-2.065205	-2.023592
H	1.09486	0.0	0.0
C	-1.49038	0.328516	-2.120274
H	-1.638307	1.392022	-1.90993
H	-2.312541	-0.230961	-1.672183
H	-1.498565	0.171226	-3.200355
N	0.939393	0.552669	-2.196615
H	1.772932	0.428002	-1.589615
H	0.722712	1.542328	-2.252194
C	-0.629623	-1.047889	0.905564
H	-0.093574	-1.988781	0.799792
H	-1.687313	-1.218378	0.681484
H	-0.547693	-0.726616	1.946258
C	-0.436748	1.340091	0.361369
N	-0.802375	2.422243	0.64699
F	2.638256	0.0	0.0
