18

C	-0.324768	-0.117498	-1.493164
C	0.0	0.0	0.0
Br	0.187056	1.695687	-2.331481
H	1.094278	0.0	0.0
C	0.627708	-1.108181	-2.140816
H	0.318984	-2.12163	-1.866681
H	0.612059	-1.021477	-3.229826
H	1.624778	-0.898014	-1.737312
N	-1.691936	-0.398581	-1.756078
H	-2.283703	0.308649	-1.33345
H	-1.8704	-0.415237	-2.753562
C	-0.383732	-1.279312	0.760733
H	-0.142021	-1.139191	1.817423
H	0.232846	-2.103407	0.398774
H	-1.44092	-1.54007	0.661036
C	-0.635835	1.145322	0.617789
N	-1.20635	2.035907	1.134863
F	2.609577	0.0	0.0
