18

C	-0.336359	-0.107258	-1.50389
C	0.0	0.0	0.0
Br	0.078098	1.660888	-2.311821
H	1.095164	0.0	0.0
C	0.61735	-1.110253	-2.134876
H	1.61468	-0.906534	-1.728187
H	0.588758	-1.033419	-3.22224
H	0.317038	-2.127158	-1.85526
N	-1.714533	-0.386281	-1.869282
H	-2.326375	0.246597	-1.362211
H	-1.92714	-1.333121	-1.570312
C	-0.37818	-1.278963	0.760875
H	0.215342	-2.113419	0.38478
H	-1.445171	-1.525719	0.706451
H	-0.112219	-1.148897	1.812263
C	-0.632424	1.136073	0.636913
N	-1.196162	2.000633	1.202644
F	2.610512	0.0	0.0
