18

C	-0.156299	0.042318	-1.554803
C	0.0	0.0	0.0
Br	-0.023467	-1.858347	-2.217781
H	1.096895	0.0	0.0
C	-1.483485	0.559106	-2.079426
H	-1.612746	1.600304	-1.766344
H	-1.492133	0.509376	-3.168875
H	-2.31893	-0.026324	-1.688245
N	0.949558	0.751268	-2.135122
H	1.779843	0.559769	-1.540891
H	0.743741	1.745704	-2.091935
C	-0.63108	-1.129715	0.799398
H	-0.102414	-2.059926	0.594008
H	-0.537136	-0.914836	1.868004
H	-1.69407	-1.268317	0.568655
C	-0.432406	1.298673	0.493534
N	-0.793506	2.348019	0.887102
F	2.638627	0.0	0.0
