18

C	-0.166128	-0.055994	-1.554419
C	0.0	0.0	0.0
Br	-0.206947	-2.036837	-2.079849
H	1.094909	0.0	0.0
C	-1.465463	0.499445	-2.109382
H	-1.526077	1.568218	-1.881288
H	-2.327082	-0.000729	-1.663867
H	-1.495674	0.359294	-3.190912
N	0.97191	0.520352	-2.177277
H	1.79341	0.419859	-1.548596
H	0.799525	1.488697	-2.412261
C	-0.627532	-1.067731	0.882498
H	-1.69188	-1.218404	0.670447
H	-0.522768	-0.776653	1.931154
H	-0.104544	-2.011363	0.738826
C	-0.419742	1.332471	0.41021
N	-0.769533	2.408446	0.735738
F	2.646646	0.0	0.0
