18

C	-0.360162	0.026539	-1.500071
C	0.0	0.0	0.0
Cl	0.140388	-1.585374	-2.180771
H	1.101615	0.0	0.0
C	-1.842541	0.174911	-1.778974
H	-2.396251	-0.595241	-1.239365
H	-2.18031	1.156696	-1.434356
H	-2.048873	0.085905	-2.848808
C	0.528567	1.070037	-2.157498
H	0.205341	2.069074	-1.846291
H	1.547393	0.89775	-1.797258
H	0.473898	1.006284	-3.246254
N	-0.606337	-1.150266	0.702751
H	-0.019335	-1.941962	0.452942
H	-0.443116	-1.001095	1.695656
C	-0.482083	1.233379	0.606472
N	-0.86437	2.226854	1.10801
F	2.63152	0.0	0.0
