18

C	-0.362326	-0.007097	-1.499914
C	0.0	0.0	0.0
Cl	0.169731	-1.612614	-2.150207
H	1.094676	0.0	0.0
C	-1.850313	0.105127	-1.765214
H	-2.374276	-0.679024	-1.211609
H	-2.211106	1.083635	-1.429001
H	-2.06651	-0.003224	-2.832404
C	0.497427	1.050367	-2.174636
H	1.52437	0.89891	-1.825676
H	0.160974	2.048794	-1.871291
H	0.433844	0.973618	-3.261985
N	-0.551297	-1.158558	0.7241
H	0.250607	-1.729687	0.975903
H	-0.98861	-0.857824	1.587364
C	-0.466636	1.246428	0.587484
N	-0.865998	2.239923	1.077113
F	2.611404	0.0	0.0
