18

C	-0.361752	0.019828	-1.497906
C	0.0	0.0	0.0
Cl	0.157707	-1.584654	-2.179874
H	1.101592	0.0	0.0
C	-1.845401	0.149213	-1.774288
H	-2.387276	-0.629202	-1.236527
H	-2.194507	1.124488	-1.425212
H	-2.052437	0.061304	-2.844034
C	0.513873	1.072387	-2.15714
H	1.535322	0.910268	-1.799359
H	0.181327	2.068253	-1.846425
H	0.457688	1.00613	-3.245829
N	-0.601541	-1.14966	0.711505
H	-0.020228	-1.941917	0.451617
H	-0.418949	-0.999156	1.700338
C	-0.485363	1.234079	0.602748
N	-0.866325	2.229895	1.100394
F	2.631742	0.0	0.0
