14

C	-0.455967	-0.076752	-1.474707
C	0.0	0.0	0.0
Br	-0.06214	1.616398	-2.36539
H	1.097204	0.0	0.0
H	-1.542697	-0.174217	-1.528597
C	0.259201	-1.210534	-2.187636
H	1.338678	-1.078298	-2.087687
H	-0.015445	-1.232772	-3.243572
H	-0.020709	-2.165835	-1.733723
C	-0.455141	-1.215395	0.681796
N	-0.826524	-2.209537	1.18617
C	-0.52349	1.167105	0.706189
N	-0.969811	2.088452	1.282029
Cl	3.21036	0.0	0.0
