14

C	-0.335056	-0.005959	-1.496688
C	0.0	0.0	0.0
Br	-2.277029	-0.05181	-1.801066
H	1.099319	0.0	0.0
H	0.038023	-0.945662	-1.90776
C	0.29031	1.180802	-2.200471
H	1.365584	1.165581	-1.9932
H	0.121763	1.118146	-3.277566
H	-0.133275	2.118016	-1.833159
C	-0.482533	-1.196448	0.683606
N	-0.851473	-2.173426	1.221051
C	-0.480267	1.208488	0.66545
N	-0.845188	2.194088	1.189754
Cl	3.197222	0.0	0.0
