14

C	-0.328129	-0.002131	-1.49874
C	0.0	0.0	0.0
Br	-2.266582	-0.070024	-1.818984
H	1.099269	0.0	0.0
H	0.057685	-0.93661	-1.909848
C	0.290891	1.193024	-2.19405
H	0.138367	1.12904	-3.273105
H	1.36293	1.192122	-1.972118
H	-0.150164	2.124528	-1.832548
C	-0.481633	-1.198089	0.680478
N	-0.851934	-2.173214	1.220134
C	-0.483203	1.206244	0.666546
N	-0.854577	2.189341	1.19109
Cl	3.191622	0.0	0.0
