14

C	-0.327042	-0.001652	-1.498974
C	0.0	0.0	0.0
Br	-2.265329	-0.067489	-1.820114
H	1.099295	0.0	0.0
H	0.059083	-0.93562	-1.910722
C	0.292731	1.194577	-2.192215
H	1.363888	1.194629	-1.967473
H	-0.150071	2.125177	-1.831659
H	0.143611	1.131251	-3.271391
C	-0.482357	-1.198367	0.679886
N	-0.855535	-2.174097	1.216688
C	-0.48407	1.20582	0.667044
N	-0.85895	2.184113	1.198056
Cl	3.189771	0.0	0.0
