14

C	-0.326912	-0.00191	-1.498996
C	0.0	0.0	0.0
Br	-2.265141	-0.067735	-1.821125
H	1.099334	0.0	0.0
H	0.059788	-0.936347	-1.90936
C	0.294054	1.193306	-2.1929
H	1.36509	1.193879	-1.965496
H	0.147398	1.128208	-3.272725
H	-0.150274	2.124507	-1.834707
C	-0.482019	-1.198097	0.680307
N	-0.854313	-2.172404	1.22028
C	-0.483932	1.206276	0.666144
N	-0.857529	2.18799	1.191851
Cl	3.188855	0.0	0.0
