13

C	0.0	0.0	0.0
C	-0.536448	0.313953	-1.388817
Cl	1.767894	0.0	0.0
H	-1.638737	0.2885	-1.298668
H	-0.20667	-0.471383	-2.070568
C	-0.435335	0.949126	1.020743
N	-0.620817	1.773162	1.838017
N	-0.421562	-1.420009	0.408136
O	-0.531647	-1.630019	1.604968
O	-0.50856	-2.235156	-0.49816
C	-0.078552	1.616642	-1.84701
N	0.28494	2.665149	-2.228945
Br	-3.550123	0.0	0.0
