14

C	-0.540685	0.035296	-1.400169
C	0.0	0.0	0.0
Cl	0.118714	-1.379495	-2.264212
H	1.10749	0.0	0.0
H	-0.291028	-0.934727	0.481601
C	-1.997888	-0.008216	-1.508448
N	-3.166501	-0.131894	-1.559331
N	-0.058708	1.266663	-2.19868
O	-0.728801	1.540892	-3.189152
O	0.957025	1.814323	-1.819633
N	-0.550273	1.090079	0.797281
O	-1.055133	2.051725	0.202606
O	-0.440605	1.008598	2.019413
F	2.465246	0.0	0.0
