14

C	-0.434195	-0.050195	-1.431179
C	0.0	0.0	0.0
Cl	-0.096311	1.543137	-2.160965
H	1.108176	0.0	0.0
H	-0.36764	0.891691	0.501031
C	0.230923	-1.073356	-2.231902
N	0.768639	-1.854626	-2.925069
N	-1.964178	-0.238555	-1.589848
O	-2.363043	-0.812978	-2.593837
O	-2.655441	0.258086	-0.712507
N	-0.498695	-1.15908	0.727316
O	-0.502098	-1.100126	1.955043
O	-0.856866	-2.147092	0.072453
F	2.463405	0.0	0.0
