14

C	-0.574059	-0.174587	-1.381068
C	0.0	0.0	0.0
Cl	-2.361491	-0.259619	-1.402974
H	1.089806	0.0	0.0
H	-0.345469	0.949705	0.407832
C	-0.176785	0.962736	-2.208949
N	0.073888	1.891612	-2.882656
N	-0.000582	-1.433347	-2.100913
O	1.195721	-1.347265	-2.319393
O	-0.747653	-2.353489	-2.379051
N	-0.465985	-1.045972	0.906779
O	-0.494223	-2.200062	0.476759
O	-0.749857	-0.72302	2.061001
F	2.463778	0.0	0.0
