14

C	-0.494087	-0.164281	-1.408355
C	0.0	0.0	0.0
Cl	0.238838	-1.654443	-2.054192
H	1.108142	0.0	0.0
H	-0.276998	-0.877137	0.587448
C	-1.943057	-0.268946	-1.57801
N	-3.102979	-0.432235	-1.674009
N	-0.008329	0.977302	-2.330833
O	0.854086	1.720453	-1.900962
O	-0.522597	1.000267	-3.444135
N	-0.604452	1.158056	0.647285
O	-1.237721	1.960159	-0.052859
O	-0.434195	1.277146	1.858913
F	2.464869	0.0	0.0
