14

C	-0.503521	-0.04249	-1.408985
C	0.0	0.0	0.0
Cl	-2.276213	0.194322	-1.553335
H	1.108106	0.0	0.0
H	-0.283946	0.951426	0.450507
C	0.150332	1.012433	-2.183975
N	0.620425	1.874257	-2.829689
N	-0.115998	-1.366582	-2.141043
O	0.973257	-1.814971	-1.839267
O	-0.88247	-1.781939	-2.996091
N	-0.578858	-1.050857	0.824763
O	-0.964839	-2.090385	0.278914
O	-0.619636	-0.848061	2.038175
F	2.455137	0.0	0.0
