14

C	-0.610104	0.000231	-1.389915
C	0.0	0.0	0.0
F	-0.246231	1.113889	-2.124668
H	1.09389	0.0	0.0
H	-1.705978	0.017193	-1.300557
C	-0.249205	-1.20131	-2.167233
N	-0.015189	-2.119903	-2.859135
N	-0.39497	-1.267624	0.620849
H	-1.13435	-1.128035	1.29916
H	0.419024	-1.633001	1.1053
N	-0.39908	1.221988	0.682557
H	-1.199669	1.067235	1.28525
H	0.385409	1.518259	1.25345
H	2.839534	0.0	0.0
