14

C	-0.474119	0.089377	-1.430139
C	0.0	0.0	0.0
F	-1.860408	-0.074247	-1.537935
H	1.106405	0.0	0.0
H	-0.000691	-0.722576	-1.985098
C	-0.14776	1.377476	-2.069924
N	0.095202	2.399087	-2.595152
N	-0.413955	-1.291166	0.520254
H	-1.281778	-1.162112	1.026354
H	0.302561	-1.601578	1.166598
N	-0.529208	1.107577	0.816659
H	0.13367	1.206217	1.583626
H	-0.442079	1.974076	0.294311
H	2.878931	0.0	0.0
