14

C	-0.509048	0.009931	-1.427918
C	0.0	0.0	0.0
F	-0.275227	-1.209014	-2.064648
H	1.100842	0.0	0.0
H	0.027603	0.788057	-1.974509
C	-1.961333	0.271625	-1.492462
N	-3.11636	0.474571	-1.543987
N	-0.558296	-1.159157	0.708751
H	0.046928	-1.303383	1.513858
H	-0.402796	-1.972972	0.120787
N	-0.419529	1.256485	0.593189
H	0.322788	1.583275	1.198636
H	-1.258371	1.095791	1.139092
H	2.906534	0.0	0.0
