14

C	-0.618461	-0.002692	-1.383112
C	0.0	0.0	0.0
F	-0.345734	1.178114	-2.079074
H	1.100031	0.0	0.0
H	-1.708315	-0.059697	-1.276004
C	-0.166861	-1.139874	-2.195391
N	0.141252	-2.027375	-2.899624
N	-0.447607	-1.228585	0.64022
H	0.347007	-1.641698	1.115999
H	-1.156888	-0.990707	1.324274
N	-0.506087	1.183881	0.71553
H	-0.42813	1.972898	0.079424
H	0.191359	1.370419	1.432144
H	2.893	0.0	0.0
