14

C	-0.406697	-0.067488	-1.454211
C	0.0	0.0	0.0
F	-1.748378	-0.482353	-1.604261
H	1.095623	0.0	0.0
H	0.212002	-0.816244	-1.960426
C	-0.275088	1.217277	-2.154475
N	-0.183662	2.215362	-2.763816
N	-0.390664	-1.233474	0.689015
H	-1.037632	-1.781466	0.140019
H	0.451033	-1.777501	0.844408
N	-0.503891	1.208602	0.633267
H	0.224378	1.534872	1.25943
H	-1.297736	0.950625	1.208988
H	2.839165	0.0	0.0
