15

C	-0.084222	-0.060311	-1.536061
C	0.0	0.0	0.0
Cl	-0.131721	1.759528	-2.21831
H	1.09538	0.0	0.0
H	-0.339005	-0.982404	0.348756
N	1.034955	-0.758858	-1.973284
H	1.880682	-0.508247	-1.392181
H	1.172971	-0.749794	-2.973693
C	-1.337432	-0.5859	-2.092099
N	-2.337539	-1.055709	-2.49434
C	-0.704864	1.124596	0.723347
H	-1.762795	1.204112	0.44916
H	-0.649763	0.944454	1.801016
H	-0.225699	2.081104	0.520245
F	2.75008	0.0	0.0
