15

C	-0.084545	0.049036	-1.523887
C	0.0	0.0	0.0
Cl	-1.681851	0.740788	-2.111695
H	1.096618	0.0	0.0
H	-0.32983	0.979856	0.364659
N	1.003297	0.832473	-2.092944
H	0.823334	1.798104	-1.827236
H	1.832385	0.547722	-1.517027
C	-0.024875	-1.30541	-2.099586
N	0.015374	-2.395809	-2.53419
C	-0.699058	-1.144104	0.700363
H	-1.774705	-1.167452	0.489089
H	-0.270007	-2.102502	0.399343
H	-0.568819	-1.053234	1.782522
F	2.717726	0.0	0.0
