15

C	-0.092524	-0.032428	-1.524471
C	0.0	0.0	0.0
Cl	-1.679586	0.66065	-2.138299
H	1.094356	0.0	0.0
H	-0.326676	0.998287	0.314068
N	1.007263	0.696041	-2.140308
H	1.832078	0.446885	-1.541359
H	0.836498	1.680411	-1.950851
C	-0.066948	-1.41672	-2.029989
N	-0.036269	-2.520018	-2.431658
C	-0.698575	-1.103183	0.76352
H	-1.776377	-1.130061	0.565953
H	-0.555505	-0.958965	1.837962
H	-0.278926	-2.078318	0.507158
F	2.720234	0.0	0.0
