15

C	-0.058558	-0.30013	-1.514183
C	0.0	0.0	0.0
Cl	-0.388457	1.44427	-2.495712
H	1.093612	0.0	0.0
H	-0.347799	-0.911005	0.499118
N	1.132837	-0.867797	-1.86561
H	1.972516	-0.551755	-1.2778
H	1.25764	-1.106641	-2.838571
C	-1.226072	-1.03474	-2.010138
N	-2.147596	-1.684961	-2.343191
C	-0.685038	1.235345	0.539792
H	-0.212218	2.138071	0.154294
H	-1.75022	1.271375	0.286075
H	-0.591766	1.241921	1.630255
F	2.78575	0.0	0.0
