15

C	-0.091201	-0.161043	-1.530451
C	0.0	0.0	0.0
Cl	-0.23147	1.607618	-2.334133
H	1.090471	0.0	0.0
H	-0.340984	-0.955011	0.416085
N	1.050717	-0.837748	-1.932041
H	1.893281	-0.547496	-1.361789
H	1.183433	-0.895785	-2.930672
C	-1.326345	-0.774502	-2.036252
N	-2.312249	-1.310336	-2.387985
C	-0.696525	1.173445	0.651601
H	-0.209001	2.111107	0.387825
H	-0.641904	1.060733	1.738505
H	-1.753007	1.244515	0.371491
F	2.756557	0.0	0.0
