14

C	-0.376139	-0.08083	-1.474093
C	0.0	0.0	0.0
Br	-0.020981	1.843727	-2.172864
H	1.088705	0.0	0.0
H	-0.44097	0.861633	0.489565
N	0.388386	-1.062201	-2.106281
H	0.268025	-1.081015	-3.108286
H	1.370715	-1.011277	-1.835623
C	-1.806025	-0.251336	-1.732759
N	-2.95404	-0.387115	-1.948387
N	-0.507223	-1.210767	0.70463
O	-1.599612	-1.100572	1.275053
O	0.178525	-2.22811	0.673049
Br	3.492736	0.0	0.0
