14

C	-0.579512	0.039076	-1.405518
C	0.0	0.0	0.0
Br	-0.009734	-1.724712	-2.227434
H	1.088335	0.0	0.0
H	-0.383567	-0.873657	0.526221
N	-1.988388	0.193138	-1.362745
H	-2.40162	0.170406	-2.286957
H	-2.414076	-0.509929	-0.772286
C	-0.011452	1.064853	-2.281169
N	0.38384	1.84634	-3.063322
N	-0.495151	1.190016	0.74135
O	-0.113085	2.290369	0.353781
O	-1.268033	0.991161	1.683131
Br	3.442865	0.0	0.0
