14

C	-0.612109	-0.00276	-1.398648
C	0.0	0.0	0.0
Br	-0.088435	-1.753577	-2.14678
H	1.090435	0.0	0.0
H	-0.344323	-0.871987	0.557635
N	-2.057206	0.075859	-1.471785
H	-2.4571	-0.619511	-0.849833
H	-2.336221	1.000808	-1.161112
C	-0.052568	1.025194	-2.280361
N	0.328575	1.839153	-3.037513
N	-0.448204	1.182952	0.785163
O	-0.377497	1.090603	2.004679
O	-0.84457	2.178047	0.175816
Br	3.402393	0.0	0.0
