11
Coordinates from ORCA-job run
  C   0.42337610059951      0.72166554815202     -0.12488312535183
  C   -0.67283770680688      0.15388219501506      0.77073889996322
  Br  -0.27747279416865      1.67447875547914     -1.62863687839590
  H   -1.30209260887876      0.97348085285604      1.12552425792121
  H   1.06539067022470      1.39496748259892      0.44123455487731
  H   -0.19896568519653     -0.31644648517133      1.63679546765886
  N   1.32663880852618     -0.42986689674957     -0.53814749715631
  O   1.97726362414692     -0.87921848550204      0.40195870013920
  O   1.31957599083316     -0.83424294067954     -1.68888645494200
  C   -1.49983142752162     -0.82911523365957      0.07512771093535
  N   -2.16104497175803     -1.62858479233914     -0.47282563564912
