11
Coordinates from ORCA-job run
  C   0.46565004584168      0.62823902049813      0.05761604295183
  C   -1.00455458293441      0.25104998037419      0.10567157393866
  Br  0.72052244450446      2.26751199918637     -0.92385837275796
  H   -1.37318223690586      0.09770461407466     -0.90983430788260
  H   0.91231012675793      0.75336607707582      1.04178990943745
  H   -1.56841789282424      1.06828705973170      0.56147073862781
  N   1.26092272980896     -0.46007762778441     -0.62095252312268
  O   0.74092670026390     -1.00893576776685     -1.58530330552208
  O   2.36973213788842     -0.68748061690045     -0.15041252561245
  C   -1.19046842996044     -0.96987698205967      0.88908374206526
  N   -1.33444104244041     -1.93978775642951      1.53372902787674
