11
Coordinates from ORCA-job run
  C   0.34189581340764      0.68463437868038     -0.17114833779898
  C   -1.02790163756552      0.10729181958785      0.13999680351478
  Br  0.23158872158190      1.98036586162487     -1.59386534640707
  H   -1.70553955811615      0.92098975047626      0.40894487878407
  H   0.81392035779101      1.16386763755405      0.68396121032443
  H   -1.42029533048089     -0.39328067401914     -0.74659973322564
  N   1.28329187152037     -0.41422504719571     -0.59998139884358
  O   0.82219244830696     -1.28951785003881     -1.32292518094319
  O   2.43562490175373     -0.32445601014694     -0.19163989587806
  C   -0.93655959576306     -0.84301192670959      1.24791883206445
  N   -0.83821799243600     -1.59265793981323      2.14533816840880
