11
Coordinates from ORCA-job run
  C   0.35666476044068      0.51662853070819      0.01759347955083
  C   -0.69016326834480     -0.58233656243903      0.11752177485272
  Br  -0.15988592638126      1.89777399058474     -1.22071943234170
  H   -0.29132563531332     -1.39497803950412      0.73455803958831
  H   0.57425497530079      0.99075376011848      0.97246070908076
  H   -0.89101526950754     -0.98701754717421     -0.87582808638280
  N   1.65639667499461     -0.08492631188687     -0.45142683087109
  O   2.67271758969821      0.33133791566302      0.09412824865034
  O   1.59052486318585     -0.93319528751582     -1.33423725076272
  C   -1.91876885734098     -0.07872784572894      0.72288564053673
  N   -2.90039990673225      0.32568739717457      1.22206370809862
