11
Coordinates from ORCA-job run
  C   0.52631025254100      0.54225484010805      0.20547721271059
  C   -0.95915806335956      0.24979612587246      0.32274692115111
  Br  0.82888426715317      2.40738808982155     -0.17726788705905
  H   -1.45157863021123      0.48823436514911     -0.62128469258353
  H   1.08976425383394      0.28818548400477      1.10079012069285
  H   -1.38619946390266      0.87884632063760      1.10733129704953
  N   1.13084228801285     -0.27548372317458     -0.90957016499929
  O   2.25277414142274     -0.72288933537592     -0.70042251474606
  O   0.45919256096704     -0.41176652007329     -1.92535385352635
  C   -1.17271013181955     -1.15886744772183      0.65348062435597
  N   -1.31612147463773     -2.28669819924789      0.94407293695424
