11
Coordinates from ORCA-job run
  C   0.44564381310825      0.44116242292918      0.04495774656230
  C   -0.77108927049547     -0.46884068842909      0.11788360261834
  Br  0.07762752004794      2.06491629693454     -0.92235711015565
  H   -1.13398195274420     -0.67360800220227     -0.89068347307126
  H   0.83519429361220      0.71786742439262      1.02247883437083
  H   -0.47220480849842     -1.42297345988755      0.56568168703001
  N   1.56283700754188     -0.29019886474182     -0.65392007013767
  O   1.26036480905162     -0.96154797898084     -1.63418487021100
  O   2.68337716238857     -0.14976966199400     -0.17600355945614
  C   -1.82420515993153      0.13245484549683      0.92956089531307
  N   -2.66256341408083      0.61053766648243      1.59658631713717
