11
Coordinates from ORCA-job run
  C   0.43576169157561      0.71382339341271     -0.12303574473304
  C   -0.69383742005054      0.17219495658258      0.74708622954173
  Br  -0.20716780758687      1.64712860050583     -1.66415779836052
  H   -1.32543585389468      1.00355691793700      1.06880748694617
  H   1.06662386203404      1.39059971526496      0.45129182558756
  H   -0.25181251388560     -0.28822581006621      1.63503073783574
  N   1.33983595686183     -0.45344822302617     -0.48766005893097
  O   1.95688247819241     -0.89187306783328      0.47980673332829
  O   1.36397440109843     -0.87864183198869     -1.63058695427470
  C   -1.50979872688815     -0.81312571510056      0.04168251303056
  N   -2.17402606745650     -1.60098893568817     -0.51926496997081
