11
Coordinates from ORCA-job run
  C   0.24344734297725      0.25616608952053     -0.51861981718542
  C   -0.58804962998722     -0.26286880683702      0.64421236020541
  Br  -0.04393857882944     -0.76411456872611     -2.12641006504166
  H   -0.37382079582849     -1.32119080631588      0.80179548938823
  H   0.05301118702704      1.30195624354940     -0.75094496212640
  H   -0.29917996189787      0.27500514771026      1.55373469853131
  N   1.70399768501721      0.17342016260775     -0.15503205617197
  O   2.40359131820336      1.11433959310140     -0.51397957135626
  O   2.06874346650100     -0.81954441405829      0.46446128593099
  C   -2.01239034036241     -0.06208765742931      0.39861333559231
  N   -3.15641169282043      0.10891901687728      0.20216930223346
