11
Coordinates from ORCA-job run
  C   0.35231791033711      0.49533263296012     -0.16172293344189
  C   -0.69163842570304     -0.51236046255455      0.29474794855475
  Br  -0.10276859252286      1.29258952206348     -1.85424815842635
  H   -0.32265006250396     -1.02084410788467      1.19226847254698
  H   0.51440810258925      1.30016852297861      0.55228039747606
  H   -0.83370881947167     -1.26706257627199     -0.48059739813667
  N   1.67917684976656     -0.20543400989872     -0.30318822145528
  O   1.66803595765616     -1.31998388781793     -0.81370466236909
  O   2.65987865351906      0.40565151631100      0.10754948178303
  C   -1.95557089251232      0.14863674070998      0.60295318870278
  N   -2.96648068115428      0.68430610940462      0.86266188476572
