11
Coordinates from ORCA-job run
  C   0.42873327621708      0.65824249198404      0.02882084718487
  C   -1.02151569700581      0.20675025695301      0.02754500451795
  Br  0.66100536027878      2.21735983057255     -1.07948776102520
  H   -1.65171451458219      1.02751200287732      0.37805825240025
  H   0.80898521705993      0.89026854854194      1.02137568609610
  H   -1.31977207901484     -0.05002846256150     -0.99024540693861
  N   1.31290769450852     -0.44275530352653     -0.50456567184943
  O   0.89230640174330     -1.07547625918821     -1.46575707596775
  O   2.38374646689533     -0.59888001118580      0.07147793210981
  C   -1.19168630203063     -0.95308743288196      0.90198884831956
  N   -1.30299582406945     -1.88090566158489      1.61178934515248
