11
Coordinates from ORCA-job run
  C   0.46848790715191      0.64423723605113     -0.00910074953018
  C   -0.75027698259685      0.09088508612288      0.70853136504216
  Br  0.00110863793083      1.65657073510356     -1.57857809088605
  H   -0.41713208997676     -0.53444155909087      1.54177888472768
  H   1.04117790774712      1.30786882003837      0.63862405987873
  H   -1.30443074389186      0.93777088910057      1.12336745605668
  N   1.43616669708932     -0.45197379343269     -0.40207806764279
  O   1.03418896377543     -1.60918979996591     -0.33609496484876
  O   2.55465027141464     -0.08111738815947     -0.73265780408757
  C   -1.64830524411410     -0.68220489413288     -0.14544879821117
  N   -2.41363532452962     -1.27640533163469     -0.80634329049875
