11
Coordinates from ORCA-job run
  C   0.45478609650934      0.65413470964164     -0.02446910307728
  C   -0.75316647047723      0.09657133623436      0.70804333505737
  Br  -0.03439997641901      1.62856185931850     -1.61072637145318
  H   -0.40936965742484     -0.49909219607745      1.55818486491407
  H   1.01848721723732      1.33954590130030      0.60871833067044
  H   -1.32579666304000      0.94308332843946      1.09762384797202
  N   1.43989252274740     -0.43528508057015     -0.39704836847260
  O   2.53323976475181     -0.05296036989355     -0.79126177864829
  O   1.07706465531520     -1.59769608763462     -0.24710880698185
  C   -1.63063047390746     -0.71886560451108     -0.12784812421460
  N   -2.37010701529255     -1.35899779624742     -0.77510782576607
