14
Coordinates from ORCA-job run
  C   0.37385384921999      0.53056426463905     -0.20592061459500
  C   -1.00813976517245      0.03093666138651      0.24742826586752
  H   0.31430930046890      0.76812862921677     -1.27582889862411
  H   -1.72092962045488      0.86620345562762      0.21372025992430
  H   -0.93033648956154     -0.28579821579682      1.29172395731091
  C   1.46337798930602     -0.51987048294731      0.01428290947117
  H   1.16996948354071     -1.44122772620654     -0.48728022557553
  H   2.42309272728575     -0.18063629579229     -0.37956814226996
  H   1.58281103270185     -0.72176036053790      1.08153573319394
  C   0.69525999900875      1.77593019290210      0.49601850888645
  N   0.94187155518129      2.76051629664286      1.08628107369498
  N   -1.39907886002752     -1.11821721903561     -0.56360261731214
  H   -2.10360070450703     -1.66254223687862     -0.08348191971018
  H   -1.80446049698984     -0.80322696321983     -1.43630829026233
