14
Coordinates from ORCA-job run
  C   0.40966401477203      0.50942791694857     -0.19147113841727
  C   -1.02286392359804      0.07670733714947      0.16300025200102
  H   0.44593536150698      0.71239588358418     -1.26952657233457
  H   -1.04202006487197     -0.20532226491363      1.21988719081158
  H   -1.69739987364391      0.93564621810044      0.04392656920928
  C   1.43593815319320     -0.57204889762461      0.14953815564116
  H   2.43671163213731     -0.28117775719802     -0.17445252602803
  H   1.46063338079729     -0.74201586564445      1.22865140345848
  H   1.14846116093016     -1.49858568609255     -0.34563940472565
  C   0.72248376188429      1.76531396753923      0.49542901978409
  N   0.95977068452580      2.75956076716960      1.07333795189424
  N   -1.39190211661606     -1.08555061961784     -0.63953635234827
  H   -1.71233860739165     -0.78737803449196     -1.55254522099149
  H   -2.15407356362543     -1.58597296490843     -0.20159932795458
