14
Coordinates from ORCA-job run
  C   0.43914419849896      0.31472132814730     -0.25925326281301
  C   -0.82508790833053     -0.53901076394643     -0.11307405067642
  H   0.40208796195354      0.77809261256477     -1.25072392794707
  H   -0.79429079479626     -1.04304692080232      0.86542821535123
  H   -0.78816472901240     -1.31487973238027     -0.88365842322550
  C   1.71803367175489     -0.51165081129256     -0.10706737770049
  H   1.74483169038615     -1.29475035939238     -0.86861460900170
  H   1.75912558775990     -0.98325696975437      0.87727768192367
  H   2.60594142740908      0.11182410746298     -0.22421799183965
  C   0.40045657704548      1.39636883115152      0.72935448843706
  N   0.34326730002375      2.23498349352563      1.54938286511253
  N   -2.01032993707941      0.27889010054292     -0.33908794727928
  H   -2.16730247337346      0.88470426797280      0.45804848384790
  H   -2.82671257223969     -0.31198918379960     -0.43279414418928
