14
Coordinates from ORCA-job run
  C   0.39287482244274      0.53014243707345     -0.30048835818602
  C   -1.04272053466020      0.16920618465184      0.11026186153714
  H   0.40129081684268      0.64972060724193     -1.38923633460790
  H   -1.70936349862161      0.96912692687995     -0.22115718972637
  H   -1.09601194729519      0.13783791805524      1.20797050458870
  C   1.39338218812579     -0.55914283727489      0.09102594671068
  H   1.13978197032292     -1.48580540962832     -0.42555187734315
  H   1.37182272994042     -0.73042024078357      1.17085443681753
  H   2.41012440682019     -0.27819537621707     -0.18823171136111
  C   0.76553702606498      1.81261357672069      0.30303153754384
  N   1.05015434377817      2.83075477414700      0.81415215634455
  N   -1.43830464927157     -1.07688389271537     -0.54087667259411
  H   -2.44088939654596     -1.09841729831932     -0.67082886246621
  H   -1.19667827794336     -1.86953736983157      0.03907456274242
