15

C	-0.655038	-0.068445	-1.349385
C	0.0	0.0	0.0
Br	0.042297	1.557422	-2.357406
H	1.088021	0.0	0.0
H	-0.315774	0.920134	0.49527
N	-0.16521	-1.219046	-2.231175
O	-0.964439	-1.618476	-3.078688
O	0.975021	-1.610504	-2.070565
N	-2.051688	-0.128134	-1.310514
H	-2.431712	0.655354	-0.798387
H	-2.457145	-0.209808	-2.232654
N	-0.477641	-1.105802	0.841612
O	-0.66366	-0.871344	2.038632
O	-0.610359	-2.216363	0.32312
F	2.49954	0.0	0.0
