15

C	-0.125347	-0.182385	-1.502768
C	0.0	0.0	0.0
Br	-1.859994	-1.027288	-2.116206
H	1.091098	0.0	0.0
H	-0.488516	0.892139	0.367265
N	-0.322761	1.268337	-2.127934
O	-1.043337	2.071607	-1.549643
O	0.265072	1.475623	-3.183541
N	0.976422	-0.823724	-2.007271
H	1.102442	-0.697664	-3.000675
H	1.815653	-0.619021	-1.412358
N	-0.480318	-1.141884	0.786167
O	-1.092126	-0.877826	1.826355
O	-0.211676	-2.277259	0.40548
F	2.615901	0.0	0.0
