15

C	-0.177398	-0.131274	-1.499831
C	0.0	0.0	0.0
Br	-1.899657	-0.952889	-2.051103
H	1.103072	0.0	0.0
H	-0.351828	-0.909964	0.485249
N	-0.137747	1.26982	-2.188593
O	0.481057	2.13644	-1.581713
O	-0.561847	1.366295	-3.335219
N	0.910609	-0.898986	-1.937739
H	1.770806	-0.634783	-1.393921
H	1.021267	-0.893053	-2.941974
N	-0.675182	1.127873	0.653472
O	-0.239393	1.462361	1.752708
O	-1.667167	1.622696	0.113688
F	2.629883	0.0	0.0
