15

C	-0.562093	0.015319	-1.403025
C	0.0	0.0	0.0
Br	0.46279	1.143467	-2.628255
H	1.085184	0.0	0.0
H	-0.393996	-0.881501	0.510618
N	-0.347319	-1.416798	-1.986443
O	0.63326	-2.047565	-1.625646
O	-1.195281	-1.804103	-2.790685
N	-1.919682	0.395832	-1.467121
H	-2.44293	-0.067643	-0.732806
H	-2.310083	0.179487	-2.374802
N	-0.539868	1.161402	0.725714
O	-1.454173	0.956224	1.540033
O	-0.060895	2.267964	0.488995
F	2.520474	0.0	0.0
