15

C	-0.457734	0.146605	-1.426569
C	0.0	0.0	0.0
Br	0.275469	1.712687	-2.273891
H	1.102595	0.0	0.0
H	-0.421746	-0.927896	0.375649
N	0.188954	-1.129656	-2.130984
O	1.118626	-1.023878	-2.89689
O	-0.374952	-2.177195	-1.819429
N	-1.852995	0.139259	-1.608835
H	-2.27792	-0.609775	-1.077878
H	-2.124769	0.078154	-2.58373
N	-0.603204	1.057092	0.845464
O	-1.778411	0.896798	1.211051
O	0.089034	2.028011	1.147452
F	2.528711	0.0	0.0
