15

C	-0.1405	0.019743	-1.515632
C	0.0	0.0	0.0
Br	0.145075	-1.76313	-2.234974
H	1.088247	0.0	0.0
H	-0.384437	0.944779	0.39299
N	-1.499667	0.555828	-1.981452
O	-2.246936	-0.106924	-2.684526
O	-1.728815	1.698091	-1.581671
N	0.870625	0.88853	-2.060797
H	1.738351	0.624078	-1.544677
H	0.633718	1.831227	-1.760095
N	-0.722784	-1.078154	0.69357
O	-0.184692	-1.62245	1.654191
O	-1.862769	-1.329664	0.291243
F	2.617648	0.0	0.0
