15

C	-0.083737	0.396643	-1.45847
C	0.0	0.0	0.0
Br	-0.398485	-1.536597	-2.493978
H	1.102248	0.0	0.0
H	-0.480434	-0.93057	0.267724
N	-1.358098	1.060438	-1.940693
O	-2.378042	0.840874	-1.301092
O	-1.269448	1.764149	-2.943048
N	1.027686	1.034295	-1.84498
H	1.884087	0.723967	-1.306118
H	1.085759	1.34466	-2.801062
N	-0.477975	1.059513	0.902595
O	-0.516215	2.219845	0.494904
O	-0.770111	0.707722	2.04534
F	2.630894	0.0	0.0
