15

C	-0.549746	0.156632	-1.39482
C	0.0	0.0	0.0
Br	0.676331	1.327894	-2.478864
H	1.102785	0.0	0.0
H	-0.334051	-0.940007	0.433148
N	-0.468586	-1.190864	-2.124633
O	0.077723	-2.132878	-1.56478
O	-1.0026	-1.230999	-3.228953
N	-1.903466	0.542771	-1.493116
H	-2.161211	0.640187	-2.467431
H	-2.010341	1.428089	-1.011446
N	-0.426978	1.057798	0.909257
O	-0.770934	2.161947	0.461676
O	-0.352404	0.812804	2.112415
F	2.485039	0.0	0.0
