15

C	-0.583511	0.196725	-1.386734
C	0.0	0.0	0.0
Br	0.415348	1.505644	-2.402259
H	1.10344	0.0	0.0
H	-0.335139	-0.956299	0.403468
N	-0.436918	-1.185809	-2.060451
O	0.366921	-1.371147	-2.958237
O	-1.203279	-2.031822	-1.599442
N	-1.989695	0.504894	-1.524561
H	-2.11616	1.442897	-1.163505
H	-2.498	-0.140541	-0.927118
N	-0.45392	1.010877	0.950382
O	-0.417662	0.706212	2.14393
O	-0.798728	2.127576	0.541225
F	2.486223	0.0	0.0
