15

C	-0.417993	0.005045	-1.424957
C	0.0	0.0	0.0
Br	-2.611379	-0.067128	-1.477709
H	1.092452	0.0	0.0
H	-0.398855	0.852493	0.535567
N	-0.261039	1.386931	-2.050249
O	-0.238773	2.356367	-1.304254
O	-0.179792	1.416986	-3.273595
N	0.1438	-0.922639	-2.232393
H	0.277701	-1.812612	-1.773153
H	-0.172555	-0.931514	-3.188552
N	-0.426199	-1.205871	0.703578
O	-0.314958	-2.298864	0.132804
O	-0.803247	-1.082378	1.868575
F	2.472491	0.0	0.0
