15

C	-0.575212	0.051512	-1.394243
C	0.0	0.0	0.0
Br	0.252295	1.342116	-2.582805
H	1.1022	0.0	0.0
H	-0.362593	-0.91563	0.473128
N	-0.193325	-1.371254	-1.964334
O	0.8898	-1.549586	-2.492097
O	-1.048703	-2.236416	-1.760077
N	-1.976464	0.24999	-1.414217
H	-2.342867	0.217839	-2.357341
H	-2.422012	-0.463488	-0.849892
N	-0.501923	1.099681	0.829576
O	-0.377703	2.25139	0.419505
O	-0.9796	0.804536	1.932279
F	2.501596	0.0	0.0
