15

C	-0.432058	0.015407	-1.418872
C	0.0	0.0	0.0
Br	-2.624927	0.003911	-1.450325
H	1.092442	0.0	0.0
H	-0.384987	0.85504	0.541536
N	-0.242281	1.391524	-2.045053
O	-0.153917	2.353237	-1.295368
O	-0.202913	1.425355	-3.269985
N	0.096588	-0.926556	-2.233794
H	-0.235515	-0.935722	-3.185031
H	0.208993	-1.818128	-1.77221
N	-0.428862	-1.201383	0.705939
O	-0.321361	-2.296897	0.139337
O	-0.806342	-1.073292	1.870215
F	2.466735	0.0	0.0
