15

C	-0.066695	0.114552	-1.510947
C	0.0	0.0	0.0
Br	-0.576384	-1.975498	-2.166865
H	1.088982	0.0	0.0
H	-0.498085	-0.852649	0.437754
N	-1.286828	0.766037	-2.125005
O	-2.31804	0.746695	-1.467032
O	-1.147601	1.265945	-3.237756
N	1.08653	0.561695	-2.001617
H	1.15178	0.736294	-2.991417
H	1.938747	0.372193	-1.3764
N	-0.462838	1.228231	0.671986
O	-0.874698	1.103461	1.82416
O	-0.361796	2.299009	0.075477
F	2.655659	0.0	0.0
