13
Coordinates from ORCA-job run
  C   0.86859189892155      0.22877432605551      0.14817121871078
  C   -0.47027534217538      0.22968770088031      0.26268817308659
  H   1.42420645742779      0.99285097264262      0.67593969582064
  C   1.57542788783565     -0.79488931940758     -0.68463668034127
  H   1.58985167008794     -0.52052312324361     -1.74640742891038
  H   1.08667751313921     -1.77023240633782     -0.60112954495834
  H   2.61300553034818     -0.90630782021611     -0.36807685317084
  N   -1.11652024364916      1.23010732478038      1.14480612871874
  O   -2.34928226971995      1.27185867383070      1.11951678354668
  O   -0.40518199661207      1.94535982228549      1.83971315636594
  N   -1.36237752382383     -0.65361653620005     -0.31620423699039
  H   -1.13279004245836     -0.89617549912458     -1.26751165047426
  H   -2.32133353932155     -0.35789411594528     -0.20786876140390
