13
Coordinates from ORCA-job run
  C   0.31627461327091     -0.38288249628003     -0.74028148266663
  C   -0.60638775454035     -0.23841131702940      0.23044004921362
  H   0.03554027364940     -1.07926594005148     -1.52867944189578
  C   1.66572572803764      0.26253419261904     -0.85559166327501
  H   2.39297575031949     -0.20840380226665     -0.18942309464161
  H   1.64374312257479      1.32121138654848     -0.59477528022511
  H   2.02899435711515      0.16588241975064     -1.87980527455864
  N   -0.39585099939406      0.69995311096450      1.34588867097433
  O   0.75601369382745      0.98153855914770      1.66671096247482
  O   -1.41053994356210      1.15370582295991      1.87954452581399
  N   -1.80258540055143     -0.92658433395867      0.37567975548255
  H   -2.53563544197582     -0.34956024298409      0.76221565374264
  H   -2.08726799877107     -1.39871735941995     -0.46892338043915
