13
Coordinates from ORCA-job run
  C   0.31994947014066     -0.34644375109301     -0.75712901137566
  C   -0.60202959294538     -0.25668113051257      0.22104347691023
  H   0.04659443295075     -1.01255403301086     -1.57372072282871
  C   1.65926620366433      0.32341946222936     -0.84849696381646
  H   2.02348453042329      0.26975336497676     -1.87549045120614
  H   2.39366863460192     -0.16080484822962     -0.19989426122718
  H   1.62213999532611      1.37126888052082     -0.54851185286057
  N   -0.40255537778721      0.63608655204539      1.37525625421181
  O   0.74567648269163      0.92701522102138      1.70059056565392
  O   -1.42228469558923      1.04529095515786      1.93476623065024
  N   -1.78785683112395     -0.96718486081764      0.33800318811947
  H   -2.07050726046592     -1.40528100915667     -0.52521998378081
  H   -2.52654599188699     -0.42088480313122      0.75680353154986
