13
Coordinates from ORCA-job run
  C   0.86574188083806      0.27812745395695      0.04514139189985
  C   -0.45867294028172      0.24430274094781      0.26972866518614
  H   1.42370099257322      1.12437497905981      0.42414292088139
  C   1.55345472498764     -0.81771011497567     -0.70792166891876
  H   1.47200954779549     -0.68313728370509     -1.79329099305859
  H   2.61668610240937     -0.84840505019584     -0.46746655032931
  H   1.11940002636372     -1.79129002632501     -0.46118330947056
  N   -1.08090062439342      1.32577580439345      1.06966109424748
  O   -2.31225248982522      1.31548956753419      1.14559660548712
  O   -0.35258569733035      2.15324414322506      1.60375068909858
  N   -1.34983268170458     -0.73943102995043     -0.11708354321050
  H   -2.31040715785748     -0.46948424908424      0.03521493949033
  H   -1.18534168357473     -1.09185693488099     -1.04729024130317
