13
Coordinates from ORCA-job run
  C   0.80591810750554      0.39090492715551     -0.16717490202101
  C   -0.43312195649480      0.22328735998562      0.32540529167232
  H   1.28671316671114      1.34889183112909     -0.01863679487268
  C   1.50269218675312     -0.71142920747289     -0.90249499048651
  H   1.18678049426910     -0.76872751377143     -1.95124041653542
  H   1.29296083478356     -1.68106279088132     -0.44068849481180
  H   2.58262877785291     -0.56060349825172     -0.90046144597599
  N   -1.05813832631941      1.32583539918407      1.09322583412990
  O   -2.23977242824122      1.17297651346406      1.41346270694342
  O   -0.37989528795886      2.30916139896206      1.36464513284878
  N   -1.21644116938544     -0.91337797642372      0.25649670242226
  H   -2.16538189896717     -0.74597459676977      0.55690984179290
  H   -1.16394250050846     -1.38988184630958     -0.63044846510617
