13
Coordinates from ORCA-job run
  C   0.29978354649593     -0.30394979923307     -0.78275674811023
  C   -0.66924703730256     -0.10811070929676      0.13241000767233
  H   -0.00269635074176     -0.90853204803894     -1.63615780351009
  C   1.70582238745442      0.21921811946023     -0.78759730602819
  H   2.18176953674760      0.14135593653411      0.19061457727579
  H   2.30115139345093     -0.34378245188737     -1.50794414859985
  H   1.73925365744543      1.27506381361125     -1.06768315620379
  N   -0.40814270640753      0.65198970415621      1.36634046895313
  O   0.49307941761913      1.48675095906448      1.36170696042723
  O   -1.11827436651671      0.38211631418611      2.33750261937487
  N   -1.99550779838373     -0.50986212536024      0.06374451757184
  H   -2.36960244560524     -0.76529426017022      0.96617571647501
  H   -2.15538923425592     -1.21796345302580     -0.63635570529805
