13
Coordinates from ORCA-job run
  C   0.87114426182409      0.21515168356112      0.15308027287120
  C   -0.46971377086241      0.27044511164621      0.22248153855441
  H   1.44079224603189      0.86173510552108      0.80767996253489
  C   1.56137983071293     -0.71522150783376     -0.79499006021929
  H   1.64702335788261     -1.72875128807215     -0.38480765729634
  H   2.57293285882506     -0.37079258042944     -1.01265382607927
  H   1.01443500644385     -0.78523538246016     -1.74000360056759
  N   -1.10334890346202      1.24860454958118      1.13776301808648
  O   -0.38939721901376      2.06068369850164      1.71338422374743
  O   -2.32924437070038      1.17715883462124      1.25704248272603
  N   -1.37878451205163     -0.45795239451086     -0.52229368631360
  H   -2.32410203436584     -0.35239903620726     -0.18459253752055
  H   -1.11511675126440     -1.42242679391883     -0.65209013052381
