13
Coordinates from ORCA-job run
  C   0.49220559815897     -0.69707962423982     -0.39456723619498
  C   -0.63553867754811     -0.19166136367952      0.12544916534818
  H   0.37483486722490     -1.72132679709886     -0.73826566024782
  C   1.83638079202878     -0.05761397050580     -0.54982967579416
  H   1.76532130227204      0.99285816150833     -0.83053866371247
  H   2.39061167971400     -0.09113206608407      0.39179091934436
  H   2.41479789503161     -0.59147435883646     -1.30474519822342
  N   -0.68329583850201      1.21880094012789      0.59759162722764
  O   -1.78340575993210      1.77063576806160      0.54668378648808
  O   0.35286710077996      1.74197476894086      1.00305433671778
  N   -1.84200455684502     -0.91271318064389      0.19859713335145
  H   -2.09211578496733     -1.09332617840210      1.16424493029121
  H   -2.59265861741570     -0.36894209914817     -0.21046546459585
