13
Coordinates from ORCA-job run
  C   0.65506052293927      0.45322054528244     -0.44045504481322
  C   -0.42124248084358      0.23344622239974      0.33353399613978
  H   0.90854888519169      1.47787362398473     -0.67898096713813
  C   1.48030784577324     -0.68138546332779     -0.96266234338449
  H   2.48697610378432     -0.34696661501427     -1.21567546022187
  H   1.04804171988981     -1.11901502965472     -1.87064097030377
  H   1.56299678829035     -1.47840785326143     -0.21763138810018
  N   -1.17100907992780      1.39402004857097      0.86997898058060
  O   -2.22013150900343      1.14265304131544      1.46851962176135
  O   -0.71573074866475      2.51765810012942      0.69509967969934
  N   -0.91221411231531     -0.98600355705292      0.76116710331150
  H   -1.81539965039575     -0.90320177961695      1.20403642213650
  H   -0.88720428471804     -1.70389128375467      0.05371037033256
