13
Coordinates from ORCA-job run
  C   0.33795072284219     -0.39250971097083     -0.72578638056419
  C   -0.66047981105604     -0.14395430505365      0.14367384258062
  H   0.04571070744362     -0.98960115514512     -1.58800331351441
  C   1.77797031786620      0.02030669848520     -0.64479644906254
  H   1.89636876559293      1.05462545769946     -0.31980140980728
  H   2.24352470923802     -0.08974832414540     -1.62530502601943
  H   2.33169143594924     -0.59617675927125      0.06774700021707
  N   -0.43830445767462      0.68708925575604      1.33923150397006
  O   -1.42429502960944      1.27423894215779      1.79002255173555
  O   0.69724135253546      0.75620019122421      1.80254301993639
  N   -1.96077600063270     -0.62677826944911      0.10529651547619
  H   -2.21480359261060     -0.99789383208069     -0.79743815964328
  H   -2.63179911988425      0.04420181079335      0.45061630469525
