13
Coordinates from ORCA-job run
  C   0.74948927055743      0.44626329436987     -0.26071616191063
  C   -0.45669121667141      0.22557946354132      0.28897760147357
  H   1.21063706750917      1.41241059891731     -0.10265737248242
  C   1.44052746491591     -0.61004960994365     -1.06549096860445
  H   2.17371489362232     -0.16810517220902     -1.74102387730421
  H   0.72135819819089     -1.17588654892438     -1.66527799790499
  H   1.97726595689179     -1.32429893545970     -0.42942495228176
  N   -1.12242800072471      1.32386728338912      1.02875811720506
  O   -0.60954611687868      2.43616819882708      1.01352850928145
  O   -2.16784749723403      1.03655606884051      1.61747931299426
  N   -1.21891487442745     -0.92474457432769      0.20491031892149
  H   -0.68145480096423     -1.77378935562804      0.28730410881020
  H   -2.01611034478699     -0.90397071139271      0.82363336180243
