13
Coordinates from ORCA-job run
  C   0.42534842370924     -0.57174623436415     -0.53600594153294
  C   -0.58776633368639     -0.22828102933503      0.28266644001644
  H   0.30595978817707     -1.54038268305929     -1.01850225618955
  C   1.68451322782531      0.18520094278532     -0.83987151716632
  H   2.14547735349131     -0.22241984667035     -1.74083654775542
  H   2.40550119077568      0.10747153692914     -0.02224077638775
  H   1.50283739891789      1.24914715196883     -0.99594658649502
  N   -0.59760918150740      1.07011132040406      0.97792544824432
  O   0.47583980443389      1.62351432943038      1.20244505283689
  O   -1.70425348529035      1.52289221039456      1.27879250842853
  N   -1.69176005668918     -0.99165649225826      0.63467176159658
  H   -1.84188149138619     -1.77321690436094      0.01513696323149
  H   -2.52320663877087     -0.43263430186428      0.76076545117274
