13
Coordinates from ORCA-job run
  C   0.59754297982825     -0.68173153830931     -0.24400306138418
  C   -0.59260443496670     -0.25406659063531      0.20267384250846
  H   0.65646557772227     -1.76522249230358     -0.30510985302427
  C   1.79782669068618      0.10917909882834     -0.66127104444630
  H   1.66066361144285      0.52003917405477     -1.66469772420807
  H   2.67901438952235     -0.53311956185403     -0.67135852524371
  H   1.98256243888467      0.95743133324118     -0.00230246912425
  N   -0.84118496973015      1.19752242429100      0.41831667537045
  O   -0.20497487840931      2.01217230203749     -0.24688309196582
  O   -1.68279100911076      1.48271343489414      1.27147091311119
  N   -1.64157045082826     -1.12255371100242      0.55567064070780
  H   -2.01261623398189     -0.86311240839358      1.46184230787324
  H   -2.40033371105950     -1.05825146484868     -0.11334861017453
