13
Coordinates from ORCA-job run
  C   0.37916681571553     -0.50378079812159     -0.63123109670776
  C   -0.65793477026231     -0.14658931626666      0.15078523870168
  H   0.20252975232621     -1.39202980725372     -1.23541543200372
  C   1.70954603289379      0.17117015322452     -0.79049801420771
  H   2.13196386208734      0.48814026349576      0.16371306839678
  H   2.41078906034836     -0.51497146549848     -1.26778916029817
  H   1.63200611023561      1.06737134457228     -1.41108279224194
  N   -0.56265397996883      1.00788301537011      1.06030050553378
  O   -1.28703831236176      0.98135872736912      2.05773936066722
  O   0.22721136617739      1.90771083644711      0.78580585876501
  N   -1.92029290125394     -0.72031108260006      0.20248657870165
  H   -1.95309010963394     -1.63583681087313     -0.21931855500260
  H   -2.31120292630347     -0.70911505986527      1.13350443969580
