13
Coordinates from ORCA-job run
  C   0.41645842969894     -0.50360999532540     -0.60640273513794
  C   -0.59720485491241     -0.24803545445883      0.24324480195361
  H   0.27720249718404     -1.39230403429743     -1.21969406382101
  C   1.69959086323689      0.25148543836698     -0.79155355039448
  H   2.40810360430290      0.04036429733874      0.01333885144043
  H   2.16035708073965     -0.04033574954860     -1.73648789781686
  H   1.54907226402315      1.33157731800704     -0.79945855386930
  N   -0.58025652969915      0.94090288875577      1.11266845875001
  O   0.50471476791542      1.42836444349861      1.41950459063743
  O   -1.67785628551817      1.37733454333550      1.46624822962704
  N   -1.72588629787936     -1.02106880966142      0.47532149752965
  H   -1.89043052873833     -1.70204766075815     -0.25019128755279
  H   -2.54286501035358     -0.46162722525279      0.67346165865421
