13
Coordinates from ORCA-job run
  C   0.48922227288040      0.36819854238656     -0.66091264365584
  C   -0.38520133581076      0.19932597848072      0.33964907518666
  H   0.49938284637083      1.33145622890436     -1.15959292011650
  C   1.41690962737076     -0.70412195294696     -1.12606736039379
  H   2.43121275949664     -0.30995241749479     -1.22943571641965
  H   1.11829915312659     -1.07321402089370     -2.11264905381410
  H   1.42171872609293     -1.54053053473155     -0.42781565099115
  N   -1.21229985661445      1.37929941827675      0.75476617702527
  O   -1.88170419718268      1.23546848704551      1.77926507802220
  O   -1.16571875231735      2.40318712073768      0.08365037864475
  N   -0.58110229655183     -0.97812330742362      1.06885617204097
  H   -1.31434990715186     -1.54893263960481      0.66677119953462
  H   -0.83636903970920     -0.76106090273615      2.02351526493655
