13
Coordinates from ORCA-job run
  C   0.61801709643622      0.47628570407974     -0.46912698831655
  C   -0.49031698660288      0.20939807580249      0.24223936990948
  H   0.84377760465518      1.51172155450767     -0.68814738394090
  C   1.51896326374916     -0.62120954187719     -0.94293375458927
  H   2.11259639967929     -0.29684079090399     -1.79824770088892
  H   2.22251786968583     -0.93956686520144     -0.16412064962518
  H   0.93904559720373     -1.49911931264668     -1.24321504536048
  N   -1.37781641372666      1.32827921285721      0.63907658814815
  O   -2.31220053612719      1.04851463544072      1.39448053584305
  O   -1.14057114107924      2.44781175031605      0.20227251069727
  N   -0.96448032188819     -1.03245548944167      0.62231926663310
  H   -0.24121600635351     -1.66618552472911      0.92544936344298
  H   -1.72831642563174     -0.96763340820381      1.27895388804725
