13
Coordinates from ORCA-job run
  C   0.56643887783767      0.43597528174754     -0.56431697514420
  C   -0.42597179015032      0.24186259614126      0.32063199900089
  H   0.82928748613507      1.45474368420941     -0.81738388632885
  C   1.29064387196705     -0.71905087513948     -1.18286476061857
  H   0.60381463636146     -1.54653186700080     -1.38455176633507
  H   2.08709927129104     -1.09967199705380     -0.53200570322019
  H   1.75762979968622     -0.42734084656775     -2.12414732117530
  N   -1.14902343095697      1.41764349514840      0.86076346950718
  O   -1.96497005256978      1.19696750205770      1.75945272468138
  O   -0.90296729921364      2.52274278900151      0.39307946802584
  N   -0.92224375469116     -0.96682576278128      0.77253046112146
  H   -1.56158023466554     -0.85493749201568      1.54552697891316
  H   -0.20815738103110     -1.65557650774702      0.95228531157228
