15
Coordinates from ORCA-job run
  C   -0.59527460977784     -0.12588269865441     -0.09090894813277
  C   0.73000996917344     -0.02442844418554     -0.33034818316110
  C   -1.33576373896568      0.13576455115750      1.17673646120149
  H   -1.90257096481945      1.06535511414427      1.09547492540517
  H   -0.66456374408876      0.19762543652362      2.03026440739991
  H   -2.05422343129007     -0.66754214815824      1.35755910673354
  N   -1.48866159583915     -0.47049546293557     -1.21237318213715
  O   -1.17427622715899     -1.40506271088890     -1.94474421531593
  O   -2.50753060210485      0.21308593734167     -1.30668291591911
  C   1.76274667252745      0.36256463439985      0.69494230204303
  H   2.31926360782933      1.23556265014307      0.34548492838499
  H   1.32398698564392      0.59700053431013      1.66237789472269
  H   2.48018538195560     -0.45252225717234      0.82088862908104
  C   1.27269733636094     -0.26179598228396     -1.63675441936805
  N   1.83297496055411     -0.39922915374115     -2.66291679093774
