15
Coordinates from ORCA-job run
  C   -0.59126132320378     -0.14508612744756     -0.08863185418879
  C   0.73507281018406     -0.04748257409874     -0.32458584546510
  C   -1.33797050896578      0.17046952608342      1.16073772957501
  H   -0.67026506393922      0.42183843284737      1.98173977186911
  H   -2.00332710267581      1.01797716947376      0.98358132640723
  H   -1.96192426256711     -0.67725348936242      1.45838369414727
  N   -1.47433022567541     -0.56380117401294     -1.19457345621126
  O   -2.49338901159727      0.10917461558462     -1.34433912980332
  O   -1.14399282372847     -1.53761769612164     -1.86633950285655
  C   1.74910057401811      0.41023543744779      0.68903256847310
  H   1.39027973231575      0.30078882376792      1.71192101177807
  H   2.01572221426302      1.45891790583911      0.52300765257995
  H   2.66195135612313     -0.18068972144345      0.59052034615521
  C   1.28111504672148     -0.29333261152858     -1.62815169442110
  N   1.84421858872731     -0.44113851702865     -2.65130261803882
