15
Coordinates from ORCA-job run
  C   -0.58312037409172      0.03420100838618      0.00974958081203
  C   0.75874345132874      0.15608212791195     -0.09497509078858
  C   -1.62077520441860      1.08761032075921     -0.17811634980497
  H   -1.17518753356921      2.00639342215503     -0.55834211803699
  H   -2.38145013963290      0.74208320335931     -0.88393464918137
  H   -2.11930858659980      1.29239569324124      0.77130911112646
  N   -1.13181229549093     -1.26829745358428      0.41069510737653
  O   -0.74476141686860     -2.26910229069735     -0.19175971823328
  O   -1.96436866857225     -1.24931676962763      1.31637614216467
  C   1.79287122010935     -0.91226489244227      0.14123641590573
  H   1.40393775012365     -1.73716079124299      0.73384354677606
  H   2.13071639245981     -1.31710160522597     -0.81606902298637
  H   2.65622380330647     -0.47918358402129      0.64897061084213
  C   1.26483618007247      1.43742466147812     -0.49096758988645
  N   1.71245542184352      2.47623694955073     -0.81801597608561
