15
Coordinates from ORCA-job run
  C   -0.60374322501720     -0.05947746110525     -0.10009292144004
  C   0.72866467220644     -0.13194010174588     -0.30864391868633
  C   -1.33214072697975      0.37493127896005      1.12658577769371
  H   -0.67585802077300      0.41144019467351      1.99310836309310
  H   -2.14660755366475     -0.32228955793789      1.33802321730880
  H   -1.77955169956899      1.35846186214189      0.97001125728599
  N   -1.51016926918450     -0.37502367945531     -1.21976060569482
  O   -1.29478753682587     -1.38883132558298     -1.87893729040198
  O   -2.43870488319937      0.41490898978180     -1.38742232505863
  C   1.77809877848163      0.20457417653020      0.71776193340228
  H   1.35085481752411      0.59533522841895      1.63876144394094
  H   2.36567299131472     -0.68739177629856      0.95103299455553
  H   2.46490773821446      0.95030992613332      0.31065720405367
  C   1.26570772466526     -0.52863376095191     -1.57808235265507
  N   1.82765619280681     -0.81537399356195     -2.57200277739715
