15
Coordinates from ORCA-job run
  C   -0.58292312080971      0.01295738942662      0.00983328875166
  C   0.75458979212439      0.20447234838740      0.00059970151064
  C   -1.66241365251064      1.03607249518038     -0.08380143556722
  H   -2.36337673315335      0.91821498263742      0.74727691842547
  H   -2.22250284079372      0.90219452175598     -1.01104079968231
  H   -1.24542255376904      2.04217654362379     -0.05396015927544
  N   -1.08197010507758     -1.36818515030881      0.06636555935780
  O   -0.62567308767962     -2.11179241480069      0.93397276280018
  O   -1.94348528337214     -1.66685507814415     -0.75962761874492
  C   1.82436204104929     -0.85360629130825      0.05434004295569
  H   2.19173082374686     -0.95803738934008      1.07870113941461
  H   2.66180274360175     -0.55762951730847     -0.57951440836100
  H   1.45654578868700     -1.82559297601895     -0.26829188086596
  C   1.21507143837387      1.56087655318831     -0.04934066698630
  N   1.62366474958264      2.66473398302952     -0.08451244373291
