15
Coordinates from ORCA-job run
  C   -0.59723408581860     -0.01553211741239     -0.13109862240615
  C   0.74079427797520     -0.06512859406840     -0.31094071275781
  C   -1.35566376553143      0.35581423704536      1.09858960181964
  H   -2.19759879959483      0.99803494251954      0.82730817147260
  H   -1.76969898605572     -0.53728978132691      1.57183201000747
  H   -0.73037451941044      0.88743072009675      1.81187381096581
  N   -1.47362139944907     -0.44915614218707     -1.23399300940365
  O   -1.26121839288772     -0.00659136348903     -2.36014746905065
  O   -2.37688404129698     -1.22186534846076     -0.91577446260876
  C   1.75936252000278      0.28436314897125      0.74167386141916
  H   2.31890697897332      1.17378315348107      0.43982740821765
  H   1.30549560434840      0.46413094722107      1.71451359373075
  H   2.47643389323426     -0.53337353516018      0.84235310641553
  C   1.30398608486711     -0.48951971519972     -1.56009191478759
  N   1.85631463064374     -0.84610055203057     -2.53592537303399
