15
Coordinates from ORCA-job run
  C   -0.56602390714560     -0.03359828027402      0.13628537958568
  C   0.78124429216393     -0.04354429429113      0.02382015483887
  C   -1.40545164123222     -0.64419670865973      1.20573395249994
  H   -2.10212714025062      0.09820327260800      1.60460974529482
  H   -0.78388331668967     -1.02061949834699      2.01747880442430
  H   -1.99722365297615     -1.46329263764592      0.79283289620117
  N   -1.34311863189870      0.60208169532076     -0.93659806287288
  O   -2.31256121628379     -0.03118957485007     -1.35247888988214
  O   -0.98831262752115      1.71387783880267     -1.32693998413536
  C   1.60276932351215      0.54813555028103     -1.09184584839313
  H   1.05562698551729      0.57197292347437     -2.03278434087285
  H   2.51483878837135     -0.03546363450187     -1.22322887748723
  H   1.88294477721926      1.57484605660764     -0.84426764896487
  C   1.51515784065440     -0.66659179337801      1.08519778144613
  N   2.14712012655951     -1.16962091514673      1.94218493831755
