15
Coordinates from ORCA-job run
  C   -0.59729003278127     -0.11969527848526     -0.08412342439453
  C   0.72304581844081     -0.01093154385625     -0.34676978851626
  C   -1.30992622764498      0.08183253470403      1.21025193736602
  H   -0.62139629272549      0.08994678089669      2.05212013960196
  H   -1.86771699931654      1.02019387712794      1.19041287139982
  H   -2.03367854325365     -0.72272093702106      1.36196784148126
  N   -1.51562482706641     -0.40599978290383     -1.20203021198883
  O   -2.53182445683676      0.28680882780313     -1.24221310626685
  O   -1.22216713979108     -1.30629840295586     -1.98430193926292
  C   1.77761917438226      0.32612722766747      0.67411183616802
  H   2.32823885467824      1.21418886165830      0.35442895780824
  H   1.35944510530154      0.51562260336383      1.66030516618200
  H   2.49629351155238     -0.49436186764741      0.74655879430833
  C   1.23773737303415     -0.18772571998165     -1.67380130872440
  N   1.77624468202682     -0.28698718037007     -2.71591776516186
