15
Coordinates from ORCA-job run
  C   -0.54347420976898      0.00273473263109      0.18271811955816
  C   0.76506599559690     -0.21003760619551     -0.05984448514661
  C   -1.48802392235388     -0.76905539688734      1.03427995294112
  H   -1.89442494669049     -0.12128354472037      1.81570153480184
  H   -2.32165352341132     -1.13557401780943      0.42845260502740
  H   -0.98605972908059     -1.61803428422335      1.49964204040464
  N   -1.15990197870939      1.16313507355368     -0.47251716329559
  O   -1.18746547860752      2.21045174216469      0.16996398543083
  O   -1.61903160185698      0.97975039342389     -1.59822228341479
  C   1.61960126473320      0.62924138061482     -0.97082181328706
  H   1.73490034117071      0.13205749491399     -1.93727796789824
  H   2.61266755846254      0.76051636040390     -0.53770800716556
  H   1.18136784463247      1.61332144859619     -1.13692672656925
  C   1.37916749429052     -1.35335910186143      0.54584923200497
  N   1.90626489159282     -2.28586467460483      1.03471097660813
