15
Coordinates from ORCA-job run
  C   -0.56295076848010      0.10345334596859      0.11210942097296
  C   0.78238376258297      0.01721449780736      0.01049726299952
  C   -1.36610070942594      1.08382780243063      0.89623745009258
  H   -1.93372545222261      1.72565210778852      0.21990771801341
  H   -2.08342120160396      0.55725475941334      1.53175304780933
  H   -0.72142854552115      1.69915205786569      1.52284718200103
  N   -1.37547222673053     -0.83445101702780     -0.67463416109084
  O   -2.32101658655293     -0.34678654551592     -1.29280642238001
  O   -1.07075675719822     -2.02644790757517     -0.64842482628916
  C   1.56853604422507     -0.96060802964558     -0.82365914784817
  H   1.80970216604534     -1.84662927243426     -0.23145407794798
  H   2.50197147590785     -0.49768883452387     -1.14637941595213
  H   1.01151915650418     -1.28912453706163     -1.69957111381909
  C   1.55127737242265      0.93777714647811      0.79463056032214
  N   2.20948227004737      1.67840442603196      1.43094652311641
