15
Coordinates from ORCA-job run
  C   -0.55703041639109     -0.03444934170131      0.17214829054693
  C   0.78170727903060      0.00787210918479     -0.01181448932111
  C   -1.30818908172036     -0.08216242823992      1.45843640659089
  H   -2.02819099749694     -0.90490846218803      1.44137499903572
  H   -0.62756882574485     -0.22261160274296      2.29756459674999
  H   -1.86860875219351      0.84421545537466      1.59838200461416
  N   -1.41906563726617      0.02645528837115     -1.01603978971295
  O   -1.14440246402742     -0.70269525708838     -1.96846255674286
  O   -2.37207094604731      0.80231077114224     -0.95476779830070
  C   1.51565400499076      0.09685651353680     -1.32455577040102
  H   2.44832350220182      0.64516765534822     -1.18566405281046
  H   0.92166245399279      0.59061508692052     -2.09170616499657
  H   1.75600828176892     -0.90644576512631     -1.68471973454208
  C   1.59973729704828     -0.05495599678634      1.16304508506585
  N   2.30103430185447     -0.10526402600512      2.10777897422421
