15
Coordinates from ORCA-job run
  C   -0.56935617925742      0.04169996623183      0.10785676821276
  C   0.75720866329614     -0.20715449335946      0.05042070773128
  C   -1.60955475089386     -0.64862131492225      0.92002967637636
  H   -1.15229148336955     -1.31795931657830      1.64960478831443
  H   -2.27257589345133     -1.22410430901060      0.26856985251665
  H   -2.22018838919888      0.09095963133345      1.44584578169389
  N   -1.10623500883471      1.08031080702101     -0.77965143284196
  O   -2.04774966251118      0.74759147100868     -1.49949514496599
  O   -0.60226466376389      2.19992515475821     -0.72116902889685
  C   1.75318951733819      0.48970260752790     -0.83802618798988
  H   2.24006433629403      1.30511384221738     -0.29629547257083
  H   2.52937740566598     -0.21427903031348     -1.14222152690587
  H   1.27978018400770      0.90514861578937     -1.72598633663751
  C   1.27555179433441     -1.21550391889886      0.92537707180359
  N   1.74504413034434     -2.03182971280488      1.63414048415994
