17
Coordinates from ORCA-job run
  C   -0.43020747850184      0.20234755662046      0.24717674832024
  C   0.87878742822784     -0.38764031929037     -0.30576364258334
  F   -0.24156021920148      0.29630056468619      1.63877170504077
  H   0.74253200534672     -0.54567520571773     -1.38149117720201
  C   -1.59366382364209     -0.73669402711520      0.00734136126206
  H   -2.48052259377459     -0.34274021218456      0.50755864844747
  H   -1.80492821326483     -0.81784514178702     -1.06176768418255
  H   -1.36721359314988     -1.72756793275864      0.39656550060926
  C   -0.69272912345479      1.60128236301103     -0.26865416916942
  H   0.10682351680296      2.28063067375006      0.02953219154580
  H   -0.77082939935517      1.60436269590223     -1.35881068297174
  H   -1.63233122563898      1.97041401232012      0.14658689641417
  N   1.14170912229942     -1.67776959215411      0.31713710981699
  H   1.99241345907707     -2.07955379750500     -0.05780605510030
  H   1.27612550880444     -1.53502132979151      1.31156017683366
  C   1.98710959471185      0.57614992486370     -0.13974962086305
  N   2.88948503471334      1.32001976715034     -0.02818730621801
