17
Coordinates from ORCA-job run
  C   -0.51109845567993      0.22256247542963     -0.38793594770306
  C   0.85092223586625     -0.49432013696578     -0.41524337950401
  F   -0.66547984626684      0.76986242213857     -1.66914081758971
  H   0.77133833925076     -1.29093795226713     -1.16216668991608
  C   -0.53944925226282      1.36728760309264      0.60262210996755
  H   -1.48628787577632      1.90158616766661      0.50452986155667
  H   -0.46118287717982      0.99880295614463      1.62745843752995
  H   0.27093981969711      2.07238990253491      0.40431354262722
  C   -1.63274975016613     -0.77007493427396     -0.17453010332717
  H   -2.59200397988505     -0.24865281403517     -0.18944207005410
  H   -1.63287046278999     -1.50950747384116     -0.97885851693780
  H   -1.51145629711201     -1.28366633131941      0.77845041967522
  N   1.13321368819550     -1.10614139861476      0.87891295218788
  H   1.47441220048925     -0.40417125423938      1.52524239250327
  H   1.86508001662247     -1.79890978772354      0.77837687112612
  C   1.90419688265257      0.43113127017818     -0.87773019497093
  N   2.76347561434499      1.14275928609511     -1.24485886717103
