17
Coordinates from ORCA-job run
  C   -0.53464494212373      0.23108921745814     -0.35439664439002
  C   0.96179768049224     -0.12629363475049     -0.45540314203275
  F   -1.01921189419617      0.16044510565228     -1.66336590400982
  H   1.36941743836770      0.52381634394386     -1.23654205204573
  C   -0.73106146836262      1.65956002498949      0.11431778318339
  H   -1.78486065273979      1.92380691741501      0.00795149269841
  H   -0.44195867776238      1.78476859301870      1.15880850361144
  H   -0.14441002216164      2.34799686351380     -0.49938467153660
  C   -1.30637446576516     -0.77366712189309      0.47351948190479
  H   -2.35674592144958     -0.48034544249274      0.51918777540450
  H   -1.24730004899624     -1.75699536786947      0.00612831222120
  H   -0.91735220204466     -0.82574219757460      1.49375011263222
  N   1.15906548045112     -1.50733302847386     -0.87351174524394
  H   2.08445716843668     -1.61969628365476     -1.26845175048608
  H   1.08935318740796     -2.13160687936688     -0.07893499172776
  C   1.64138626719906      0.19928279311013      0.81416852942105
  N   2.17944307324719      0.39091409697447      1.84115891039571
