17
Coordinates from ORCA-job run
  C   -0.42351266196481      0.20134441198474      0.26030328186594
  C   0.86802598351492     -0.38077945876933     -0.33975081268904
  F   -0.18547635777415      0.29812892254020      1.64396817451776
  H   0.69309013015543     -0.53899544097392     -1.40962964118822
  C   -1.58881574404475     -0.74534958098242      0.06375909350694
  H   -1.83451291484367     -0.83401325426848     -0.99735441019373
  H   -2.46139667046601     -0.35424302049670      0.59072368740896
  H   -1.34334692439013     -1.73256234469262      0.45049191733234
  C   -0.71308915863971      1.59811792261190     -0.24675495303929
  H   -1.63621125967706      1.96401839057670      0.20596167971426
  H   0.09472217244003      2.28142458234220      0.01746252203675
  H   -0.83599549029082      1.59916577128402     -1.33253704226809
  N   1.16230426360279     -1.66863411373916      0.27298307090854
  H   1.99802782525447     -2.06789493615794     -0.13660769483011
  H   1.33708167508848     -1.52485918465689      1.26085273133877
  C   1.97690073080353      0.58839112906819     -0.20973790029205
  N   2.89120440123146      1.31674020432952     -0.09313370412973
