12

C	-0.522269	-0.080363	-1.427562
C	0.0	0.0	0.0
Cl	-0.041594	1.326885	-2.409462
H	1.099551	0.0	0.0
H	-0.101294	-0.968753	-1.899962
H	-1.610972	-0.139853	-1.420851
N	-0.497966	-1.213205	0.693806
H	0.206441	-1.929174	0.527814
H	-0.469049	-1.039238	1.693183
C	-0.511861	1.188709	0.678557
N	-0.925126	2.125165	1.253904
Br	3.51756	0.0	0.0
