12

C	-0.461055	-0.041202	-1.456224
C	0.0	0.0	0.0
Cl	-0.141098	1.469348	-2.346355
H	1.094796	0.0	0.0
H	-1.53682	-0.226683	-1.512978
H	0.085255	-0.840057	-1.957082
N	-0.384088	-1.220869	0.709386
H	0.352886	-1.90416	0.588911
H	-1.257657	-1.597633	0.360873
C	-0.548401	1.167438	0.69752
N	-1.031167	2.087275	1.244957
Br	3.470673	0.0	0.0
