12

C	-0.527759	-0.129892	-1.422744
C	0.0	0.0	0.0
Cl	-0.224663	1.322795	-2.411424
H	1.093738	0.0	0.0
H	-0.014681	-0.969498	-1.887206
H	-1.604404	-0.30738	-1.413684
N	-0.399316	-1.21902	0.71862
H	0.371924	-1.492274	1.316332
H	-1.20965	-1.049887	1.300497
C	-0.494858	1.214641	0.658318
N	-0.954027	2.135089	1.226234
Br	3.476097	0.0	0.0
