12

C	-0.365362	-0.015908	-1.471727
C	0.0	0.0	0.0
Cl	-2.127013	0.028297	-1.779829
H	1.103862	0.0	0.0
H	0.082957	0.842999	-1.969176
H	0.024462	-0.93016	-1.92065
N	-0.527417	-1.188168	0.692971
H	0.061615	-1.962719	0.396472
H	-0.331314	-1.07197	1.682505
C	-0.492928	1.211163	0.653304
N	-0.884115	2.183085	1.18274
Br	3.480478	0.0	0.0
