17

C	-0.394897	-0.076908	-1.475728
C	0.0	0.0	0.0
Br	0.202985	1.709115	-2.299684
H	1.093068	0.0	0.0
C	0.452798	-1.136431	-2.148558
H	0.366543	-1.086767	-3.23689
H	1.484569	-0.971919	-1.825226
H	0.111555	-2.107799	-1.787921
N	-1.790418	-0.257059	-1.669932
H	-2.304939	0.524665	-1.277355
H	-2.008363	-0.320099	-2.656367
N	-0.34731	-1.273205	0.640472
H	-1.252681	-1.241834	1.090386
H	0.37016	-1.458519	1.329517
C	-0.60329	1.141493	0.678727
N	-1.154368	1.993261	1.276359
F	2.592966	0.0	0.0
