17

C	-0.475497	0.003807	-1.448761
C	0.0	0.0	0.0
Br	0.339818	-1.669648	-2.304211
H	1.095297	0.0	0.0
C	-1.973565	-0.146907	-1.636542
H	-2.294784	-1.08068	-1.173942
H	-2.47312	0.699678	-1.15356
H	-2.246807	-0.174909	-2.696042
N	0.038282	1.176032	-2.055139
H	-0.136765	1.19196	-3.065723
H	1.050793	1.231286	-1.861166
N	-0.468821	-1.175134	0.72222
H	0.271743	-1.439773	1.372831
H	-1.318414	-0.980827	1.255596
C	-0.473836	1.231388	0.629695
N	-0.895008	2.167445	1.210767
F	2.562553	0.0	0.0
