17

C	-0.053973	0.01016	-1.533196
C	0.0	0.0	0.0
Br	-1.936696	-0.235023	-2.175403
H	1.097891	0.0	0.0
C	0.494331	1.316731	-2.065566
H	0.554129	1.269183	-3.154551
H	1.498353	1.402456	-1.633644
H	-0.115807	2.170004	-1.763373
N	0.74542	-1.082068	-2.043954
H	1.663696	-0.898381	-1.60982
H	0.403195	-1.917003	-1.572162
N	-0.461763	-1.264388	0.553797
H	0.06159	-1.455838	1.399382
H	-1.44922	-1.225027	0.777578
C	-0.575268	1.179645	0.628799
N	-1.033549	2.120434	1.167982
F	2.630162	0.0	0.0
