17

C	-0.426148	-0.078404	-1.480664
C	0.0	0.0	0.0
Br	-0.11192	1.696498	-2.287154
H	1.093895	0.0	0.0
C	0.497742	-1.073122	-2.160872
H	1.52343	-0.842004	-1.858773
H	0.365904	-1.042985	-3.243249
H	0.244605	-2.073784	-1.796473
N	-1.821362	-0.404417	-1.722099
H	-1.972683	-1.271236	-1.208386
H	-2.397989	0.308609	-1.282466
N	-0.369377	-1.296308	0.624866
H	0.495471	-1.664569	1.003534
H	-1.009012	-1.158876	1.394447
C	-0.606151	1.10842	0.714494
N	-1.147383	1.944029	1.343069
F	2.602304	0.0	0.0
