17

C	-0.117039	0.075663	-1.537618
C	0.0	0.0	0.0
Br	-0.05907	-2.161883	-2.222958
H	1.102628	0.0	0.0
C	-1.435118	0.44183	-2.163316
H	-2.221544	-0.182063	-1.741665
H	-1.416205	0.30505	-3.245834
H	-1.643224	1.492455	-1.930471
N	1.001568	0.673539	-1.980635
H	1.8672	0.472619	-1.401139
H	1.098007	0.808126	-2.97542
N	-0.735929	-1.080933	0.655674
H	-0.475256	-1.057399	1.639497
H	-0.369888	-1.94798	0.270789
C	-0.471163	1.284718	0.517173
N	-0.854201	2.306057	0.956647
F	2.689691	0.0	0.0
