15

C	0.0	0.0	0.0
C	-0.51737	-0.360622	-1.400266
F	1.411937	0.0	0.0
H	-1.479065	-0.854531	-1.267743
H	-0.270551	-0.810234	0.685191
N	-0.461474	1.296553	0.372809
H	-1.480979	1.264826	0.282361
H	-0.2637	1.431125	1.357957
N	0.430238	-1.426535	-1.909376
O	1.261348	-1.131046	-2.757853
O	0.319704	-2.53301	-1.378352
N	-0.639667	0.704371	-2.335562
H	-1.592585	1.041534	-2.280487
H	-0.022503	1.463445	-2.078912
Cl	-3.491853	0.0	0.0
