15

C	0.0	0.0	0.0
C	-0.470882	-0.67743	-1.287256
F	1.399951	0.0	0.0
H	0.28242	-1.412962	-1.59165
H	-0.308997	-0.660508	0.811716
N	-0.571046	1.268147	0.190652
H	-0.176615	1.96298	-0.423916
H	-0.56814	1.564103	1.153455
N	-0.40304	0.325903	-2.480146
O	-1.117206	0.070371	-3.443815
O	0.412193	1.249407	-2.438959
N	-1.722801	-1.280895	-1.109567
H	-2.071384	-1.693703	-1.962602
H	-2.450999	-0.669066	-0.719989
Cl	-4.517045	0.0	0.0
