14

C	0.0	0.0	0.0
C	-0.16423	0.234744	-1.536895
Br	2.036784	0.0	0.0
H	0.26024	-0.660968	-2.010547
H	-0.258412	0.896114	0.564362
H	0.499105	1.058678	-1.817661
N	-0.647574	-1.107032	0.564997
H	-1.676805	-0.767266	0.497743
H	-0.548933	-1.89553	-0.069729
C	-1.539657	0.50704	-2.139247
H	-1.944735	1.453271	-1.780701
H	-1.41801	0.556982	-3.230445
H	-2.276518	-0.230075	-1.83869
F	-2.923373	0.0	0.0
