14

C	0.0	0.0	0.0
C	-0.572696	-0.2161	-1.366744
Br	2.037011	0.0	0.0
H	-1.671534	-0.267421	-1.074821
H	-0.262406	0.979926	0.391291
H	-0.203531	-1.172731	-1.761763
N	-0.38689	-1.000691	0.908043
H	-0.031884	-0.849561	1.839457
H	-0.147233	-1.92277	0.575968
C	-0.290777	0.922922	-2.33201
H	-0.795724	1.828298	-1.983294
H	-0.68744	0.691966	-3.325184
H	0.77966	1.135984	-2.435879
F	-2.935955	0.0	0.0
