14

C	0.0	0.0	0.0
C	-0.21743	-0.181329	-1.534817
Br	1.962263	0.0	0.0
H	0.193373	-1.175363	-1.745684
H	-0.241187	1.025019	0.305429
H	0.446819	0.536508	-2.027571
N	-0.649507	-1.017711	0.743329
H	-0.53847	-0.809213	1.731863
H	-1.673566	-0.774964	0.505611
C	-1.587877	-0.062273	-2.19318
H	-1.99145	0.944607	-2.089994
H	-2.330198	-0.704094	-1.732999
H	-1.450144	-0.288987	-3.260436
F	-2.951319	0.0	0.0
