14

C	0.0	0.0	0.0
C	-0.461534	0.023534	-1.452811
Br	1.970279	0.0	0.0
H	0.004052	0.875295	-1.960119
H	-0.223518	0.973584	0.448784
H	-1.542191	0.187214	-1.346123
N	-0.584454	-1.106095	0.684718
H	-0.412858	-0.996899	1.68026
H	-1.613331	-0.872249	0.511343
C	-0.186302	-1.271766	-2.205202
H	0.882142	-1.502596	-2.24145
H	-0.554471	-1.20028	-3.233784
H	-0.696395	-2.099009	-1.712825
F	-2.858855	0.0	0.0
