19

C	-0.478715	0.075153	-1.447567
C	0.0	0.0	0.0
F	-1.821163	0.387698	-1.469626
H	1.093482	0.0	0.0
C	0.295635	1.051498	-2.288215
H	0.165175	2.034912	-1.83868
H	1.353515	0.787003	-2.269166
H	-0.085047	1.054872	-3.313138
N	-0.382208	-1.309625	-2.068988
O	0.747597	-1.696465	-2.348253
O	-1.418179	-1.955023	-2.212786
C	-0.519442	-1.228734	0.736589
H	-0.201534	-1.169677	1.779945
H	-1.612671	-1.280968	0.698547
H	-0.108888	-2.151979	0.321989
N	-0.392038	1.272489	0.613186
H	0.295977	1.505077	1.318368
H	-1.298571	1.184629	1.05631
Br	3.596541	0.0	0.0
