19

C	-0.339853	0.000756	-1.481305
C	0.0	0.0	0.0
F	0.091643	1.191291	-2.009933
H	1.095976	0.0	0.0
C	0.283211	-1.120411	-2.270192
H	-0.147218	-2.083723	-1.993953
H	1.355777	-1.113747	-2.057872
H	0.1174	-0.939842	-3.334889
N	-1.848317	7.3e-05	-1.685983
O	-2.395267	1.024948	-2.071826
O	-2.419221	-1.062025	-1.434596
C	-0.471026	-1.218048	0.773521
H	-0.139006	-2.14709	0.309879
H	-0.021411	-1.17947	1.769167
H	-1.557211	-1.232413	0.872684
N	-0.571951	1.211003	0.601804
H	-0.079196	2.006457	0.207676
H	-0.315866	1.196849	1.586546
Br	3.605448	0.0	0.0
