19

C	-0.492361	0.047226	-1.444476
C	0.0	0.0	0.0
F	-0.150837	-1.119297	-2.075582
H	1.096044	0.0	0.0
C	-1.970239	0.28495	-1.632082
H	-2.198955	0.333772	-2.699765
H	-2.258385	1.205362	-1.132735
H	-2.518486	-0.551847	-1.19582
N	0.248152	1.153289	-2.189509
O	0.983961	0.833329	-3.10969
O	0.013395	2.301739	-1.813568
C	-0.469084	-1.285516	0.669658
H	-0.217752	-2.161651	0.073508
H	0.05055	-1.381852	1.626487
H	-1.546917	-1.261846	0.858942
N	-0.533061	1.147104	0.755165
H	-0.37343	0.939049	1.73587
H	0.065141	1.94269	0.556914
Br	3.606003	0.0	0.0
