19

C	-0.342483	-0.017262	-1.481108
C	0.0	0.0	0.0
F	0.069544	1.174968	-2.024292
H	1.103805	0.0	0.0
C	0.292367	-1.13905	-2.260968
H	1.36536	-1.112327	-2.056209
H	-0.120098	-2.102145	-1.969759
H	0.116955	-0.978161	-3.327351
N	-1.853597	-0.038777	-1.676815
O	-2.419886	0.992359	-2.013525
O	-2.40569	-1.117697	-1.463817
C	-0.463444	-1.219488	0.77795
H	-1.551414	-1.260805	0.846709
H	-0.090033	-2.145106	0.338374
H	-0.045603	-1.154291	1.786745
N	-0.585572	1.207406	0.592599
H	-0.266542	1.245738	1.555224
H	-0.167145	2.009458	0.132825
Br	3.610644	0.0	0.0
