19

C	-0.479228	0.102856	-1.445485
C	0.0	0.0	0.0
F	-1.821691	0.418097	-1.459927
H	1.098403	0.0	0.0
C	0.295083	1.095949	-2.266099
H	1.353689	0.835621	-2.246252
H	0.157918	2.070915	-1.799442
H	-0.0805	1.115651	-3.29242
N	-0.3862	-1.271258	-2.090941
O	0.739725	-1.644758	-2.401173
O	-1.419053	-1.925252	-2.21621
C	-0.516657	-1.244251	0.712456
H	-0.195878	-1.204724	1.755841
H	-1.609925	-1.297496	0.67598
H	-0.105927	-2.158708	0.278909
N	-0.391891	1.259543	0.63953
H	0.288715	1.470371	1.35876
H	-1.303181	1.164558	1.071376
Br	3.590693	0.0	0.0
