19

C	-0.334804	0.140705	-1.495784
C	0.0	0.0	0.0
F	-0.242385	1.46411	-1.86239
H	1.097628	0.0	0.0
C	0.535716	-0.676348	-2.407877
H	1.569563	-0.372956	-2.223001
H	0.4449	-1.739874	-2.192745
H	0.260846	-0.499409	-3.449647
N	-1.808732	-0.196597	-1.690579
O	-2.625258	0.620379	-1.262896
O	-2.097005	-1.28288	-2.190492
C	-0.513659	-1.311016	0.574722
H	-0.102621	-1.414962	1.580083
H	-1.607472	-1.302575	0.652836
H	-0.209513	-2.178925	-0.016433
N	-0.450491	1.1173	0.818676
H	-1.354648	1.442336	0.497584
H	0.209579	1.875897	0.703071
Br	3.602647	0.0	0.0
