19

C	-0.418224	0.094745	-1.475324
C	0.0	0.0	0.0
F	-1.739259	0.499877	-1.562298
H	1.095545	0.0	0.0
C	0.44671	1.015693	-2.294529
H	1.491617	0.718383	-2.196531
H	0.330753	2.028389	-1.905405
H	0.133879	1.00145	-3.341488
N	-0.388834	-1.290526	-2.092422
O	-1.453318	-1.886023	-2.234968
O	0.723959	-1.731055	-2.362915
C	-0.559776	-1.22735	0.699189
H	-0.155017	-2.150911	0.280048
H	-0.269649	-1.170517	1.748022
H	-1.652214	-1.256484	0.636306
N	-0.393724	1.214299	0.717338
H	-1.271737	1.575785	0.367517
H	0.325468	1.917835	0.608622
Br	3.602647	0.0	0.0
