19

C	-0.488389	0.030149	-1.443989
C	0.0	0.0	0.0
F	-1.839748	0.309368	-1.461855
H	1.101081	0.0	0.0
C	0.251505	1.009221	-2.312465
H	0.074709	2.000756	-1.895622
H	1.319618	0.790183	-2.279929
H	-0.121642	0.962314	-3.339134
N	-0.363714	-1.366722	-2.033917
O	0.761104	-1.707622	-2.383569
O	-1.372521	-2.067939	-2.080389
C	-0.507481	-1.20946	0.776597
H	-0.185774	-1.11275	1.816459
H	-0.090321	-2.142541	0.391304
H	-1.600376	-1.273991	0.744293
N	-0.393488	1.287702	0.582437
H	-1.295885	1.205202	1.034589
H	0.295482	1.530262	1.280736
Br	3.591046	0.0	0.0
