19

C	-0.505986	0.107726	-1.435784
C	0.0	0.0	0.0
F	-0.233196	-1.055628	-2.103066
H	1.099312	0.0	0.0
C	-1.974047	0.430971	-1.597022
H	-2.562725	-0.358189	-1.126917
H	-2.206293	1.377241	-1.115625
H	-2.215315	0.468568	-2.662357
N	0.25805	1.198072	-2.189312
O	0.75723	0.916657	-3.267836
O	0.243676	2.313225	-1.671337
C	-0.451007	-1.31849	0.615189
H	-0.002639	-1.402703	1.609012
H	-1.539212	-1.361774	0.723259
H	-0.100555	-2.165344	0.026611
N	-0.546501	1.105498	0.805692
H	-0.231576	0.942756	1.757199
H	-0.083995	1.956609	0.504363
Br	3.605012	0.0	0.0
