17
Coordinates from ORCA-job run
  C   0.64902939936475     -0.52499348935584     -0.23097471364239
  C   -0.47462626905700      0.42934229413219      0.22525000648640
  H   0.28469184022848     -1.06241858765355     -1.11787979351505
  H   -0.07069274253858      1.03072050210174      1.04895281045966
  C   0.91878674739599     -1.52912338209544      0.80136557165036
  N   1.15051276786524     -2.31140861839658      1.64608423322466
  C   1.93632556508921      0.22190756289858     -0.59006943629880
  H   2.34160656464405      0.71953593676389      0.29443461816101
  H   1.71082630756032      0.97477692015650     -1.34348488255236
  H   2.69299239029515     -0.46607201745209     -0.97216429637083
  C   -1.70736641272979     -0.32622673862961      0.71680399319510
  H   -1.48913321168185     -0.95757735678055      1.58072520683405
  H   -2.49117124886783      0.38108331197570      0.99980385685769
  H   -2.10193868567946     -0.96520908578109     -0.08073558379504
  N   -0.74688323716376      1.34804273536134     -0.88141617979862
  H   -1.25800073419324      2.15263984889945     -0.53835634931392
  H   -1.34495904053169      0.88598016385536     -1.55933906158193
