17
Coordinates from ORCA-job run
  C   0.90533234624374     -0.12434449577655      0.21834083694697
  C   -0.58141324908000      0.12805830821873      0.53224913758988
  H   1.45509339460868     -0.03884833847972      1.16515656006279
  H   -0.91037146243044     -0.73094091270154      1.14205819465462
  C   1.42159494576909      0.91867632697184     -0.67225642323775
  N   1.84248978171049      1.71090035493229     -1.42954645469731
  C   1.17636234807533     -1.51239596805937     -0.37066459853699
  H   0.73005308159696     -1.61621115441610     -1.36039098330205
  H   0.76164725258360     -2.28367750143861      0.28321641806266
  H   2.24970001565040     -1.68476089695700     -0.46746945132217
  C   -1.44301280434631      0.19562997448650     -0.71868234985827
  H   -1.39092907043880     -0.72645679415478     -1.29978401288141
  H   -2.49054169242426      0.34925810748466     -0.44365808550549
  H   -1.12873640687258      1.03307605941713     -1.34532654760547
  N   -0.67927340387846      1.40061093709564      1.24025950015598
  H   -1.65191785439421      1.65666748143874      1.36351000001631
  H   -0.26607722237323      1.32475851193811      2.16298825945773
