17
Coordinates from ORCA-job run
  C   0.92167408217270     -0.12619409080619      0.13385551029741
  C   -0.53664907220360      0.07516343270765      0.58733753508396
  H   1.54652426544372     -0.10956519825806      1.03682117258427
  H   -0.80455405437918     -0.83456525005308      1.15179457727330
  C   1.35294016328124      0.99484805240710     -0.70564539470488
  N   1.70270320290676      1.85349068503210     -1.42583222883212
  C   1.15658824539344     -1.45644391584356     -0.58876873444658
  H   2.22033708685262     -1.60484003324416     -0.78256659767173
  H   0.63492902659096     -1.48391326367758     -1.54614329069845
  H   0.80040024360173     -2.28530218508822      0.02807529784415
  C   -1.49935306287762      0.22510561153253     -0.57994924514044
  H   -1.24464485938585      1.11164212365418     -1.16485051243081
  H   -2.52160715001120      0.34296099749970     -0.20885332407191
  H   -1.48873457118842     -0.64998973438908     -1.23178116682728
  N   -0.58913014110473      1.28646434187809      1.39975521084104
  H   -0.10156330278415      1.14543950646114      2.27737065763513
  H   -1.55086010230842      1.51669892018744      1.62038053326493
