11
Coordinates from ORCA-job run
  C   0.17253056082434      0.42227010084892     -0.10577178929439
  C   -0.92218030071064      0.47542734843115      0.69172819506275
  H   -1.31863280024938      1.42959166336205      1.02638484184766
  C   0.80602093367029     -0.83413390857627     -0.62638206866118
  H   0.81039827332508     -0.82625671216274     -1.71936461049579
  H   1.84538310199738     -0.89550547409485     -0.29420913147446
  H   0.26853822386886     -1.71704297500804     -0.27957388341649
  C   0.78240829562808      1.66302345158866     -0.48849329726465
  N   1.30712353118396      2.66315665610080     -0.81994824206120
  C   -1.59593276017044     -0.70432947775465      1.12656322311022
  N   -2.15665705936754     -1.67420067273503      1.48806676264752
