11
Coordinates from ORCA-job run
  C   0.14541953555630      0.07738344541170     -0.10995123825642
  C   -0.86355209542219     -0.40777887489871      0.65215744196824
  H   -0.95699295482493     -1.47981942893311      0.80222268243301
  C   1.16581820684210     -0.79841432715619     -0.77719721292375
  H   0.97479076809024     -1.85004082142038     -0.55976555787463
  H   2.17049380026551     -0.54150132451776     -0.43217076745688
  H   1.14264504866438     -0.65030767865421     -1.85978730466767
  C   0.27528927733877      1.49129007614797     -0.31203920897461
  N   0.42155076131445      2.64349792828814     -0.50476988074707
  C   -1.83303447335315      0.42435745962413      1.28479990704193
  N   -2.64342787447149      1.09233354610842      1.81650113945784
