11
Coordinates from ORCA-job run
  C   0.14510263806751      0.07266472142419     -0.11449547205360
  C   -0.85012451767539     -0.37804057024006      0.68587271565753
  H   -1.08369116547408     -1.43916847967810      0.70785030937450
  C   0.96081461408786     -0.82697479540394     -0.99693425086003
  H   2.01957686605304     -0.75722274080917     -0.73515100184128
  H   0.63863005475204     -1.86412247763687     -0.89610665343376
  H   0.86054884200417     -0.52460955312005     -2.04237393363509
  C   0.46212405077857      1.47076941312596     -0.14679577693605
  N   0.75921062720786      2.60864773446267     -0.20358503502122
  C   -1.62749972600093      0.47596976960302      1.52195252691911
  N   -2.28369228380064      1.16108697827236      2.21876657182989
