11
Coordinates from ORCA-job run
  C   0.22118292268977      0.41231718541456     -0.00970849279117
  C   -0.70652807611565      0.32486725852271      0.97470329496137
  H   -0.88279123337012      1.15957275853849      1.64660894394404
  C   0.54739540493557     -0.67257077923857     -0.99332429230483
  H   0.37675933664596     -0.31736744570286     -2.01283663024268
  H   1.60239008079963     -0.94672226251087     -0.91332273209077
  H   -0.06445634025605     -1.55779932580320     -0.81810716529719
  C   0.95530266094129      1.63896617826630     -0.13026613381153
  N   1.57553444706269      2.63141283198470     -0.25607602086136
  C   -1.48729629807471     -0.85217218815833      1.17221087233300
  N   -2.13549290525837     -1.82050421131293      1.33911835616111
