11
Coordinates from ORCA-job run
  C   0.13872959543602      0.07308601080862     -0.12199881788028
  C   -0.82684681515452     -0.38303473806914      0.71094290188914
  H   -0.84872998333541     -1.43381356732170      0.98587716741453
  C   1.20861390404083     -0.80666290758686     -0.69993216026355
  H   1.16755617788219     -0.78674583635585     -1.79185404433470
  H   2.19711046856901     -0.44790430504773     -0.40243208550552
  H   1.08846154958251     -1.83641956682470     -0.36092026736354
  C   0.17255882426645      1.45907641575751     -0.48882420950894
  N   0.23767168963613      2.58805752001739     -0.81629083233261
  C   -1.84322867229921      0.45285075794473      1.25978142628464
  N   -2.69189673862400      1.12251021667772      1.72565092160083
