11
Coordinates from ORCA-job run
  C   0.14118317867934      0.06131340672939     -0.12563813960748
  C   -0.83468089057845     -0.30933534379846      0.73721899883128
  H   -0.89843554485792     -1.34323881664038      1.06542211527527
  C   1.16367458677975     -0.89396961591365     -0.66904047818699
  H   1.10726226252980     -0.92959777752324     -1.75993002915100
  H   1.00359841009341     -1.89783441203242     -0.27377513213814
  H   2.17100163817303     -0.56402425304754     -0.40311485888137
  C   0.23131477572920      1.42373793585071     -0.56390640691899
  N   0.34355364463105      2.53016971808126     -0.95030086264029
  C   -1.80714494105714      0.59713117930478      1.25230429753344
  N   -2.62032712012207      1.32664797898954      1.69076049588428
