11
Coordinates from ORCA-job run
  C   0.20386147888516      0.41674057396038     -0.06244455824034
  C   -0.87469045412254      0.46449175585327      0.75721715220743
  H   -1.19651273022738      1.40417480024044      1.19607857538996
  C   0.73697196041723     -0.82024068348577     -0.72324951066072
  H   0.72921008094698     -0.69830236230115     -1.80935542220504
  H   0.13999516655046     -1.69365748586073     -0.45951245363406
  H   1.77272299549838     -0.99126124902993     -0.41893220680480
  C   0.89822722636243      1.64395693694122     -0.32673660070970
  N   1.48871734718179      2.63376409166117     -0.56622986071125
  C   -1.63250067167186     -0.70122190532219      1.07506822514918
  N   -2.26500239982066     -1.65844447265670      1.33809666021937
