11
Coordinates from ORCA-job run
  C   0.17081085199880      0.07173792807420     -0.07185249717110
  C   -1.00346532664122     -0.37079556258833      0.43761411674907
  H   -1.45215421638534     -1.27881141481305      0.04457607377826
  C   0.90586205468539     -0.63378309004849     -1.17425487227660
  H   1.02460023824034      0.02793853477808     -2.03588160465006
  H   0.36722569404175     -1.52910762713242     -1.48724308268626
  H   1.90613139228675     -0.92035297723454     -0.84013491701939
  C   0.77075768526241      1.26800237743408      0.44344666786127
  N   1.29978739472738      2.24290443279861      0.83795493743503
  C   -1.69891623007792      0.29546186810670      1.48884033179567
  N   -2.28963953813834      0.82580553062515      2.35793484618411
