11
Coordinates from ORCA-job run
  C   0.18897183444453      0.42216184430118     -0.06862703334402
  C   -0.82593287357985      0.42894122224475      0.82983470404980
  H   -1.13201206261107      1.35190514556861      1.31345360975065
  C   0.69498600570374     -0.78768470186408     -0.79714121608328
  H   0.60390961101663     -0.64208094459064     -1.87648833336023
  H   1.75391866901155     -0.94283143029554     -0.57536776112800
  H   0.13668393313050     -1.67923577774730     -0.51054694881055
  C   0.84079340605959      1.66855831941705     -0.35060138937295
  N   1.39824117329748      2.67387070636576     -0.60413293125972
  C   -1.53504924362329     -0.75922090298395      1.17545628025422
  N   -2.12451045284982     -1.73638348041584      1.46416101930406
