11
Coordinates from ORCA-job run
  C   0.15238379140821      0.07780161415087     -0.10073979117855
  C   -0.89604434624288     -0.40865341364559      0.60511160483587
  H   -1.14273096523573     -1.46492430611745      0.54333955903235
  C   1.01438157124998     -0.77558612790179     -0.98509470266063
  H   0.98446551689687     -0.40732420472841     -2.01361398834897
  H   0.67667381752191     -1.81262015039243     -0.97047634299681
  H   2.05475655144056     -0.73679565224228     -0.65263043913101
  C   0.48415643611430      1.47091095862054     -0.02390511120283
  N   0.79311317387996      2.60651706782556      0.00867703814186
  C   -1.71538018042257      0.40163182288690      1.44467392851769
  N   -2.40577536661061      1.05004239154409      2.14365824499102
