11
Coordinates from ORCA-job run
  C   0.24670897335743      0.39651207275587      0.03005912242182
  C   -0.69112110744852      0.27429295243079      1.00102336013158
  H   -0.81496553586863      1.04768594412930      1.75315004097461
  C   0.50715928131833     -0.60562128108122     -1.05564048518671
  H   -0.16213250713481     -1.46181610864374     -0.96755650400080
  H   0.36573505489422     -0.14221727845843     -2.03542438921526
  H   1.54174640746106     -0.95430580971140     -1.00347716026385
  C   1.06384961491717      1.57554444970421      0.03369459029243
  N   1.75117868518858      2.53078766113823      0.00827809480814
  C   -1.54894465464312     -0.86240654780179      1.08170856363507
  N   -2.25921421204173     -1.79845605446184      1.15318476640296
