11
Coordinates from ORCA-job run
  C   0.24715002737562      0.39750465712467      0.01892203077011
  C   -0.72114582003167      0.31910289276433      0.96429089593907
  H   -0.86795522844628      1.12607171290620      1.67591175337659
  C   0.53975023052319     -0.65331100552410     -1.01121705746673
  H   1.57119195973439     -1.00061238364002     -0.90976991272246
  H   0.43023436873063     -0.23609237334493     -2.01548805657672
  H   -0.13363022711183     -1.50420132268970     -0.90437099947611
  C   1.06340755958269      1.57689024348134     -0.00459662384384
  N   1.74917825456172      2.53268957459998     -0.04745330654337
  C   -1.58274651133470     -0.81242482251008      1.06986792300098
  N   -2.29643461358377     -1.74361717316769      1.16490335354248
