11
Coordinates from ORCA-job run
  C   0.14092794342964      0.06435824992458     -0.12408914439313
  C   -0.83881230493173     -0.33026467760779      0.72352069124167
  H   -0.89367854048852     -1.36937860643854      1.03590454040197
  C   1.18057620013966     -0.87041850263645     -0.67074031871742
  H   1.02909048280726     -1.88203936904668     -0.29212942722434
  H   1.13688531925679     -0.89017635917694     -1.76253281942134
  H   2.18060785896846     -0.53194160874241     -0.38836022472502
  C   0.22023851041563      1.43425341189434     -0.54092780370283
  N   0.32406268599706      2.54751020480835     -0.90976208107751
  C   -1.82621923490926      0.55735707986856      1.24304599109059
  N   -2.65167892068499      1.27074017715299      1.68507059652736
