11
Coordinates from ORCA-job run
  C   0.14207184187465      0.05899530171608     -0.12508264440939
  C   -0.85031878114058     -0.29998062940684      0.72362667790922
  H   -0.89795179911186     -1.31951989231118      1.09594548427000
  C   1.20780417451152     -0.88980192409156     -0.59142307932354
  H   1.06455164318683     -1.87846787437445     -0.15345448886550
  H   1.18829110388299     -0.97695398541154     -1.68054261515206
  H   2.19579035606223     -0.51683291301331     -0.31020886673373
  C   0.21136083903495      1.40267354119993     -0.62091935709228
  N   0.30843453766997      2.49315501067904     -1.05393530037647
  C   -1.86186860542037      0.60138430631984      1.16742078612321
  N   -2.70716531055033      1.32634905869396      1.54857340365055
