11
Coordinates from ORCA-job run
  C   0.27677604025525      0.37376537674238      0.05153136380363
  C   -0.74317808083069      0.33645755352056      0.94364982164999
  H   -0.86065737310828      1.12141476324141      1.68474632547381
  C   0.53745016438533     -0.65220394162937     -1.01178592814934
  H   -0.20625827582061     -1.44881717127451     -0.97902711854090
  H   0.51493227683009     -0.18331189747693     -1.99876806123023
  H   1.53117980693576     -1.08700844552904     -0.87712879311829
  C   1.18690114631932      1.48048476677517      0.12066997669899
  N   1.95098431080254      2.37553804908323      0.14872471478923
  C   -1.69799484497687     -0.72284117386761      0.95300885699434
  N   -2.49013517079183     -1.59347787958531      0.96537884162877
