11
Coordinates from ORCA-job run
  C   0.16455831351067      0.08387982721010     -0.07267281561207
  C   -0.95825982124668     -0.45381392123561      0.46045970701452
  H   -1.45359165432718     -1.27683980755438     -0.04712703789416
  C   0.78001195081414     -0.40209009128365     -1.35284043355339
  H   1.80387079832197     -0.74134702751150     -1.17669567834003
  H   0.82393824371700      0.40847891536087     -2.08455690719008
  H   0.20097449305625     -1.22621178222423     -1.77175287790465
  C   0.82510711315878      1.17020948517654      0.59098400478208
  N   1.40050009673424      2.06207162730244      1.10050689124659
  C   -1.54311701084177      0.00616564612133      1.67665090695191
  N   -2.04399252289740      0.36949712863811      2.67804424049927
