17

C	-0.349738	0.124131	-1.481369
C	0.0	0.0	0.0
Cl	-0.187781	-1.485428	-2.321588
H	1.103111	0.0	0.0
H	-1.399833	0.396714	-1.643719
C	0.639004	1.079048	-2.136456
H	0.610857	1.00629	-3.225355
H	1.631613	0.830074	-1.738564
H	0.397367	2.109168	-1.857894
N	-0.651225	-1.162463	0.628848
H	-0.248033	-1.98989	0.199892
H	-0.310785	-1.178022	1.586545
C	-0.470219	1.254466	0.725478
H	-0.236206	1.162255	1.791634
H	-1.55384	1.398951	0.626427
H	0.057898	2.138997	0.365849
F	2.773593	0.0	0.0
