17

C	-0.429375	0.015551	-1.464421
C	0.0	0.0	0.0
Cl	0.164866	1.510797	-2.298311
H	1.095622	0.0	0.0
H	0.105459	-0.799099	-1.959651
C	-1.924304	-0.073226	-1.737148
H	-2.438912	0.799819	-1.332124
H	-2.351183	-0.970562	-1.278555
H	-2.124128	-0.117204	-2.810592
N	-0.313441	-1.308759	0.611255
H	0.506102	-1.889809	0.469938
H	-1.110055	-1.767536	0.184233
C	-0.594631	1.114664	0.83898
H	-1.675924	0.994842	0.991072
H	-0.115165	1.083829	1.818865
H	-0.405874	2.096011	0.396228
F	2.688871	0.0	0.0
