15
Coordinates from ORCA-job run
  C   -0.75259150109561     -0.00412676340411      0.53045224493397
  C   0.50195702759488     -0.42082449482567     -0.23552568109940
  Br  -0.27545113499727      0.91311383068764      2.19416211383566
  H   0.11701198778669     -0.88677371929061     -1.15912430249868
  H   -1.28319721639601     -0.90307291689642      0.85782630463335
  C   -1.66544154110972      0.88347682224225     -0.29212773885496
  H   -1.13679901754421      1.78906567272761     -0.58522934079275
  H   -1.97067855787413      0.35116277023307     -1.19901974706834
  H   -2.56102184616263      1.14941422491951      0.27072680240560
  N   1.30421990362832     -1.33938624959678      0.56717242807721
  H   2.03111943610287     -1.74521302663880     -0.01103278658540
  H   0.73665921807552     -2.09904307270358      0.92748999891711
  N   1.25646220886298      0.74133705096462     -0.64958815641524
  H   1.92311691465532      0.48771224306083     -1.36826183505696
  H   1.77563411847301      1.08115762852044      0.15307969556884
