15
Coordinates from ORCA-job run
  C   -0.69765467754140      0.10196498105702      0.75425181333789
  C   0.72765678604556     -0.27331005840839      0.33023189505186
  Br  -0.61717899922280      1.37068939328492      2.23766277003943
  H   1.31503940682275     -0.44954395673525      1.24132629975337
  H   -1.18305934605152     -0.77965917246634      1.18207466386246
  C   -1.52973768535175      0.67590027352910     -0.37451171043631
  H   -2.55679866223182      0.84811643390291     -0.04994961906376
  H   -1.53417834964974     -0.03023192688672     -1.20834420723163
  H   -1.10995916366673      1.62660679491846     -0.70472191505940
  N   1.35439992188057      0.81674893556600     -0.38011338202356
  H   1.07876717568619      0.78419926499816     -1.35456573396951
  H   2.36199222208917      0.75329650536017     -0.32764821890147
  N   0.61431258076627     -1.46551989656158     -0.52060425377650
  H   1.54109537952109     -1.73433609461490     -0.83253521182344
  H   0.23630341090419     -2.24492147694357      0.00844681024058
