15
Coordinates from ORCA-job run
  C   -0.85992588650475     -0.08052795427828      0.38960648933226
  C   0.64363493662421     -0.30473969504071      0.21212298907177
  Br  -1.31809579252289     -0.30523233634567      2.27620440045028
  H   1.16910776162276      0.30557581527743      0.96134888354816
  H   -1.38995757625382     -0.87932514273063     -0.13529462717518
  C   -1.34334134616541      1.27972485028706     -0.07986064467353
  H   -0.79077815901367      2.08147360496758      0.41800201675570
  H   -1.21367896702035      1.36310456254954     -1.16103793962702
  H   -2.40154290284698      1.41285315427870      0.14597495338897
  N   0.98603507405627      0.05874750121856     -1.17132804326980
  H   1.93302642960369     -0.25331025911767     -1.35534370239501
  H   0.97803548837140      1.06600187569517     -1.29072497218227
  N   0.96459258101546     -1.68656671368678      0.47990780190678
  H   1.95811588676679     -1.80746907570861      0.62813171862464
  H   0.68577247226731     -2.25031018736568     -0.31570932375576
