15
Coordinates from ORCA-job run
  C   -0.82557693974185     -0.09356906293577      0.47218323129601
  C   0.44651212269550     -0.53403568738184     -0.24735006169487
  Br  -0.46140047547861      0.35910918918088      2.34252788788904
  H   0.09164707466224     -0.89093414753947     -1.23082348770934
  H   -1.47760542395887     -0.96666853556808      0.52603665650474
  C   -1.52546667888946      1.07675663667942     -0.19445208492840
  H   -0.93285436634412      1.98899505269845     -0.10853129629598
  H   -2.49405504484225      1.26492840416633      0.27015260340127
  H   -1.69134944247537      0.85414066236496     -1.25438721211285
  N   1.01799656041706     -1.68397489517535      0.41409539354971
  H   1.72886698726830     -2.10766133183359     -0.16995169863978
  H   1.45470423274084     -1.38071156173728      1.27772105136211
  N   1.39060988899458      0.57546744539024     -0.35736644538722
  H   1.02773392126796      1.30358524502232     -0.96256867415865
  H   2.24823758368406      0.23657258666878     -0.77728586307580
