15
Coordinates from ORCA-job run
  C   -0.80382383892228     -0.13830653569881      0.34009208657841
  C   0.58758860305204     -0.46479194759148     -0.22485292027011
  Br  -0.71824065871074      0.29156675881996      2.24688947442303
  H   0.37833640360578     -0.84497496402344     -1.24275683927686
  H   -1.40256173370545     -1.05253125179363      0.29510736229115
  C   -1.50314132527324      0.98905239301133     -0.39861540070240
  H   -0.99857570705985      1.93904248546257     -0.21641610244205
  H   -1.50132218754814      0.78264711993522     -1.47482573504115
  H   -2.53886180416063      1.09125590213554     -0.07235437435294
  N   1.32493950706418     -1.50832300079443      0.45516465440323
  H   1.44715272793116     -1.23738367044566      1.42514774035766
  H   0.81074831982198     -2.38053045518990      0.43259124053974
  N   1.43396748277489      0.71158132958894     -0.21084442311692
  H   2.36674521718479      0.41932700637449     -0.47597199364055
  H   1.11604899394551      1.40136883020930     -0.87935476975025
