15
Coordinates from ORCA-job run
  C   -0.76440387290712     -0.07468319088968      0.38567543887396
  C   0.53758243848244     -0.44569863737488     -0.33620853919607
  Br  -0.36993082961337      0.56784961052997      2.20627247562086
  H   0.21087783278157     -0.82406754330296     -1.31492345298622
  H   -1.33699137885112     -0.99011076888621      0.55424679960182
  C   -1.59409630262676      0.95944866045148     -0.34829128847976
  H   -1.81360980811596      0.58799251362624     -1.35459056177253
  H   -1.04177985524127      1.89227903013777     -0.44617833618358
  H   -2.53817389293935      1.14545946411189      0.16610418386552
  N   1.31434816552075     -1.51950113018469      0.27259927286388
  H   0.78365883827154     -2.38431448075847      0.27866010879942
  H   1.52377008151240     -1.28064955676817      1.23634902653239
  N   1.32397312945462      0.74478570964241     -0.57452633002105
  H   2.17906176905565      0.46415122624812     -1.04027479660966
  H   1.58671368521598      1.15605909341719      0.31508599909100
