15
Coordinates from ORCA-job run
  C   -0.76060760920526     -0.06189838433058      0.46228923493611
  C   0.47645709838277     -0.59904880197190     -0.26897024176544
  Br  -0.23842426352566      0.73701284856690      2.18418857728323
  H   0.08300948664462     -1.00850073655610     -1.20968269784677
  H   -1.38627875715485     -0.91280906873847      0.73699838095550
  C   -1.53985207628617      0.96380332552327     -0.33589918109642
  H   -2.44069760790920      1.27314487358958      0.19515596339831
  H   -1.83862472519206      0.52651788546572     -1.29431524906381
  H   -0.93833942486441      1.85381602412904     -0.52811207479299
  N   1.02953306957055     -1.70789872589679      0.47970959837948
  H   1.31062216888693     -1.38597526942840      1.39963481493316
  H   1.86829092255725     -2.01563365930224      0.00085437570898
  N   1.48266749431009      0.38557255758072     -0.64372925293598
  H   1.13108818565973      1.02455203283895     -1.34689176831252
  H   1.75915603812567      0.92634509853030      0.16876952021914
