15
Coordinates from ORCA-job run
  C   -0.65342639914606      0.15379437863457      0.74808958756153
  C   0.73111442056345     -0.42738622393706      0.40883637831238
  Br  -0.42504649947318      1.68420797376584      1.95632684167884
  H   1.19815953126780     -0.70129620498881      1.35961276016793
  H   -1.18951432664064     -0.58930911581099      1.33968709623679
  C   -1.48051804258431      0.57804691166477     -0.44992925408947
  H   -2.43623296007333      0.99480792039283     -0.13073332398363
  H   -1.69114152949860     -0.29071845941023     -1.07961387072324
  H   -0.96836860165571      1.34025264108959     -1.04071063080133
  N   1.66740349510225      0.45577972638339     -0.27295707644244
  H   1.26790081434798      0.79227599584148     -1.14210085353633
  H   1.87701757031734      1.26315021545567      0.30294141802961
  N   0.49694578386099     -1.66034447397187     -0.32706471440776
  H   1.38043517967481     -2.15364327163666     -0.39155675645371
  H   0.22627156393721     -1.43961801347251     -1.27982760154916
