16

C	0.0	0.0	0.0
C	-0.473373	-0.226869	-1.456072
F	1.387136	0.0	0.0
H	0.472047	-0.309234	-2.006847
H	-0.341244	-0.801307	0.660037
C	-0.40115	1.293319	0.580303
N	-0.604537	2.348295	1.051923
C	-1.27501	0.932688	-2.043389
H	-2.222536	1.047767	-1.511445
H	-0.715067	1.871324	-1.999436
H	-1.499511	0.71947	-3.092193
C	-1.225896	-1.550714	-1.58198
H	-1.433033	-1.756401	-2.636083
H	-0.62603	-2.378212	-1.189169
H	-2.178971	-1.495857	-1.051616
Br	-4.248941	0.0	0.0
