13
Coordinates from ORCA-job run
  C   0.53654360162907      0.02995150486655      0.04693945858324
  C   -0.82572908297518      0.14041432234294      0.04271998586164
  N   1.40442775936608      1.11684026663748      0.07702785971136
  H   2.12116761278619      1.08429016559954     -0.63528550251435
  H   0.92723772375542      2.00792189235523      0.07837619187377
  N   1.15060565514438     -1.20409894821638      0.19944050254190
  H   0.76153460155516     -1.95255875497397     -0.35062020924739
  H   2.15687060184544     -1.18382544766415      0.22232248555517
  C   -1.40011657310759      1.42210048188808     -0.20004734897036
  N   -1.83944806041116      2.48877315291245     -0.44034994113064
  N   -1.70417188440577     -0.93383648673895      0.36222886808236
  H   -1.28236602571758     -1.55174433930238      1.04306130966199
  H   -2.00655592946446     -1.46222780970643     -0.44581366000868
