13
Coordinates from ORCA-job run
  C   0.56002931892399      0.04323610235284     -0.02605343564517
  C   -0.80443424093476      0.13994180319568      0.03478006440026
  N   1.40378428199986      1.10818077878673     -0.29485976052115
  H   2.20862681280162      1.13996085542896      0.31483858765100
  H   0.93177828768460      1.99977748253410     -0.35007294855067
  N   1.23308738317670     -1.14976622905481      0.16803265352433
  H   2.00991965024681     -1.27899626969637     -0.46392236563918
  H   0.62427992977115     -1.95169480204124      0.20609052380251
  C   -1.37891470155329      1.44558857044561     -0.00080312555043
  N   -1.79412958225204      2.54767566624426     -0.03709628138100
  N   -1.69122449994504     -0.97125029490062      0.11874202006254
  H   -1.64354818731402     -1.60239550195936     -0.66771030909306
  H   -1.65925445260558     -1.46925816133576      0.99603437694002
