13
Coordinates from ORCA-job run
  C   0.61979861720874      0.02414524309875     -0.18585204856988
  C   -0.72642090034329      0.06431245012207      0.08036515972161
  N   1.27136358183875     -1.18497484476872     -0.26224280057717
  H   2.22700769199464     -1.19386477349603      0.05899056116590
  H   0.69513445021400     -1.92450506502273      0.11783241294687
  N   1.34763165428183      1.13905321059954     -0.53490234715540
  H   2.34279492811664      1.08634547323970     -0.39267394953934
  H   0.94343414761805      2.01996849736944     -0.25631934501665
  C   -1.40874451504092      1.30851154895310      0.05491774636836
  N   -1.95742131123312      2.35302411168136      0.05151201201023
  N   -1.39517636633366     -1.17096579543794      0.36975914357305
  H   -1.89294841335313     -1.11759126967139      1.25011067602634
  H   -2.06645356496853     -1.40445878666711     -0.35249722095393
