13
Coordinates from ORCA-job run
  C   0.54816307421596     -0.04476645583696     -0.12967619641770
  C   -0.81473985246522     -0.01545215103695      0.00570358055653
  N   1.40767531699582      0.17479539414382      0.93147701291505
  H   2.21127125183744      0.73482532428668      0.68722927875699
  H   0.94002478870609      0.50412970491357      1.76142215589254
  N   1.20311690499597     -0.28314226917559     -1.32597400334875
  H   0.58693835679099     -0.52992707160079     -2.08742568976615
  H   1.98082123637619     -0.92257318324371     -1.23853838482631
  C   -1.59942955356785     -0.43404013358194     -1.11073169108329
  N   -2.19486545407703     -0.78876922170830     -2.06367180580777
  N   -1.50044564308484      0.41619234654166      1.17458697135089
  H   -1.35371510333281      1.38315234245587      1.42224306897909
  H   -1.41581532339071     -0.19542462615737      1.97235570279888
