13
Coordinates from ORCA-job run
  C   0.64220809353748      0.07229235499669      0.04736673534176
  C   -0.73033931099541      0.04188979277635      0.04744743994577
  N   1.36531730728492      1.23868562598920     -0.05586461093731
  H   0.87017689069284      2.01679182496199     -0.46349441369149
  H   2.31592669354009      1.15021326199681     -0.37502730488840
  N   1.35638737847005     -1.07346911752426      0.30965763345138
  H   2.23655171509722     -1.16863082577647     -0.17261792330118
  H   0.75810072739315     -1.88723778335735      0.25660289816977
  C   -1.45927332343802      1.24771390502799     -0.12203778385963
  N   -2.05389262978792      2.25360907646079     -0.28566288227229
  N   -1.37821101675481     -1.22458625994203      0.23015349345676
  H   -1.89000982340656     -1.25503132307734      1.10393213582213
  H   -2.03194270163305     -1.41024053253235     -0.52045541723726
