13
Coordinates from ORCA-job run
  C   0.53452256638177      0.03369121672441      0.05554458099059
  C   -0.82895847753964      0.13042809981243      0.03321103806239
  N   1.38948711704889      1.12880106603165      0.11505454191249
  H   2.11819564200082      1.11585801598497     -0.58550378852377
  H   0.90435500777831      2.01535671008963      0.12703520015312
  N   1.15879799089179     -1.19654843264811      0.19665088104083
  H   0.78359747213709     -1.93988272198582     -0.36914543009608
  H   2.16406849002304     -1.16787917764222      0.23989505464538
  C   -1.40920386171688      1.40985021666719     -0.20963344193574
  N   -1.84075460576464      2.48131064613384     -0.44249367969220
  N   -1.70228663510648     -0.95543710607328      0.32738090639267
  H   -1.98879123964102     -1.47589866375762     -0.49167057939721
  H   -1.28102946649302     -1.57864986933709      1.00367471644751
