13
Coordinates from ORCA-job run
  C   0.65172462870409      0.04594619346115     -0.02345908749195
  C   -0.71686713317208      0.03556111250475      0.01047667810644
  N   1.41212463995552      1.16094636710961     -0.32237038366376
  H   0.87947987775865      2.01510265456160     -0.40329967483636
  H   2.21860372784167      1.26527400527643      0.27621034695207
  N   1.38062523386731     -1.09158098944695      0.24157290656544
  H   0.77636985519786     -1.90234292099378      0.27969028230168
  H   2.18207536422260     -1.20763610201803     -0.36135970313705
  C   -1.43088613112519      1.26180008247130     -0.08565676603573
  N   -2.01665350157663      2.28207299224880     -0.17027742877181
  N   -1.38767711188128     -1.22329629817578      0.15711831892550
  H   -2.02396249668410     -1.38918508472404     -0.61342558964753
  H   -1.92595695310842     -1.25166201227504      1.01478010073306
