13
Coordinates from ORCA-job run
  C   0.63916582149891      0.02241319767892     -0.07323279973741
  C   -0.71285511924274      0.11082515958844      0.09243412385334
  N   1.33659791516675     -1.10811092615775      0.32976209715304
  H   0.74114735316130     -1.79257744708423      0.76629335202835
  H   1.91774560597259     -1.47351316344558     -0.40815949006670
  N   1.43018213456100      0.99926366091379     -0.64933043570261
  H   2.24262911233329      1.24520360641470     -0.10083656882282
  H   0.91016610344534      1.80017636977306     -0.97774450854581
  C   -1.35388805890401      1.37464509884570      0.03834412229429
  N   -1.85053300377748      2.44512919778256      0.04085125827717
  N   -1.44282861542896     -1.06718702069918      0.50266774427683
  H   -1.45052445253318     -1.73235335387562     -0.26101360620478
  H   -2.40700479625282     -0.82391437973480      0.69996471119713
