13
Coordinates from ORCA-job run
  C   0.53034334620178      0.05978757730136      0.07392755852174
  C   -0.83211475567336      0.10379163259998     -0.02747992226236
  N   1.34942855333954      1.18364747258741      0.02858962556836
  H   0.83685352465660      2.04518644726803     -0.10094847888619
  H   2.10969669178247      1.10492789893106     -0.63308829846994
  N   1.18306081692954     -1.11608866732714      0.40844472808648
  H   2.18392349614866     -1.04682496103393      0.49021652785543
  H   0.85766089871052     -1.94485725126597     -0.06148114546114
  C   -1.43961712200370      1.32100943280092     -0.45252555473717
  N   -1.89535707515250      2.33879298216509     -0.83338808031272
  N   -1.68611608953996     -0.96757612205778      0.36203319217089
  H   -1.28957932260910     -1.47717825354569      1.14081985339423
  H   -1.90718296279049     -1.60361818842333     -0.39312000546763
