13
Coordinates from ORCA-job run
  C   0.65042899276971      0.05230257395339     -0.04448645556557
  C   -0.71577975446623      0.03013357233764      0.04202617298571
  N   1.38402684031849     -1.11288810342689     -0.04732439138278
  H   2.23397129193843     -1.05699899745666      0.49468433880732
  H   0.79836672476234     -1.90301968100782      0.19115534972770
  N   1.40378697310411      1.20798512867783     -0.13071170895311
  H   2.15605296975268      1.14444237291902     -0.80122739335477
  H   0.85748798561911      2.05005775992296     -0.24368337150931
  C   -1.45125905111804      1.23293738239982     -0.14441336161030
  N   -2.05480696717928      2.23487618626829     -0.29642983045346
  N   -1.36327357198934     -1.22221774487093      0.30418543403208
  H   -1.93218472450098     -1.17008380594259      1.14081774647933
  H   -1.96681770901099     -1.48852664377408     -0.46459252920284
