13
Coordinates from ORCA-job run
  C   0.64397731858831      0.04525816683698     -0.10838913289289
  C   -0.70748753387583      0.03893763601400      0.10972184898989
  N   1.38860836577550      1.18807491189614     -0.33276472742352
  H   0.83596432342002      2.02613797782233     -0.44324089842002
  H   2.07286492172624      1.07891227121580     -1.06741645719743
  N   1.37126037808936     -1.12390733280335     -0.11264140086232
  H   0.80897893855268     -1.89416336097229      0.22546947003419
  H   2.26874301753645     -1.04367399068087      0.34273990618302
  C   -1.45595580600502      1.23353088740775     -0.07908089666353
  N   -2.07242726287910      2.22707580822369     -0.23382205679042
  N   -1.33122632121000     -1.19112968749333      0.50272104809433
  H   -1.81794307399535     -1.08742831408635      1.38504090692706
  H   -2.00535726572324     -1.49562497338051     -0.18933760997835
