13
Coordinates from ORCA-job run
  C   0.55533713026477     -0.04049936578634     -0.07318999295103
  C   -0.81242387860358      0.01908753049755     -0.09318771337200
  N   1.34904615826714     -0.08380420028084     -1.20766025981888
  H   2.08999888979590     -0.76783641722819     -1.14563650972475
  H   0.82634579923869     -0.16543325066989     -2.06845621144929
  N   1.28420417067024     -0.05402980618381      1.10242089007008
  H   2.12192366325064      0.50800720818128      1.06295401656410
  H   0.72785771348169      0.13195578918814      1.92152683205532
  C   -1.46520299686592     -0.15451014167995     -1.35017616046184
  N   -1.94634973894915     -0.30485198766090     -2.41511555731635
  N   -1.62892056822575      0.25802099034339      1.04951558031675
  H   -1.63880747072017     -0.49512194882611      1.72143161798481
  H   -1.46300887160450      1.14801560010566      1.49657346810307
