13
Coordinates from ORCA-job run
  C   0.55801745835287      0.06001386778239     -0.03982037315946
  C   -0.80727568917956      0.11577083384934      0.04968648290335
  N   1.36296714015839      1.14785463984674     -0.33433627486899
  H   0.86241207679854      2.02384504090711     -0.38704205375160
  H   2.17962126800269      1.20981841719988      0.25708078518634
  N   1.27018745286737     -1.11054346499206      0.14942699090518
  H   2.03930341265273     -1.22217146360210     -0.49512378261836
  H   0.68544002549210     -1.92918597944505      0.20617510617895
  C   -1.42206642546904      1.40306351198038      0.02068053743502
  N   -1.87358424944891      2.49108333228534     -0.00765901099990
  N   -1.65733130818881     -1.02152988420778      0.16126172110501
  H   -1.59092239567173     -1.51124483089040      1.04130961471306
  H   -1.60776876636665     -1.65677402071379     -0.62163974302860
