13
Coordinates from ORCA-job run
  C   0.65037713122701      0.06731360031737      0.01030457660287
  C   -0.71741635575209      0.01388621170265     -0.01535491223660
  N   1.38036426693893      1.24050458763647      0.04380884817545
  H   0.82551815371804      2.07683211760917     -0.06846917034639
  H   2.18541591180944      1.22696683646364     -0.56549607341606
  N   1.40959833054315     -1.08116101626944      0.00950070772098
  H   2.21068861292728     -1.03655543211880      0.62224216722842
  H   0.82611313335867     -1.89440315899415      0.15843527985526
  C   -1.46375446176237      1.21001951618190     -0.20147639384967
  N   -2.07658519810389      2.20642963808416     -0.35239635809340
  N   -1.35412305799203     -1.26257773886313      0.13121090936145
  H   -1.98716356769764     -1.26601191353042      0.92197415755552
  H   -1.88903289921450     -1.50124324821942     -0.69528373855783
