13
Coordinates from ORCA-job run
  C   0.63405354512688      0.03078112356379     -0.12918321776131
  C   -0.73177420023680      0.04620474119297      0.00799704501313
  N   1.32160919236266     -1.15765540249632     -0.04488202116850
  H   0.73241844875472     -1.88319723850031      0.34210049931669
  H   2.24377730983286     -1.10822589410399      0.35969775771407
  N   1.36176647252805      1.13807072339812     -0.50228090144399
  H   0.90788202118877      2.02384588175176     -0.33994092922812
  H   2.33912126338945      1.13302247858012     -0.26108608049553
  C   -1.44257592910108      1.25991713786318     -0.18099915426197
  N   -2.01879504942766      2.28026201423527     -0.31888853240286
  N   -1.39165500591892     -1.18463172690275      0.33452654889912
  H   -1.97220730687060     -1.07867157968802      1.15735861919513
  H   -1.98362076162835     -1.49872225889380     -0.42541963337586
