13
Coordinates from ORCA-job run
  C   0.55783054634724      0.07561822250695     -0.01353254793502
  C   -0.81123904974273      0.08642015639940     -0.03386041479583
  N   1.29284872775467     -1.08996363353468      0.11008593487429
  H   0.72944882342698     -1.89484203792065      0.33383210763370
  H   2.09601690767980     -0.99505639141778      0.71449885008303
  N   1.34592026825266      1.21108047001035     -0.10382717696382
  H   0.82387973597842      2.05684056920928     -0.28571405700360
  H   2.12692785800252      1.10190261792247     -0.73532238194691
  C   -1.46121476893986      1.31670827879871     -0.35001360742835
  N   -1.94276036364856      2.35802524303708     -0.61873974526167
  N   -1.63267733090578     -1.04232394947183      0.24854205264857
  H   -1.59952862811365     -1.77182489926583     -0.44799205889068
  H   -1.52445272609170     -1.41358464627348      1.18104304498630
