13
Coordinates from ORCA-job run
  C   0.64806810266528     -0.08574033200013     -0.02914930967806
  C   -0.71254966864300      0.06511936272134     -0.05029447837754
  N   1.38656151919057     -0.61023407810899     -1.07325740006530
  H   2.24299765669878     -0.10526208509600     -1.24904960855402
  H   0.85415939838004     -0.77125721442087     -1.91623672085110
  N   1.38943298764630      0.28121063963955      1.07124090247013
  H   0.78452292068247      0.49022460297676      1.85511263091506
  H   2.13428018614025     -0.36377644902623      1.29122990460463
  C   -1.42443196107400     -0.14820451473476     -1.26283051360222
  N   -2.00966740817950     -0.32982903268923     -2.27069243815410
  N   -1.37612245739190      0.45417600588795      1.16021025365637
  H   -1.83738852146721      1.34950507407905      1.05127982637063
  H   -2.07886275464807     -0.22593197922845      1.42443695126551
