13
Coordinates from ORCA-job run
  C   0.53848956767977      0.02961806933516     -0.03606337528373
  C   -0.83376131032641      0.12472192011840      0.01356590607744
  N   1.38838484224607      1.11637707234859     -0.28386498090594
  H   0.92307690301091      2.01064077567272     -0.29420622496093
  H   2.19088415215556      1.11987698979373      0.33772666887144
  N   1.20547794479144     -1.16896394826656      0.16397767830244
  H   2.08943756593700     -1.21176685599432     -0.32387761147014
  H   0.62560299898868     -1.98671149484725      0.02130937329829
  C   -1.38392816808641      1.44973873246940     -0.01340365147412
  N   -1.74126246559529      2.57594615462602     -0.13237309686754
  N   -1.70437796624703     -0.97275008783103      0.20326312462412
  H   -1.44480844998491     -1.56255006106145      0.97962097932218
  H   -1.85321561456938     -1.52317726636342     -0.63567478953350
