13
Coordinates from ORCA-job run
  C   0.64180259287598      0.06478230179582      0.03726968231527
  C   -0.73069138291169      0.02615911086510      0.06133183649392
  N   1.36220507423864      1.24460288191205     -0.00966066538967
  H   0.80031667143085      2.05472899538079     -0.22878120705518
  H   2.20269832500872      1.20489545348620     -0.56637650614919
  N   1.36498698740613     -1.08294791548664      0.20786253529653
  H   0.81538106426071     -1.91863238016554      0.07689894147618
  H   2.31680004063356     -1.10210477478007     -0.11726163145468
  C   -1.46549785282416      1.23170631513995     -0.08244299397591
  N   -2.05119910959442      2.24701000355897     -0.21927019694873
  N   -1.36497642224391     -1.24776659712472      0.22730657475671
  H   -2.04516625723807     -1.41266355448488     -0.50468159513115
  H   -1.84565973104236     -1.31076984009701      1.11680522576591
