13
Coordinates from ORCA-job run
  C   0.55578371238536      0.05076961641047      0.00790111594649
  C   -0.81119318100698      0.13085407621567      0.02290301323261
  N   1.40500488435178      1.13761455002115      0.12749492262917
  H   2.15548172990415      1.12503286757130     -0.54856406451952
  H   0.92595041370816      2.02634992412980      0.15628335369796
  N   1.22750981723966     -1.15224731705837     -0.13133475735275
  H   2.04489918990565     -1.22186078889514      0.45835873712782
  H   0.62207741241442     -1.95325065381976     -0.04376110945071
  C   -1.39281682518125      1.43213354937299     -0.03367319944258
  N   -1.80430318330287      2.53394097329780     -0.10347012859496
  N   -1.69101765950777     -0.99155978318214      0.02691075891091
  H   -1.60976431541006     -1.56045549830666     -0.80264127807981
  H   -1.62761199550026     -1.55532151575710      0.86259263589538
