13
Coordinates from ORCA-job run
  C   0.64155325989676      0.07634380566967     -0.04864286625943
  C   -0.72955657404831      0.01078102560279     -0.06848859942405
  N   1.41136093243909     -0.00078051605542     -1.18646609403284
  H   0.96604436810618     -0.43735694265655     -1.97859270053076
  H   2.37356957118998     -0.26813435003519     -1.06116722847162
  N   1.30042720755203      0.38063558084437      1.12049443495917
  H   0.67328230960930      0.30549248674839      1.91076489035249
  H   2.19269547704403     -0.06941977657253      1.25396745549616
  C   -1.40466890207175     -0.19822764923478     -1.29928626280184
  N   -1.95222717359724     -0.39366657400083     -2.32602529325261
  N   -1.43218873969156      0.17356553038866      1.17106588360343
  H   -1.98146143214963      1.02489149997635      1.17493666479628
  H   -2.05983030427888     -0.60312412067495      1.33843971556564
