13
Coordinates from ORCA-job run
  C   0.52856360148163      0.06825010908059      0.07749529605921
  C   -0.83341211432759      0.09370166855554     -0.03570359832845
  N   1.19116750229575     -1.09323207748401      0.44337575409835
  H   0.88058792722039     -1.93352132629045     -0.01625795020908
  H   2.19042465908443     -1.01057584026770      0.53237634444661
  N   1.33495639074219      1.20011653038329      0.01525002840793
  H   2.10636270847090      1.11386186370731     -0.63255380827658
  H   0.81470633373302      2.05214654317399     -0.14284435853590
  C   -1.45178244042769      1.29361036345077     -0.49304468255822
  N   -1.91677758487943      2.29640807381934     -0.90150453341369
  N   -1.67771094109945     -0.97943818880141      0.36927382430427
  H   -1.28001891126088     -1.46964452417743      1.15983825560667
  H   -1.88606713103326     -1.63268319514983     -0.37470057160112
