13
Coordinates from ORCA-job run
  C   0.63597307382905      0.02284001634056     -0.15551400630002
  C   -0.72802205493740      0.02038638449481     -0.00262374689970
  N   1.33949210269727      1.11485458586678     -0.63499201012369
  H   2.22847844586559      1.27488665260115     -0.18566724165735
  H   0.78348744695832      1.95564429215567     -0.67950674218258
  N   1.35019474802917     -1.12803526581782      0.02460371549871
  H   0.83299623033922     -1.84808373429788      0.50816942503369
  H   2.33239719111411     -1.04825591983911      0.22668609505540
  C   -1.46226729188008      1.22305807136804     -0.17606306037123
  N   -2.06984395452299      2.22870004988767     -0.28361330248199
  N   -1.35891928843266     -1.19906692877084      0.41332371007208
  H   -1.97296515718534     -1.56885935288043     -0.30316013703786
  H   -1.91100149187427     -1.05006885110862      1.24835730139455
