13
Coordinates from ORCA-job run
  C   0.64907440593822      0.06911849305386     -0.04028310121546
  C   -0.71711332439743      0.00916819481340      0.02647294521477
  N   1.35954249017253      1.19928385973564     -0.39827027655571
  H   2.17551898261418      1.35641805668828      0.17527786908741
  H   0.79328808391705      2.02979863598267     -0.49737652863831
  N   1.42578755875617     -1.03026213268992      0.24906771228477
  H   0.85269899964695     -1.86069878646392      0.32758439064513
  H   2.21850264505574     -1.13830173532127     -0.36687831974415
  C   -1.47902654675567      1.20357440745625     -0.09802132712118
  N   -2.10485009879857      2.19738320714960     -0.20747800037897
  N   -1.33646505756263     -1.26712327914304      0.23519759032445
  H   -1.85203072644995     -1.28455470202169      1.10702875099615
  H   -1.98492741213661     -1.48380421923990     -0.51232170489890
