13
Coordinates from ORCA-job run
  C   0.63578979536934      0.07312833456158      0.07515233964108
  C   -0.73523883290544      0.04391543515631      0.00001913369923
  N   1.34080662867467     -1.05426013889059      0.44563229126656
  H   2.17888601454044     -1.21898462952741     -0.09269005975309
  H   0.71900029071171     -1.85328744842155      0.46784775516876
  N   1.36871250992137      1.20962646860003     -0.10396016306770
  H   0.96420029233380      1.98656705116148     -0.59564455658549
  H   2.36645530408427      1.18079718928024     -0.01040011506756
  C   -1.44779584276169      1.24826459283356     -0.23666510083672
  N   -2.02573367406588      2.25414117024284     -0.45198373400525
  N   -1.39696355787775     -1.21834313965977      0.16312699394924
  H   -1.99535559973681     -1.21451850801670      0.98052453152132
  H   -1.97276332828802     -1.43704637732004     -0.64095931593037
