13
Coordinates from ORCA-job run
  C   0.55880868561403      0.04975661853936      0.00278096869110
  C   -0.80899620916271      0.13723173137224      0.02265299050443
  N   1.42231408236389      1.12590179796959      0.10448882028108
  H   0.96588598985456      2.02248322468657      0.19652144409699
  H   2.16243704974575      1.11410269844838     -0.58063401437975
  N   1.21624350207749     -1.15603680665633     -0.13945865993043
  H   0.61814886275458     -1.96145730968962     -0.05255270685894
  H   2.08231414170108     -1.22054408151663      0.37139408816461
  C   -1.38994366560675      1.43790883193057     -0.00525822574301
  N   -1.81978067355872      2.53451972097454     -0.01596754633757
  N   -1.67980260220602     -0.98556484694013      0.00252842160565
  H   -1.76410597278720     -1.48843422616066      0.87304504424500
  H   -1.56252319078999     -1.61086735295788     -0.77954062433917
