13
Coordinates from ORCA-job run
  C   0.64967128288345      0.03465533115457     -0.03276817130826
  C   -0.71665997922051      0.04860080494120      0.03684521728922
  N   1.35935729972321     -1.14005051220182      0.06351735109534
  H   0.75527489166473     -1.90260277550237      0.34395656367370
  H   2.20419744643063     -1.06192927986202      0.60903447987035
  N   1.42751583200994      1.16585060301329     -0.19336972340487
  H   0.90024995999887      2.00742626563856     -0.37403403213625
  H   2.18498156052360      1.03761621200884     -0.84758649857074
  C   -1.41995693669889      1.24867450992833     -0.26806833550265
  N   -1.98514267524156      2.25043346416345     -0.52573506126275
  N   -1.39433706511570     -1.16725546753564      0.37490452950891
  H   -1.97399498175655     -1.04615343455930      1.19714420082399
  H   -1.99215663520122     -1.47526572118708     -0.38384052007598
