13
Coordinates from ORCA-job run
  C   0.59817508535629      0.00584089369082     -0.12399725978877
  C   -0.74377282230987      0.08183718205778      0.10311046029569
  N   1.22951597973460     -1.22186105486719     -0.03066816009607
  H   0.90185902309141     -1.78939958384954      0.73829695614510
  H   2.22896549046892     -1.20287657018631     -0.15296668151848
  N   1.37971910872267      1.05347807872781     -0.61150622482061
  H   2.17421130755127      1.26160944000879     -0.02026867166778
  H   0.84138977334411      1.88975521651640     -0.79312989737444
  C   -1.39452221119112      1.34051860287603      0.10466349093883
  N   -1.92612722074650      2.39329688810715      0.12369674854464
  N   -1.45555525214031     -1.12178731178562      0.41645109191219
  H   -1.40668097328991     -1.76433694785776     -0.36838968503986
  H   -2.42717728859156     -0.92807483343837      0.61470783246956
