13
Coordinates from ORCA-job run
  C   0.51743451333571     -0.14595180437260     -0.03655239457764
  C   -0.82955854116397      0.07877814924044     -0.09888214261237
  N   1.28674388609477     -0.56140478670247     -1.11907086405758
  H   0.75098533182530     -0.66100551317679     -1.97048632479010
  H   2.11196209180360      0.00320656333573     -1.26982663432828
  N   1.18461412987755     -0.14179997654693      1.17840494616499
  H   2.16856048183482     -0.34947195727356      1.13075826752355
  H   0.94554057470115      0.61060250566857      1.80329264335414
  C   -1.44534751558982      0.14068927942167     -1.38266671792173
  N   -1.90390286917356      0.20994561561419     -2.46596834626245
  N   -1.66854216840556      0.15876533259785      1.04880323289397
  H   -1.32632568005338     -0.44222734052128      1.78707893896231
  H   -1.79216423508662      1.10087393271519      1.39511539565119
