13
Coordinates from ORCA-job run
  C   0.55554853382013      0.07066255450871     -0.05203738377629
  C   -0.81101265032533      0.09606367239745      0.03258796247287
  N   1.28060100998636     -1.10730400878833     -0.05722215170187
  H   0.72502569351405     -1.92014730284648      0.15720483689912
  H   2.12902592310144     -1.05928858691121      0.48804004473390
  N   1.35121257175711      1.20155685301098     -0.13132955239981
  H   0.83007855507205      2.06258286423291     -0.21924516412323
  H   2.08164421713842      1.12401191189610     -0.82489054709778
  C   -1.46341448265197      1.35162898434613     -0.15308142724106
  N   -1.94521736823060      2.41467213800839     -0.31469313581447
  N   -1.62514937601810     -1.03987335862699      0.30544634325887
  H   -1.45334539720764     -1.46977801320883      1.20233493140697
  H   -1.65499722995594     -1.72478770801885     -0.43511475661724
