13
Coordinates from ORCA-job run
  C   0.53073975644344     -0.06817474257200     -0.05886686964018
  C   -0.83587476111522     -0.07132103955646     -0.03504617613845
  N   1.29026796706423     -0.53938160688759     -1.12490917625988
  H   1.99977909718495      0.10979212178873     -1.43692319663698
  H   0.72975435104061     -0.87174121360974     -1.89762252588804
  N   1.26249329793208      0.25071389756369      1.07503141422139
  H   0.93984146221556      1.05519424862189      1.58768587770175
  H   2.26225625252664      0.19752270857586      0.97055661621441
  C   -1.53273058950892     -0.32778452488648     -1.25164730542148
  N   -2.06536023237288     -0.51766690323781     -2.28551389972496
  N   -1.60349409203261      0.07534913636651      1.15563529693559
  H   -1.11807865462432     -0.32717715919780      1.94654844066479
  H   -1.85859385475355      1.03367507703119      1.35607150397204
