13
Coordinates from ORCA-job run
  C   0.60213408355290      0.07324097987011     -0.01990023905833
  C   -0.76089060685938      0.07184753025066     -0.06747168840670
  N   1.30804540420757      1.29172107759441     -0.07660958775338
  H   2.19756310383940      1.20221485390798     -0.54679072305122
  H   1.45202852470824      1.70384919578250      0.82913884473024
  N   1.29748499431348     -1.10096402234784      0.17048030413957
  H   2.24219419277026     -1.11067354938554     -0.19841186910422
  H   0.73705227374376     -1.91229092731900     -0.06051745746308
  C   -1.49471592372203      1.28068861566922     -0.22082442888524
  N   -2.15022884248324      2.25635923542274     -0.30684132135841
  N   -1.42758275302307     -1.18871898215396      0.07812160010955
  H   -2.18028258192224     -1.28275606020518     -0.58430133379355
  H   -1.82180186912564     -1.28551794708609      1.00492789989477
