13
Coordinates from ORCA-job run
  C   0.64160744424523      0.02964969615258     -0.13918673037370
  C   -0.71837480645423      0.03780660634311      0.03870017574317
  N   1.35231021612518      1.12505140960202     -0.59326328497475
  H   2.26365498842687      1.23755513873682     -0.17378797152414
  H   0.81564873562332      1.97936715143258     -0.58015283863952
  N   1.34182046792850     -1.14329131377178     -0.01907515610091
  H   0.80053865511866     -1.86013854449916      0.44569194177215
  H   2.31101375330020     -1.07331717765558      0.24810227832759
  C   -1.45813261925106      1.23313386938180     -0.15909344495299
  N   -2.08481563756038      2.22145219856394     -0.31166500351489
  N   -1.36495358887094     -1.19295250960054      0.39063412464067
  H   -1.94193712557747     -1.06654606225795      1.21266598143121
  H   -1.95938048305388     -1.52977046242786     -0.35757007183389
