13
Coordinates from ORCA-job run
  C   0.65139458822706      0.05857287308837     -0.01715998808646
  C   -0.71705941247507      0.02235434627989      0.00079936609497
  N   1.39840451948289     -1.06109555616833      0.27356422839446
  H   0.80738245545869     -1.88153500567697      0.31656959297254
  H   2.20688786518376     -1.17306941310129     -0.32074741515619
  N   1.39374238697614      1.18331112376982     -0.32309700410846
  H   2.19314405411538      1.31090802034564      0.28039946225641
  H   0.84699670127324      2.02645566622414     -0.42303509909739
  C   -1.45416416612248      1.23243718379277     -0.12020238175253
  N   -2.05981022461786      2.23913741998847     -0.22419703268275
  N   -1.36498380358184     -1.24699484858420      0.16016664778267
  H   -1.99003608349202     -1.43691605039181     -0.61403476691547
  H   -1.91089888042787     -1.27356575956650      1.01297439029820
