13
Coordinates from ORCA-job run
  C   0.63414098686862     -0.12888024823290     -0.04056042991797
  C   -0.73107836020005      0.01346235957123     -0.03884694214731
  N   1.33311226475361     -0.07953116529880      1.14310033157313
  H   0.75199860330775      0.28911909583001      1.88456194688815
  H   2.25684874664698      0.32203960751572      1.09781147756174
  N   1.34974395107357     -0.47539198432733     -1.16504135924866
  H   2.32445290726546     -0.22321226501620     -1.16646496910908
  H   0.88369389021643     -0.29058592317407     -2.04014412844151
  C   -1.45415125185316     -0.14099798305846     -1.25031942134484
  N   -2.03997881751268     -0.24991962792189     -2.26870867835271
  N   -1.37918746949159      0.30311779577153      1.20737375935189
  H   -1.96169041485415      1.12795903392995      1.13083061367563
  H   -1.96790503622080     -0.46617869558879      1.50440779951153
