14
Coordinates from ORCA-job run
  C   -0.89474138726128     -0.43233877019820      0.08435155670453
  C   0.44711593799767      0.29714564282453      0.17647139628233
  Br  -1.11082658145400     -1.28307651300622     -1.66012768851888
  H   0.46262077023893      0.75250505189138      1.17788070126772
  H   -0.87257142299547     -1.27457162786841      0.78789804727968
  N   -1.97613906906121      0.50169752579231      0.26492635049303
  H   -1.89788576242450      0.94679872520067      1.17324746522167
  H   -2.87157908039463      0.03241875579150      0.20948808386906
  C   0.52108806111648      1.39233202864327     -0.79263885726224
  N   0.65065995668381      2.26694494657960     -1.56459195360702
  C   1.65913489693272     -0.62856897469399      0.05506066337115
  H   2.57697419156506     -0.07501722087917      0.25910451174613
  H   1.72382321284580     -1.04993718258035     -0.94771297317145
  H   1.58032627621061     -1.44633238749689      0.77564269632429
