16

C	-0.514132	-0.006131	-1.462186
C	0.0	0.0	0.0
Br	0.155752	1.59986	-2.364856
H	1.091896	0.0	0.0
C	0.070496	-1.164969	-2.134937
N	0.480918	-2.144084	-2.640051
C	-2.033281	-0.053433	-1.616708
H	-2.284328	-0.108859	-2.676676
H	-2.489518	0.833225	-1.18184
H	-2.420788	-0.93958	-1.107842
C	-0.519389	-1.164854	0.704186
N	-0.938179	-2.119233	1.248372
N	-0.483789	1.236678	0.712462
O	-1.676165	1.262011	1.0244
O	0.330443	2.127848	0.911501
Br	3.348145	0.0	0.0
