16

C	-0.497414	-0.181696	-1.454237
C	0.0	0.0	0.0
Br	0.167499	1.338052	-2.497598
H	1.102909	0.0	0.0
C	0.13064	-1.393466	-1.98277
N	0.510926	-2.405802	-2.442624
C	-2.010066	-0.300414	-1.652796
H	-2.21039	-0.539406	-2.698226
H	-2.393646	-1.106822	-1.020791
H	-2.503732	0.630035	-1.383757
C	-0.523411	-1.067503	0.838504
N	-0.967034	-1.930253	1.50076
N	-0.470061	1.309866	0.588851
O	-1.681389	1.529083	0.575467
O	0.38529	2.046114	1.059999
Br	3.332523	0.0	0.0
