16

C	0.0	0.0	0.0
C	-0.487848	0.019445	-1.46151
Cl	1.797832	0.0	0.0
H	0.369042	0.088572	-2.140152
H	-0.292597	-0.943806	0.448238
C	-0.508405	1.147151	0.843679
H	-1.596629	1.026801	0.85174
H	-0.099022	1.062963	1.854317
H	-0.226438	2.108163	0.413085
N	-1.442418	1.012863	-1.741616
H	-1.706508	0.942519	-2.716299
H	-2.264424	0.759259	-1.113222
N	-0.993105	-1.425789	-1.818569
O	-0.536136	-2.394886	-1.216873
O	-1.747492	-1.503466	-2.783494
F	-2.969867	0.0	0.0
