16

C	0.0	0.0	0.0
C	-0.626996	0.220414	-1.37763
Cl	1.789934	0.0	0.0
H	-1.681108	0.464942	-1.10582
H	-0.321306	-0.998686	0.291772
C	-0.478823	0.994954	1.043687
H	-0.097957	0.710298	2.028608
H	-1.573158	0.924641	1.004696
H	-0.132456	2.001311	0.804698
N	-0.630724	-0.91391	-2.255048
H	0.230764	-1.44161	-2.184487
H	-1.4108	-1.48396	-1.951477
N	0.034333	1.379268	-2.055051
O	0.854779	1.156693	-2.944574
O	-0.262074	2.506013	-1.64923
F	-2.889362	0.0	0.0
