16

C	0.0	0.0	0.0
C	-0.624418	0.168791	-1.384094
Cl	1.789738	0.0	0.0
H	-1.690635	0.378583	-1.116463
H	-0.318267	-0.990325	0.323392
C	-0.484545	1.025271	1.009373
H	-1.578572	0.945091	0.973302
H	-0.098521	0.778608	2.002485
H	-0.148931	2.026749	0.737177
N	-0.566217	-0.978372	-2.244112
H	-1.31946	-1.585401	-1.946059
H	0.319383	-1.461292	-2.159151
N	-0.010503	1.344382	-2.077582
O	0.839634	1.140869	-2.944141
O	-0.373135	2.465341	-1.709634
F	-2.897121	0.0	0.0
