16

C	0.0	0.0	0.0
C	-0.478068	0.203588	-1.453191
Cl	1.785944	0.0	0.0
H	0.383726	0.391318	-2.103379
H	-0.303802	-0.987916	0.330923
C	-0.511768	1.046569	0.9662
H	-0.108858	0.847388	1.963422
H	-0.220167	2.048503	0.649345
H	-1.601011	0.935318	0.957417
N	-1.464124	1.189939	-1.610209
H	-2.282591	0.8426	-1.018166
H	-1.718615	1.241767	-2.588582
N	-0.918594	-1.199781	-2.013104
O	-1.681615	-1.178746	-2.975005
O	-0.403414	-2.218034	-1.55714
F	-2.999274	0.0	0.0
