17

C	-0.327881	-0.071903	-1.49834
C	0.0	0.0	0.0
F	-0.169711	1.24833	-1.959757
H	1.099364	0.0	0.0
C	0.684669	-0.916154	-2.249154
H	0.638596	-0.662898	-3.310888
H	0.478871	-1.975139	-2.110772
H	1.659979	-0.672108	-1.813294
C	-1.730873	-0.426857	-1.783371
N	-2.846368	-0.682707	-2.044661
N	-0.438556	-1.219048	0.705504
O	-0.595313	-1.134788	1.924428
O	-0.558239	-2.268106	0.066569
N	-0.644427	1.146157	0.623049
H	-0.206296	1.959401	0.20194
H	-0.355392	1.135513	1.595634
F	2.599302	0.0	0.0
