17

C	-0.390089	0.035103	-1.474218
C	0.0	0.0	0.0
F	-1.770306	0.30694	-1.611971
H	1.090634	0.0	0.0
C	0.407919	1.140326	-2.140953
H	0.263602	1.128704	-3.223121
H	1.455014	0.983873	-1.861196
H	0.065902	2.098498	-1.74579
C	-0.154833	-1.235025	-2.182369
N	-0.005586	-2.190628	-2.84927
N	-0.570911	-1.247249	0.610676
O	-1.614099	-1.162558	1.259204
O	0.031325	-2.298039	0.39106
N	-0.440623	1.139261	0.735732
H	-1.303509	1.541146	0.39852
H	0.30835	1.814497	0.77845
F	2.58147	0.0	0.0
