17

C	-0.328658	0.085052	-1.481338
C	0.0	0.0	0.0
F	-1.671012	0.458528	-1.69756
H	1.099609	0.0	0.0
C	0.588079	1.145774	-2.078281
H	0.51306	1.15433	-3.167267
H	1.603989	0.915023	-1.735885
H	0.296033	2.123499	-1.690805
C	-0.107036	-1.173946	-2.214553
N	0.100912	-2.091407	-2.917312
N	-0.562059	-1.221296	0.656597
O	-1.304028	-1.968018	0.006631
O	-0.249766	-1.404137	1.828193
N	-0.427994	1.15183	0.741599
H	-1.166794	1.660984	0.277649
H	0.37053	1.741754	0.924844
F	2.584979	0.0	0.0
