17

C	-0.506799	0.000891	-1.444209
C	0.0	0.0	0.0
F	-0.112255	-1.163329	-2.094375
H	1.090413	0.0	0.0
C	-2.015147	0.107443	-1.589577
H	-2.488484	-0.740542	-1.091318
H	-2.366905	1.036726	-1.143001
H	-2.278376	0.094814	-2.649589
C	0.127028	1.139893	-2.138084
N	0.522731	2.04491	-2.773035
N	-0.490798	-1.281776	0.629365
O	0.145055	-2.309733	0.419028
O	-1.529346	-1.236486	1.306976
N	-0.486809	1.164744	0.670052
H	-1.359949	0.974485	1.148487
H	0.216229	1.453515	1.337035
F	2.543162	0.0	0.0
