12
Coordinates from ORCA-job run
  C   -0.63386379100533      0.24182708840499      0.09172107527780
  C   0.62071587570567     -0.22206669351743     -0.11118491228855
  N   -1.69858319227647     -0.69942440470532      0.53117786033923
  O   -1.38864828296665     -1.55864600933170      1.34509481937421
  O   -2.79426000912289     -0.51414522285060      0.01495327358583
  C   -1.10189024363548      1.56310901228311     -0.12471733243650
  N   -1.56419185054414      2.63121601344120     -0.32263946490840
  N   1.73632517510238      0.70285386213935     -0.51738078206495
  O   1.48718818314069      1.89727898227165     -0.56921055753413
  O   2.81302369241741      0.15514976918020     -0.73941366324431
  C   1.03874457361173     -1.56293001890425      0.10187300319464
  N   1.48443986957307     -2.63522237841123      0.29872668070514
