12
Coordinates from ORCA-job run
  C   0.66990614628689     -0.04934782406183      0.15341123162939
  C   -0.66651490440946      0.14403508455490      0.23854332617823
  N   1.36052620568512     -0.48040516657360     -1.08540421759637
  O   1.67947272816844      0.41745101547527     -1.84919612058759
  O   1.58918408291979     -1.67699554634060     -1.16057243498906
  C   1.53783223923037      0.15157504033521      1.25650333218514
  N   2.27901719826036      0.31905552064116      2.15883278251191
  N   -1.56790017613019     -0.05108140192801     -0.92366207728513
  O   -1.08723753504346     -0.58918193882027     -1.91227178392040
  O   -2.71592388154092      0.35036908775579     -0.77364224085838
  C   -1.29429104726969      0.56380088151450      1.44049237973945
  N   -1.78507105615727      0.90072524744749      2.45796582299281
