12
Coordinates from ORCA-job run
  C   -0.63008281982321      0.22326670592264      0.07363689186179
  C   0.65901102622997     -0.19089990310916      0.02934018332348
  N   -1.70353162197703     -0.76737678901357      0.33955703195382
  O   -2.71120793677251     -0.64252776911243     -0.34571846452078
  O   -1.47369741557045     -1.61280146075374      1.19467039061571
  C   -1.09229418579852      1.53484135789587     -0.21398566798577
  N   -1.60571167060280      2.56713544746205     -0.46695968486579
  N   1.72599852497769      0.77787757208427     -0.33728160755863
  O   1.59492073516125      1.92898890843820      0.05685513476800
  O   2.63776768901667      0.31129201526000     -1.00870587903938
  C   1.10570181169382     -1.51596360720958      0.25214570322275
  N   1.49212586346510     -2.61483247786453      0.42744596822479
