12
Coordinates from ORCA-job run
  C   0.64472054771724     -0.16668267168410     -0.25202181326854
  C   -0.69193017972825      0.00638885254094     -0.16710682589391
  N   1.53389560479814      0.18798897205554      0.87841106428476
  O   2.49156073922487      0.88946121199885      0.58075421118011
  O   1.23323976077067     -0.26557486314248      1.97402003220020
  C   1.29275206811988     -0.67986136390723     -1.40297043073461
  N   1.82599677243130     -1.12251501435757     -2.35707483899013
  N   -1.31317643953828      0.56153272914139      1.05795117808596
  O   -0.84084445576458      1.60617982939536      1.48482907497090
  O   -2.25288810447875     -0.08645548602428      1.49914921347951
  C   -1.58963309096625     -0.32921547996794     -1.21081785130183
  N   -2.33469322258597     -0.59924671604844     -2.08412301401240
