12
Coordinates from ORCA-job run
  C   -0.65035856678851      0.18338175699250     -0.00211438511219
  C   0.65150732612827     -0.18379459009662     -0.00037743742524
  N   -1.66597292041177     -0.71149100597809      0.61680407188168
  O   -1.52031428493826     -1.91602217022647      0.45710104307359
  O   -2.54953856512683     -0.13331779551010      1.23753730754454
  C   -1.17194118015545      1.39296730037075     -0.52489713654857
  N   -1.67151645337114      2.37007843708742     -0.95641574872478
  N   1.66667587847135      0.71032853176520     -0.62070417655659
  O   1.51942052591655      1.91525338187617     -0.46523119253804
  O   2.55201882528433      0.13108732855496     -1.23793463819616
  C   1.17336498851015     -1.39261311355625      0.52399290562897
  N   1.66565442648129     -2.36585806127949      0.97223938697281
