12
Coordinates from ORCA-job run
  C   -0.65206501494468      0.18314137131003      0.00030228358153
  C   0.64976076133782     -0.18394087960012      0.00247182314902
  N   -1.66750764653432     -0.71043603320870      0.62075820819113
  O   -2.55451565992839     -0.13067662087299      1.23520641255727
  O   -1.51871252677246     -1.91566217321501      0.46888957633095
  C   -1.17320069234701      1.39195894592749     -0.52487053905829
  N   -1.66351021202645      2.36577614097898     -0.97402584687003
  N   1.66515072668497      0.71158677982948     -0.61648640830005
  O   1.52198634120656      1.91578862429538     -0.45181056632858
  O   2.54592220050657      0.13426031445594     -1.24182009042980
  C   1.17274322796984     -1.39293352466879      0.52510286492103
  N   1.67494849484755     -2.36886294523167      0.95628228225580
