12
Coordinates from ORCA-job run
  C   -0.65100605213312      0.14891161779655     -0.26235925566749
  C   0.65729777899964     -0.17802491900117     -0.18641593100008
  N   -1.44284101354587      0.40429371528622      0.96260246334206
  O   -1.26449320508720     -0.36135391908408      1.90073296729418
  O   -2.20668178490988      1.35892729047329      0.89780431348685
  C   -1.34808636159071      0.29157926142876     -1.48843451014762
  N   -1.92402527131891      0.39704402064962     -2.51190361978478
  N   1.35004754219166     -0.29461744678531      1.11845676954589
  O   1.85197977684138     -1.38838481094556      1.33574553113534
  O   1.36910622317770      0.70915256798568      1.81613813903573
  C   1.46294294070464     -0.43848878569271     -1.32233910605150
  N   2.14475942667067     -0.65103859211130     -2.26102776118860
