12
Coordinates from ORCA-job run
  C   -0.65094603698908      0.15283805345120     -0.11659679565451
  C   0.64633029828390     -0.19814050425283      0.03760701895457
  N   -1.72355110552976     -0.77647759830412      0.33082152556804
  O   -2.71067979467099     -0.23637783094855      0.81455671184046
  O   -1.51801913684515     -1.97354437411093      0.17890777893051
  C   -1.11256329298602      1.39437330939107     -0.62128980087553
  N   -1.54475726451061      2.41217044865370     -1.03073890281247
  N   1.70858299522668      0.77633539272926     -0.33095312852154
  O   1.55304254874025      1.39569242813563     -1.37528760194170
  O   2.63557089228133      0.85622797793793      0.46521285155597
  C   1.12492534723643     -1.40936051414322      0.59566076308459
  N   1.59006454976301     -2.39173678853915      1.05309957987160
