12
Coordinates from ORCA-job run
  C   -0.64633029545176      0.19814051750693     -0.03760702040525
  C   0.65094603951724     -0.15283804766746      0.11659679254012
  N   -1.70858298856370     -0.77633538529506      0.33095314535603
  O   -1.55304252821344     -1.39569241451864      1.37528761750486
  O   -2.63557089101587     -0.85622798479082     -0.46521282702525
  C   -1.12492536313676      1.40936051056576     -0.59566077662376
  N   -1.59006457862022      2.39173677470309     -1.05309960340739
  N   1.72355112012513      0.77647759933181     -0.33082152811631
  O   2.71067981575670      0.23637782134580     -0.81455668743377
  O   1.51801913426129      1.97354437653174     -0.17890779370044
  C   1.11256327979836     -1.39437331727240      0.62128978604404
  N   1.54475725554303     -2.41217045044076      1.03073889526712
