12
Coordinates from ORCA-job run
  C   0.68584357582041     -0.02414690516583      0.19055321989321
  C   -0.64438576162480      0.20726233093987      0.21972215149399
  N   1.32206517901220     -0.67491122123567     -0.97820326471136
  O   2.30644688726999     -0.09620474049775     -1.41864338934142
  O   0.81533432112053     -1.71870082600086     -1.36603938314658
  C   1.56231551043334      0.33537228857159      1.24436431769372
  N   2.28746083418873      0.62621842977581      2.12769083738738
  N   -1.51117132014696     -0.17465541814523     -0.91920259995935
  O   -1.15865862477734      0.20722987948596     -2.02668329171417
  O   -2.50466145935203     -0.82227712602555     -0.61695490837256
  C   -1.30633837281878      0.81115331783691      1.31746702908201
  N   -1.85325076912525      1.32365999046078      2.22792928169514
