12
Coordinates from ORCA-job run
  C   0.69628592628659     -0.00980492671998      0.14189493329057
  C   -0.62823328457022      0.23450935406635      0.24218842047486
  N   1.25058279323138     -0.77643241512624     -0.99784191266408
  O   0.77453212068420     -1.88633579873634     -1.19151526825727
  O   2.14839852213249     -0.21366063456849     -1.60942025127189
  C   1.64471428496041      0.43522593287989      1.09572204753539
  N   2.43149968579230      0.79894192994305      1.89540015582235
  N   -1.57256286652122     -0.24412295271769     -0.79429061900741
  O   -2.59107797652610     -0.76978656824297     -0.36410098754650
  O   -1.24996778962592     -0.05331185531535     -1.95912496797250
  C   -1.20980692267116      0.94405923649991      1.32258605239948
  N   -1.69236449317276      1.53971869803785      2.21850239719701
