12
Coordinates from ORCA-job run
  C   0.64928473261329     -0.19297163746868      0.04048530113261
  C   -0.63908245304749      0.20899457689578     -0.04854045623614
  N   1.74622032036186      0.73718660676635     -0.34072468314691
  O   1.56139543975225      1.93031545005210     -0.14189535799051
  O   2.73064432346760      0.19916233196995     -0.83303496401239
  C   1.07754415880341     -1.48024566477619      0.45186817358065
  N   1.47659256882218     -2.52508327061445      0.82487714177898
  N   -1.72006451660087     -0.73706687978799      0.33972243528014
  O   -1.62028198116462     -1.89097273482798     -0.05605619111579
  O   -2.60525972675952     -0.24698117691013      1.02956300740045
  C   -1.09933864032864      1.48655508517798     -0.45267882017877
  N   -1.55865422591946      2.51110731352327     -0.81358558649234
