12
Coordinates from ORCA-job run
  C   -0.65533599179539      0.18190867427516      0.04092412360371
  C   0.63416964150549     -0.22959023573362      0.01495864236455
  N   -1.74962713116401     -0.73135553530035      0.47388979990794
  O   -2.85426388891938     -0.21095912752582      0.57836919450885
  O   -1.45007716952162     -1.89619301595791      0.69327680063954
  C   -1.07524534795312      1.48607027190929     -0.32834228584382
  N   -1.43343449664185      2.55934230028537     -0.65969313572642
  N   1.66576863105182      0.73278098799403     -0.46028742750466
  O   1.70524524521072      1.82478220439246      0.09045731045418
  O   2.36793119975144      0.31466892595816     -1.37214156231701
  C   1.15014288659571     -1.50845962186832      0.33762357838670
  N   1.69572642188016     -2.52299582842844      0.59096496152643
