12
Coordinates from ORCA-job run
  C   0.64456989163349     -0.21378827582185     -0.03614988018100
  C   -0.63851435883187      0.21651540259846     -0.03680361475377
  N   1.75286973161449      0.74343941614668     -0.31367303540942
  O   2.82365263625221      0.46661367459333      0.21361353756893
  O   1.49521822723891      1.70145703472620     -1.02929951875151
  C   1.06392433277458     -1.53408359844537      0.26502834101022
  N   1.45875692445734     -2.61946787644393      0.50189963268301
  N   -1.72262726719899     -0.73918543205002      0.32614971433604
  O   -2.58931051732290     -0.28039606521436      1.05956499914854
  O   -1.64416446364791     -1.87043123414111     -0.13332044313209
  C   -1.09084371009568      1.53286882538600     -0.30443601288857
  N   -1.55353142687367      2.59745812866596     -0.51257371963037
