12
Coordinates from ORCA-job run
  C   -0.64705686847710      0.19532330327583     -0.02472483456413
  C   0.64770634458344     -0.19312506424760      0.02353327996260
  N   -1.71535463021316     -0.77098430865249      0.34855682610366
  O   -1.56887137859072     -1.93174258746192     -0.01060838614381
  O   -2.63892048573479     -0.29079405734346      0.99414379921522
  C   -1.11688547038293      1.48493140065382     -0.37771943561865
  N   -1.56962173419950      2.52483571495604     -0.70047409808186
  N   1.71870687012890      0.77099059243331     -0.34867230146270
  O   2.65516651299178      0.28382761861482     -0.96996169911490
  O   1.56166740971357      1.93719680011905     -0.01252770654882
  C   1.11388086608295     -1.48397302223790      0.37722494887964
  N   1.55958256409755     -2.52648639010950      0.70122960737375
