12
Coordinates from ORCA-job run
  C   -0.65142529102125      0.18081972772402     -0.05800232670271
  C   0.64406038573944     -0.15176102988559      0.14438178884211
  N   -1.72391693904183     -0.78807310104941      0.29602293963371
  O   -2.68298317147279     -0.80153877829516     -0.46578251287821
  O   -1.54560942102194     -1.47169434146040      1.29530914727755
  C   -1.10869327807451      1.38125687449754     -0.65717364667500
  N   -1.53728125111246      2.36134576804582     -1.15326017445070
  N   1.71067201721193      0.78743175047114     -0.29609700460114
  O   2.66603027475935      0.26007157802353     -0.85213263558387
  O   1.53116368456544      1.97638524240999     -0.06694760756719
  C   1.11968147949590     -1.37114576375982      0.68731026376561
  N   1.58030150997273     -2.36309792672165      1.12837176893985
