12
Coordinates from ORCA-job run
  C   -0.65257198844169      0.15032954648649     -0.11726913424515
  C   0.64507949406692     -0.19832665253831      0.04359603897355
  N   -1.72940491953414     -0.77419619026670      0.33226380326854
  O   -1.49769538194803     -1.97347630649253      0.25877999246399
  O   -2.74695041882595     -0.22766860341360      0.74035402909003
  C   -1.11139066062528      1.38741760857433     -0.63644772148305
  N   -1.54072414826658      2.40267021756909     -1.05536539417998
  N   1.70902416984236      0.77096229262533     -0.33790883702732
  O   2.65112877624266      0.84021013578502      0.44159672712353
  O   1.54284399970188      1.39342021623379     -1.37889456316745
  C   1.12783226026414     -1.39937966336889      0.61945718861452
  N   1.60282881752372     -2.37096260119402      1.08983787056880
