12
Coordinates from ORCA-job run
  C   -0.64507927694902      0.19832445734351     -0.04359648905183
  C   0.65257159745878     -0.15033083467444      0.11727258394049
  N   -1.70902584867182     -0.77096321755953      0.33790367797061
  O   -2.65113020984587     -0.84020663477128     -0.44160301316883
  O   -1.54284772680006     -1.39342531755357      1.37888756112860
  C   -1.12782883294518      1.39937902471851     -0.61945813010079
  N   -1.60282529710864      2.37096586981161     -1.08983074917354
  N   1.72940370408810      0.77419527967148     -0.33226550627364
  O   1.49769810725336      1.97347518063994     -0.25877384718323
  O   2.74694153956565      0.22766608293672     -0.74037174017560
  C   1.11139249481588     -1.38741558876509      0.63645653639997
  N   1.54072974913882     -2.40266430179789      1.05537911568781
