12
Coordinates from ORCA-job run
  C   -0.64335419909830      0.20345475309011     -0.04729160292703
  C   0.65545476809664     -0.14637045880431      0.10137964886054
  N   -1.69797420473493     -0.78051827351964      0.32520822917654
  O   -1.55480050162175     -1.36931377285983      1.38864633467056
  O   -2.60798379347315     -0.89273172807348     -0.48599656781890
  C   -1.14466068423721      1.41062032921728     -0.59368551779462
  N   -1.64899342822486      2.38433215763401     -1.02737815302539
  N   1.73979993951634      0.78187959023548     -0.32309537084769
  O   2.80947816864955      0.24750158162096     -0.59218649222957
  O   1.46649470919077      1.97347953732403     -0.36725607235168
  C   1.10589809151697     -1.39351893170909      0.60511917093294
  N   1.52064113441992     -2.41781478415551      1.01653639335432
