12
Coordinates from ORCA-job run
  C   -0.65071890715566      0.18502908726050     -0.00289097582399
  C   0.65004834060441     -0.18574069479263      0.00587010656420
  N   -1.69067064332192     -0.77400913555763      0.45887697340507
  O   -2.60243485421962     -0.27128054313492      1.10406624477557
  O   -1.53532516635866     -1.95139524188937      0.16331446704865
  C   -1.14996351179246      1.45296682921895     -0.39267500252612
  N   -1.62574976212128      2.47016301616643     -0.75245960156864
  N   1.68870140155454      0.77521240669861     -0.45487820694053
  O   2.59421959581525      0.27648201555493     -1.11186545072239
  O   1.53854098283155      1.95005916371886     -0.14665768346358
  C   1.15117019136184     -1.45346520487344      0.39347458096251
  N   1.63118233280201     -2.47402169837028      0.73782454828925
