12
Coordinates from ORCA-job run
  C   -0.64951065503668      0.15698090494331     -0.11819183310622
  C   0.64665767105492     -0.19780437288870      0.03758331302724
  N   -1.72186816222429     -0.76482037384412      0.34373408781816
  O   -1.53359859018724     -1.96263626682037      0.17602244938213
  O   -2.69172996188698     -0.21785686690439      0.85411838529316
  C   -1.11053921260102      1.39304471213888     -0.63601991924892
  N   -1.54556178264035      2.40511479600454     -1.05677881393650
  N   1.71518611182870      0.76506492685744     -0.34192269454025
  O   1.54931128454950      1.39664099250385     -1.37714717156705
  O   2.65729166581810      0.82624052893172      0.43807456889737
  C   1.11631138672082     -1.40768505276965      0.60695259030226
  N   1.56805024460452     -2.39228392815251      1.07257503767862
