12
Coordinates from ORCA-job run
  C   0.65854045211989     -0.07884534790370      0.18338497652723
  C   -0.66855971398331      0.18623744493877      0.19806437074572
  N   1.39373871146899     -0.55000489517048     -1.01489312935633
  O   1.89343414732099      0.32856863176754     -1.69933698659967
  O   1.46919255278216     -1.76222817967504     -1.13725637463679
  C   1.47297279268038      0.07443338497102      1.33395052175092
  N   2.16590622834115      0.19543073669706      2.28109879212798
  N   -1.52320843075631      0.02847230630237     -1.00368408968334
  O   -0.97210886299486     -0.35632845546671     -2.02661998026402
  O   -2.70753249265256      0.30271391934564     -0.84993142876503
  C   -1.33151548312461      0.63199789031503      1.37189722918491
  N   -1.85085990120191      0.99955256387850      2.36432609896841
