12
Coordinates from ORCA-job run
  C   0.66878031439473     -0.01544508147464      0.18856284106787
  C   -0.67119557421877      0.15467069815862      0.22097288740359
  N   1.38228440883494     -0.43461907479911     -1.04128033870755
  O   1.52085079454840      0.42830231522464     -1.89657453522129
  O   1.79860039824729     -1.58172179274235     -1.02952211071336
  C   1.50562965160602      0.16400652901056      1.31817667861351
  N   2.21757661804977      0.24085425245665      2.25485993213976
  N   -1.50942293223214     -0.09337272797484     -0.97198762348011
  O   -2.54297554543800      0.56319712247281     -1.03172436155800
  O   -1.10592758903528     -0.93295990127132     -1.76807534282248
  C   -1.35644469864494      0.57986737859513      1.38802780884256
  N   -1.90875584611203      0.92822028234386      2.36956416443550
