12
Coordinates from ORCA-job run
  C   0.65427583816099     -0.06784598699807      0.20176622312876
  C   -0.68379334669842      0.13430564479364      0.18683516131403
  N   1.45674054030775     -0.37604083308192     -1.00596764653812
  O   1.60154971314305     -1.56392494915552     -1.24716718327834
  O   1.93302226693354      0.59240083731532     -1.57659866362438
  C   1.41532535226823     -0.00012608816009      1.39627515684994
  N   2.06258826808046      0.05109421861966      2.38132253472668
  N   -1.48405765574768      0.06278779385730     -1.05962802036064
  O   -2.68536364669406      0.26628649632189     -0.92870920816770
  O   -0.87746532998004     -0.19173193506969     -2.09183216114106
  C   -1.41071411109416      0.42646336214687      1.37113865944617
  N   -1.98110788867967      0.66633143941063      2.37456514764466
