12
Coordinates from ORCA-job run
  C   0.65394526822431     -0.18858600106181     -0.21948615092088
  C   -0.66770725805761      0.08980400804427     -0.21817739058082
  N   1.46103307892156     -0.06020521029019      1.01645755937511
  O   2.23312779604420     -0.98589262292003      1.23004336409738
  O   1.28565726755596      0.95125763365727      1.68263990591729
  C   1.35511675272227     -0.62867965791593     -1.36979057401072
  N   1.93501118928476     -0.98318847431494     -2.33340731893039
  N   -1.36122871484725      0.52651847479854      1.01596922013342
  O   -1.95979268213200      1.58913667227028      0.92070709784889
  O   -1.28466197006945     -0.22410403416686      1.97853908395977
  C   -1.48339922366105     -0.00149000311306     -1.37313621413949
  N   -2.16610150398569     -0.08357078498754     -2.33135858274957
