12
Coordinates from ORCA-job run
  C   0.66230702039730     -0.15581197433078     -0.21944919104331
  C   -0.67962635807611     -0.00327397217283     -0.19498686312015
  N   1.49359729876494      0.19140914747139      0.95594548535358
  O   1.04892518372095     -0.11958465548401      2.05345076829467
  O   2.55613333070384      0.74374334412639      0.69854867712420
  C   1.36731318486758     -0.63832289701542     -1.35101500248117
  N   1.94006968699990     -1.05571067458106     -2.29318533534314
  N   -1.37551374304289      0.52512048879429      1.00127365194576
  O   -1.06772006773048      1.65433124865148      1.35485672334810
  O   -2.20711431245525     -0.22940341513287      1.48559909567854
  C   -1.51867434842400     -0.32905075457423     -1.28898908747682
  N   -2.21969687572576     -0.58544588575235     -2.20204892228025
