12
Coordinates from ORCA-job run
  C   0.64340101126755     -0.20426703341461      0.06571120821330
  C   -0.64406154521706      0.21409761028678      0.03563010378373
  N   1.72546730636262      0.75770049028075     -0.28131337087681
  O   2.63171821467086      0.29531376138012     -0.96343622109405
  O   1.61057103566551      1.89866733923637      0.14755823363135
  C   1.09504921987773     -1.52284405136202      0.32188641203688
  N   1.54573247586399     -2.59752865403300      0.50182570069826
  N   -1.74778693288168     -0.75500016447689      0.29690072818781
  O   -2.80798085321371     -0.50008811152223     -0.26151941136278
  O   -1.49484708067011     -1.69877199952798      1.03242009624717
  C   -1.07419354897151      1.52142842487649     -0.30577834724699
  N   -1.48306930275422      2.59029238827621     -0.58988513221788
