12
Coordinates from ORCA-job run
  C   0.64406168575604     -0.21409749865658     -0.03563002644528
  C   -0.64340094334803      0.20426701837123     -0.06571110831842
  N   1.74778701473631      0.75500020971753     -0.29690070661018
  O   2.80798114915497      0.50008766032664      0.26151883799234
  O   1.49484692606653      1.69877260307876     -1.03241928053273
  C   1.07419348879823     -1.52142841091782      0.30577839024374
  N   1.48306903405344     -2.59029245080076      0.58988519623044
  N   -1.72546716648135     -0.75770045331277      0.28131345477199
  O   -2.63171789893691     -0.29531381098675      0.96343659712579
  O   -1.61057115903733     -1.89866723640240     -0.14755841122337
  C   -1.09504930471724      1.52284398237601     -0.32188657377234
  N   -1.54573282604467      2.59752838720690     -0.50182636946197
