12
Coordinates from ORCA-job run
  C   0.65848281144791     -0.17923890699514     -0.02212422581769
  C   -0.62585832799386      0.24248795175279      0.04720720603427
  N   1.77039145077383      0.77473266885915     -0.29486484461970
  O   1.46524840518775      1.93780388866399     -0.51810156084777
  O   2.89596008032182      0.29102836844902     -0.26049976668821
  C   1.05646300752044     -1.53135853259892      0.14204455960740
  N   1.39390339838824     -2.65568460434373      0.25034350489745
  N   -1.68721267631193     -0.77411679376489      0.29281539444857
  O   -2.61031953229478     -0.75459879037578     -0.51044678137661
  O   -1.53611999533109     -1.50875033573266      1.25979566760341
  C   -1.12573936662730      1.55513887735518     -0.13432627939049
  N   -1.65519925508102      2.60255620873098     -0.25384287385063
