13

C	-0.443194	-0.051174	-1.449754
C	0.0	0.0	0.0
Cl	-2.210742	-0.295715	-1.597065
H	1.094752	0.0	0.0
H	-0.336956	-0.913303	0.494252
C	-0.077659	1.137833	-2.207227
N	0.199305	2.111163	-2.804666
N	0.205568	-1.287814	-2.103979
O	0.139625	-2.316657	-1.450909
O	0.680524	-1.144041	-3.21996
C	-0.539298	1.171551	0.669021
N	-0.988358	2.107759	1.217331
Br	3.365373	0.0	0.0
