13

C	-0.526194	-0.006731	-1.426074
C	0.0	0.0	0.0
Cl	0.229145	-1.326728	-2.330126
H	1.09124	0.0	0.0
H	-0.30557	-0.946956	0.457399
C	-1.980236	-0.143744	-1.494404
N	-3.146959	-0.285435	-1.488386
N	-0.175008	1.304758	-2.160811
O	-0.725227	1.459968	-3.244794
O	0.617929	2.051963	-1.611921
C	-0.567266	1.098888	0.769519
N	-1.066769	1.959758	1.392366
Br	3.416892	0.0	0.0
