13

C	-0.509305	0.037791	-1.431866
C	0.0	0.0	0.0
Cl	0.216011	-1.290052	-2.349394
H	1.091259	0.0	0.0
H	-0.309936	-0.960311	0.424863
C	-1.965732	-0.047207	-1.527216
N	-3.137212	-0.141168	-1.556188
N	-0.107184	1.354491	-2.135886
O	0.631768	2.107964	-1.523946
O	-0.575465	1.509574	-3.256788
C	-0.568853	1.075171	0.801215
N	-1.068391	1.912895	1.454869
Br	3.415004	0.0	0.0
