13

C	-0.51339	0.076091	-1.428814
C	0.0	0.0	0.0
Cl	0.219703	-1.217231	-2.388142
H	1.091367	0.0	0.0
H	-0.308449	-0.971808	0.399223
C	-1.969365	-0.018516	-1.521517
N	-3.139801	-0.124257	-1.548312
N	-0.123957	1.415949	-2.094455
O	-0.608925	1.607184	-3.202599
O	0.624485	2.149388	-1.470003
C	-0.569012	1.052238	0.831
N	-1.06886	1.871417	1.507477
Br	3.415185	0.0	0.0
