13

C	-0.473421	-0.005868	-1.453054
C	0.0	0.0	0.0
Cl	0.088334	-1.426632	-2.310102
H	1.094556	0.0	0.0
H	-0.341977	0.927437	0.46639
C	-1.926479	0.104212	-1.574245
N	-3.095648	0.185471	-1.664194
N	0.098021	1.288527	-2.10656
O	0.829572	1.191934	-3.072294
O	-0.287298	2.312468	-1.556006
C	-0.538406	-1.141962	0.721655
N	-0.998575	-2.049483	1.307566
Br	3.387889	0.0	0.0
