13

C	-0.429412	-0.056073	-1.453885
C	0.0	0.0	0.0
Cl	-2.197131	-0.278116	-1.622118
H	1.094668	0.0	0.0
H	-0.341568	-0.910117	0.496669
C	-0.036913	1.123108	-2.214475
N	0.224207	2.103845	-2.807173
N	0.209288	-1.304739	-2.094863
O	0.149299	-2.324696	-1.426987
O	0.666779	-1.179164	-3.220745
C	-0.539555	1.177471	0.658727
N	-0.990207	2.117672	1.198815
Br	3.363607	0.0	0.0
