16

C	0.0	0.0	0.0
C	-0.551278	-0.46064	-1.371303
Br	1.934535	0.0	0.0
H	-1.605757	-0.71125	-1.180371
N	-0.533609	1.242222	0.357303
H	-0.262143	1.465961	1.309233
H	-1.561502	1.140756	0.316606
N	-0.328343	-1.097427	1.074166
O	-0.169605	-0.756107	2.241755
O	-0.718263	-2.190022	0.684238
C	0.134362	-1.651258	-1.884158
N	0.681609	-2.577545	-2.354634
N	-0.522523	0.580234	-2.383766
H	-1.238146	1.256441	-2.142269
H	0.373228	1.056468	-2.354051
Br	-3.655666	0.0	0.0
