13

C	0.005734	0.120755	-1.511493
C	0.0	0.0	0.0
Br	-0.685095	-1.940191	-2.311419
H	1.091401	0.0	0.0
H	-0.406608	0.906415	0.44967
H	-0.480183	-0.897264	0.369709
N	-1.122628	0.865241	-2.199937
O	-2.155859	1.03348	-1.56141
O	-0.91306	1.284725	-3.336016
N	1.207176	0.474202	-1.956767
H	2.05686	0.264014	-1.270451
H	1.308571	0.651531	-2.944232
F	2.798599	0.0	0.0
