13

C	-0.566612	0.068715	-1.3913
C	0.0	0.0	0.0
Br	0.044702	1.68803	-2.279543
H	1.091054	0.0	0.0
H	-0.385128	-0.916861	0.461259
H	-0.374027	0.864572	0.558574
N	-0.065409	-1.158511	-2.163174
O	-0.580434	-2.20796	-1.772605
O	0.758915	-1.062029	-3.056148
N	-2.011448	0.016603	-1.562167
H	-2.389665	0.861545	-1.150915
H	-2.334832	-0.771292	-1.008537
F	2.649857	0.0	0.0
