13

C	-0.556997	0.021132	-1.398394
C	0.0	0.0	0.0
Br	0.066593	1.604757	-2.340693
H	1.091241	0.0	0.0
H	-0.387035	-0.90252	0.48841
H	-0.375102	0.883498	0.527466
N	-0.041342	-1.234715	-2.114812
O	0.855445	-1.174403	-2.938052
O	-0.605664	-2.265137	-1.742203
N	-1.997648	-0.0337	-1.579944
H	-2.326177	-0.816237	-1.022775
H	-2.378561	0.816043	-1.181582
F	2.656328	0.0	0.0
