13

C	0.049816	0.263486	-1.492643
C	0.0	0.0	0.0
Br	-0.77139	-1.75096	-2.487621
H	1.089401	0.0	0.0
H	-0.41456	0.858416	0.528469
H	-0.478679	-0.929077	0.270881
N	-1.040259	1.080541	-2.148801
O	-0.790602	1.575976	-3.246522
O	-2.081023	1.231218	-1.518204
N	1.274094	0.557678	-1.892333
H	1.375792	0.850131	-2.854136
H	2.146873	0.29287	-1.140851
F	2.828304	0.0	0.0
