12
Coordinates from ORCA-job run
  C   -0.39803429022789      0.43258413176586      0.15120221796808
  C   0.81853492776881     -0.34160142188994      0.67823836085636
  Cl  -0.99836707704213      1.42471996817136      1.58742645638428
  H   0.48598883952419     -0.99550697957689      1.49035333997427
  H   1.54377940458683      0.35864947753964      1.09746331136721
  N   -1.36089726502960     -0.45259765257852     -0.37975193285510
  H   -1.67681443745178     -1.12457053455967      0.30857143267659
  H   -2.15344019138449      0.02967024003073     -0.78379869626706
  C   0.00197146500220      1.40291342400530     -0.87179229559888
  N   0.32605782339488      2.17593404451644     -1.69456372362451
  C   1.44388937079163     -1.13751823732950     -0.37500806969201
  N   1.96633143006736     -1.77567646009479     -1.20934040118924
