12
Coordinates from ORCA-job run
  C   -0.38315135234785      0.42788506563804      0.17934241530688
  C   0.51153189372292     -0.83079222700530      0.13347345232596
  Cl  -0.09554851231164      1.23196628558926      1.75525476933431
  H   0.22682535480726     -1.47688549684527      0.96904944659372
  H   0.30085531327507     -1.36384638658580     -0.79948301951944
  N   -1.79242614125174      0.15845379929689      0.06757675528508
  H   -2.08871793248000     -0.50120322127250      0.77739091979832
  H   -2.02200647576261     -0.19434711469401     -0.85430237341656
  C   0.00558035595778      1.34497641698596     -0.89894819822968
  N   0.31243949969412      2.03274195159817     -1.80018617099379
  C   1.93840278438325     -0.53411232359763      0.20847658353711
  N   3.08621521231344     -0.29583674910780      0.26135541997810
