12
Coordinates from ORCA-job run
  C   -0.28759602719062      0.45189224893928      0.16060994923537
  C   1.01825179998326     -0.25769063330913     -0.22431845444810
  Cl  -0.09804416418882      1.20518726723811      1.77038528225967
  H   1.83680384666510      0.46589603689005     -0.22872957013467
  H   0.91710394093793     -0.65124496676659     -1.24191377261478
  N   -1.35632426093738     -0.50711364078137      0.23947671812223
  H   -2.21784249641159     -0.06389662087030      0.53621763569226
  H   -1.50452746698370     -0.94580388469052     -0.66319190216011
  C   -0.52155908547903      1.54211962010051     -0.80776148624526
  N   -0.73962122235611      2.35676865723193     -1.62697267957758
  C   1.32997639803897     -1.35346587561048      0.68866449332236
  N   1.62037873792196     -2.24164820837148      1.39753378654861
