15

C	0.0	0.0	0.0
C	-0.198474	0.034532	-1.559639
Br	1.9409	0.0	0.0
H	0.421585	0.872643	-1.885646
H	0.321039	-0.868337	-1.898919
N	-0.436499	1.258925	0.700979
O	-0.50148	2.273344	0.017257
O	-0.551084	1.200615	1.916542
C	-0.476207	-1.188388	0.683325
N	-0.573119	-2.235092	1.213328
C	-1.532395	0.125143	-2.280851
H	-1.292752	0.169496	-3.355233
H	-2.074745	1.01582	-1.981386
H	-2.169296	-0.726158	-2.065553
F	-2.274932	0.0	0.0
