15

C	0.0	0.0	0.0
C	-0.420872	-0.224136	-1.470508
Br	1.931892	0.0	0.0
H	0.23314	-1.022348	-1.836627
H	-1.451563	-0.564475	-1.366506
N	-0.435477	1.283751	0.684583
O	-0.617711	1.221266	1.891102
O	-0.438126	2.305664	0.0141
C	-0.442874	-1.13103	0.812554
N	-0.574555	-2.13283	1.414707
C	-0.37508	0.967067	-2.415291
H	0.579312	1.498981	-2.403785
H	-1.168991	1.664398	-2.157821
H	-0.55253	0.59919	-3.432028
F	-2.421847	0.0	0.0
