15

C	0.0	0.0	0.0
C	-0.382307	0.109702	-1.483695
Br	1.947044	0.0	0.0
H	-1.398781	0.493897	-1.457317
H	0.30574	0.811384	-1.959816
N	-0.406068	1.240308	0.774018
O	-0.531317	1.123304	1.984343
O	-0.457836	2.285047	0.140068
C	-0.477739	-1.18933	0.687878
N	-0.591001	-2.239316	1.207262
C	-0.364853	-1.248606	-2.167107
H	-0.577954	-1.125707	-3.234078
H	0.597715	-1.761397	-2.071418
H	-1.148938	-1.869494	-1.731266
F	-2.376999	0.0	0.0
