15

C	0.0	0.0	0.0
C	-0.203946	-0.171918	-1.551842
Br	1.940913	0.0	0.0
H	0.489991	0.544229	-1.996791
H	0.223535	-1.16281	-1.746272
N	-0.417934	1.352839	0.517382
O	-0.477427	2.258639	-0.30447
O	-0.534648	1.472017	1.728296
C	-0.512569	-1.069256	0.834795
N	-0.631228	-2.033422	1.501595
C	-1.524319	-0.04953	-2.298614
H	-1.959415	0.936142	-2.166787
H	-2.251287	-0.775401	-1.956355
H	-1.281257	-0.205184	-3.361125
F	-2.275478	0.0	0.0
