15

C	0.0	0.0	0.0
C	-0.205883	-0.163297	-1.550878
Br	1.940801	0.0	0.0
H	0.2425	-1.142886	-1.752854
H	0.475292	0.567218	-1.990423
N	-0.41254	1.351057	0.53088
O	-0.48745	2.259851	-0.28473
O	-0.506051	1.459503	1.744667
C	-0.513683	-1.075138	0.828018
N	-0.65066	-2.042355	1.48726
C	-1.528861	-0.062472	-2.294522
H	-2.245053	-0.795996	-1.947954
H	-1.279855	-0.214811	-3.356353
H	-1.976298	0.917134	-2.159538
F	-2.278948	0.0	0.0
