13

C	-0.54914	0.047484	-1.402949
C	0.0	0.0	0.0
Br	-0.084969	-1.577711	-2.364326
H	1.090075	0.0	0.0
H	-0.075692	0.869011	-1.930859
H	-1.634665	0.128703	-1.428999
N	-0.577283	-1.153077	0.749333
O	-1.796898	-1.322095	0.654562
O	0.18133	-1.853633	1.409515
N	-0.439108	1.207983	0.735708
O	-0.568112	2.245351	0.081629
O	-0.576841	1.125498	1.954489
F	2.477911	0.0	0.0
