13

C	-0.52668	0.054832	-1.412481
C	0.0	0.0	0.0
Br	-0.133992	-1.605528	-2.345176
H	1.08866	0.0	0.0
H	-1.605023	0.196439	-1.459305
H	0.0022	0.840735	-1.942214
N	-0.603063	-1.142908	0.740962
O	0.140789	-1.88837	1.368453
O	-1.830295	-1.260691	0.668079
N	-0.431338	1.216007	0.726319
O	-0.564665	1.144071	1.946135
O	-0.553619	2.248877	0.064166
F	2.479315	0.0	0.0
