13

C	-0.534867	-0.057533	-1.408965
C	0.0	0.0	0.0
Br	-0.115418	1.58729	-2.357374
H	1.090044	0.0	0.0
H	-0.026731	-0.859207	-1.935573
H	-1.616426	-0.176996	-1.447175
N	-0.436445	-1.208306	0.735555
O	-0.572114	-2.244299	0.080429
O	-0.563636	-1.127799	1.955634
N	-0.592417	1.151839	0.737207
O	0.158717	1.889134	1.365384
O	-1.81791	1.28529	0.660061
F	2.478585	0.0	0.0
