13

C	-0.55459	0.285904	-1.373238
C	0.0	0.0	0.0
Br	-0.206126	-1.205168	-2.57424
H	1.096711	0.0	0.0
H	-1.631995	0.442536	-1.367752
H	-0.032557	1.144383	-1.783587
N	-0.600286	-1.251438	0.541967
O	0.147441	-2.174604	0.843836
O	-1.831577	-1.279067	0.623824
N	-0.422419	1.073802	0.928086
O	-0.688712	2.176015	0.443039
O	-0.406123	0.82231	2.130544
F	2.481383	0.0	0.0
