13

C	-0.561503	-0.02207	-1.397134
C	0.0	0.0	0.0
Br	0.304468	1.292629	-2.535707
H	1.094039	0.0	0.0
H	-0.350482	-0.993893	-1.833953
H	-1.624124	0.205531	-1.422373
N	-0.480666	-1.209298	0.714254
O	-0.251045	-2.281819	0.152005
O	-1.055249	-1.09741	1.795117
N	-0.456288	1.188564	0.7673
O	-1.359281	1.887901	0.295825
O	0.126204	1.413056	1.824871
F	2.462694	0.0	0.0
