18

C	-0.221422	-0.009789	-1.51164
C	0.0	0.0	0.0
Br	-0.198255	1.88843	-2.264315
H	1.097958	0.0	0.0
N	0.722929	-0.844581	-2.085914
H	0.726326	-0.82762	-3.095264
H	1.649049	-0.658372	-1.666739
N	-1.625341	-0.444297	-1.939501
O	-1.739681	-1.046701	-3.004297
O	-2.551676	-0.160004	-1.184305
C	-0.423422	-1.337925	0.605637
H	-1.506611	-1.386337	0.757977
H	0.076327	-1.440528	1.573226
H	-0.111927	-2.174047	-0.023449
N	-0.49611	1.156936	0.704459
H	-1.362058	0.943872	1.182265
H	0.203339	1.437118	1.380981
H	2.841923	0.0	0.0
