18

C	-0.67414	-0.087092	-1.369568
C	0.0	0.0	0.0
Br	0.130338	-1.498541	-2.450142
H	1.102949	0.0	0.0
N	-2.095883	-0.278316	-1.382236
H	-2.482625	0.446706	-0.783484
H	-2.287771	-1.182976	-0.968576
N	-0.403931	1.239935	-2.096803
O	-1.373776	1.942375	-2.362812
O	0.767656	1.528502	-2.297995
C	-0.408105	-1.165605	0.885296
H	-0.25276	-2.123103	0.383148
H	0.244428	-1.154168	1.764315
H	-1.452792	-1.095264	1.215226
N	-0.481228	1.271421	0.581693
H	0.294967	1.925843	0.507479
H	-0.632099	1.135985	1.574429
H	2.877978	0.0	0.0
