18

C	-0.222743	-0.079095	-1.508173
C	0.0	0.0	0.0
Br	-0.193445	1.782169	-2.348974
H	1.104033	0.0	0.0
N	0.716853	-0.945119	-2.046725
H	0.718569	-0.970911	-3.05578
H	1.64431	-0.739594	-1.640026
N	-1.628846	-0.527869	-1.913893
O	-1.749182	-1.162929	-2.958343
O	-2.551082	-0.221331	-1.16279
C	-0.419308	-1.308771	0.669483
H	0.085757	-1.365606	1.638634
H	-0.109295	-2.173462	0.078735
H	-1.50152	-1.351188	0.829464
N	-0.496285	1.187479	0.651405
H	-1.363918	0.997763	1.135702
H	0.20138	1.494823	1.316504
H	2.8405	0.0	0.0
