19

C	-0.56134	-0.010413	-1.418416
C	0.0	0.0	0.0
Br	0.330081	1.355955	-2.518136
H	1.094813	0.0	0.0
N	-0.19973	-1.333725	-2.097735
O	0.7539	-1.960822	-1.657473
O	-0.878813	-1.668902	-3.0693
C	-2.056256	0.182956	-1.524886
H	-2.537625	-0.588694	-0.919594
H	-2.383161	0.099379	-2.559355
H	-2.322026	1.169162	-1.144139
N	-0.505411	-1.222072	0.657978
H	-0.762604	-0.992467	1.610866
H	0.283671	-1.860085	0.710533
C	-0.438175	1.234221	0.771164
H	-0.235663	2.150806	0.21449
H	0.154764	1.274866	1.689687
H	-1.502188	1.203194	1.03518
H	2.90869	0.0	0.0
