19

C	-0.410517	0.030227	-1.461486
C	0.0	0.0	0.0
Br	0.259135	-1.573218	-2.384509
H	1.102033	0.0	0.0
N	-1.933174	-0.004026	-1.559081
O	-2.484952	1.100228	-1.520598
O	-2.522812	-1.076883	-1.569133
C	0.154668	1.229494	-2.190622
H	-0.285823	2.14751	-1.807981
H	-0.046588	1.161435	-3.261458
H	1.233154	1.229732	-2.007388
N	-0.560014	-1.172479	0.689633
H	-0.092247	-1.194567	1.592231
H	-0.223852	-2.000599	0.205647
C	-0.434492	1.243293	0.76531
H	-1.521747	1.327165	0.837758
H	-0.019582	1.160912	1.775227
H	-0.01807	2.15362	0.333482
H	2.868384	0.0	0.0
