19

C	-0.399243	-0.034817	-1.460566
C	0.0	0.0	0.0
Br	-2.381299	-0.249323	-1.69873
H	1.103052	0.0	0.0
N	-0.045395	1.30183	-2.100655
O	-0.786114	2.263567	-1.912829
O	1.016328	1.342295	-2.713349
C	0.297562	-1.151318	-2.19384
H	-0.056807	-2.092029	-1.778268
H	1.369447	-1.050697	-1.992094
H	0.101046	-1.108036	-3.266194
N	-0.363803	-1.282394	0.598497
H	-1.204427	-1.184477	1.154205
H	0.401469	-1.550324	1.208075
C	-0.465069	1.206489	0.796243
H	-0.034929	2.136085	0.42062
H	-0.110166	1.075956	1.822879
H	-1.556268	1.303506	0.802143
H	2.776686	0.0	0.0
