19

C	-0.564844	-0.016938	-1.417102
C	0.0	0.0	0.0
Br	0.327549	1.338128	-2.530309
H	1.094859	0.0	0.0
N	-0.204839	-1.345259	-2.086461
O	-0.897388	-1.697832	-3.042843
O	0.761801	-1.957894	-1.655391
C	-2.060312	0.176049	-1.522254
H	-2.540485	-0.593231	-0.91246
H	-2.38928	0.087067	-2.555843
H	-2.325818	1.163762	-1.145422
N	-0.503314	-1.222786	0.657627
H	-0.765863	-0.993824	1.6088
H	0.288855	-1.85787	0.715162
C	-0.441022	1.234101	0.769423
H	-0.232448	2.151017	0.215628
H	0.143846	1.27272	1.693516
H	-1.507502	1.205086	1.025085
H	2.916245	0.0	0.0
