19

C	-0.325251	-0.060673	-1.478481
C	0.0	0.0	0.0
Br	-2.304642	-0.349389	-1.837088
H	1.102749	0.0	0.0
N	-0.003672	1.276897	-2.13251
O	1.032406	1.328494	-2.792588
O	-0.751677	2.227628	-1.921294
C	0.444156	-1.154019	-2.173677
H	0.326516	-1.101756	-3.256432
H	1.498362	-1.028753	-1.88915
H	0.087811	-2.121266	-1.82218
N	-0.338478	-1.246978	0.683941
H	0.43346	-1.894909	0.567641
H	-1.186075	-1.659836	0.31139
C	-0.530019	1.192678	0.769284
H	-0.235409	1.044374	1.809587
H	-0.100587	2.132493	0.419963
H	-1.621478	1.262908	0.717244
H	2.75958	0.0	0.0
