16

C	0.0	0.0	0.0
C	-0.379244	0.308096	-1.475895
F	1.389167	0.0	0.0
H	0.492897	-0.060782	-2.031194
H	-0.287647	0.822936	0.668663
N	-0.504454	-1.277057	0.410621
H	-0.28809	-1.400172	1.395848
H	-1.526014	-1.16852	0.354985
C	-0.482239	1.816408	-1.669986
H	-1.372831	2.18443	-1.153773
H	0.400796	2.327995	-1.271689
H	-0.581374	2.045879	-2.733749
N	-1.559674	-0.330679	-2.02997
H	-1.420219	-1.33517	-1.978489
H	-2.356412	-0.135862	-1.394746
H	-3.347053	0.0	0.0
