16

C	0.0	0.0	0.0
C	-0.528373	0.071796	-1.410712
F	1.424031	0.0	0.0
H	-1.611911	0.206392	-1.255299
H	-0.317107	0.892185	0.540631
N	-0.443789	-1.174051	0.672126
H	0.157247	-1.951063	0.441061
H	-0.482812	-1.044863	1.67007
C	-0.291144	-1.220897	-2.185601
H	0.77483	-1.477414	-2.211651
H	-0.853571	-2.038149	-1.731412
H	-0.640109	-1.107947	-3.216364
N	0.030654	1.269586	-2.043325
H	-0.439785	1.418059	-2.930391
H	1.01486	1.104554	-2.237735
H	-3.713083	0.0	0.0
