14

C	0.0	0.0	0.0
C	-0.238541	-0.133616	-1.518206
Br	2.017385	0.0	0.0
H	0.407324	-0.937681	-1.86832
H	0.154771	0.798813	-1.932481
N	-0.541119	1.115882	0.60964
H	-0.397913	1.050983	1.609484
H	-1.562901	1.056936	0.430508
N	-0.291443	-1.339934	0.729185
O	-0.407661	-1.266148	1.945701
O	-0.337743	-2.360075	0.05497
C	-1.531709	-0.374649	-2.171424
N	-2.255476	-0.580655	-3.077127
Cl	-3.370084	0.0	0.0
