14

C	0.0	0.0	0.0
C	-0.307523	-0.155513	-1.513043
Br	1.945971	0.0	0.0
H	0.479137	-0.776859	-1.936047
H	-0.189172	0.851824	-1.920762
N	-0.56109	1.122644	0.592567
H	-1.584716	1.036802	0.445446
H	-0.377461	1.108176	1.587768
N	-0.317575	-1.335399	0.73686
O	-0.327101	-2.360528	0.069411
O	-0.476696	-1.252863	1.948226
C	-1.534855	-0.745328	-2.060537
N	-2.244696	-1.270669	-2.837603
Cl	-3.407488	0.0	0.0
