14

C	0.0	0.0	0.0
C	-0.48424	-0.236904	-1.422315
Br	2.008907	0.0	0.0
H	-1.579944	-0.324614	-1.364584
H	-0.065175	-1.166752	-1.803646
N	-0.537359	1.1336	0.575684
H	-1.560701	1.082894	0.435637
H	-0.333352	1.168609	1.565918
N	-0.274513	-1.308676	0.824324
O	-0.251633	-2.38022	0.235707
O	-0.446736	-1.148855	2.026023
C	-0.114533	0.864514	-2.301774
N	0.180457	1.716218	-3.053487
Cl	-3.481576	0.0	0.0
