14

C	0.0	0.0	0.0
C	-0.501211	0.043788	-1.45185
Br	1.926615	0.0	0.0
H	-0.081812	-0.771123	-2.041184
H	-1.595381	-0.063413	-1.38523
N	-0.503798	0.979085	0.881234
H	-0.258145	1.899524	0.533835
H	-1.528176	0.876162	0.879178
N	-0.378149	-1.392658	0.56322
O	-0.346694	-2.321854	-0.23717
O	-0.606312	-1.474042	1.757479
C	-0.167644	1.327705	-2.052638
N	0.12632	2.365259	-2.517992
Cl	-3.491079	0.0	0.0
