16

C	-0.454089	0.005543	-1.467643
C	0.0	0.0	0.0
Br	-2.403566	-0.048216	-1.648646
H	1.096858	0.0	0.0
N	0.04553	1.300199	-2.140124
O	1.067082	1.192566	-2.804519
O	-0.586195	2.321898	-1.911783
C	0.079333	-1.135906	-2.20192
N	0.495283	-2.068448	-2.785326
C	-0.460811	-1.240522	0.612202
N	-0.834334	-2.220738	1.143375
C	-0.43953	1.212367	0.821938
H	0.065207	2.109405	0.464598
H	-1.52053	1.364495	0.794626
H	-0.12193	1.042984	1.852934
Br	3.345673	0.0	0.0
