16

C	-0.436623	-0.009831	-1.462147
C	0.0	0.0	0.0
Br	0.327172	1.503721	-2.435442
H	1.093954	0.0	0.0
N	0.09869	-1.281857	-2.162596
O	1.253906	-1.574683	-1.915968
O	-0.665043	-1.863989	-2.921307
C	-1.881295	0.023825	-1.617844
N	-3.055706	0.098967	-1.663418
C	-0.460526	-1.246261	0.590666
N	-0.852438	-2.248757	1.075136
C	-0.547736	1.190755	0.780531
H	-0.196803	1.126148	1.813224
H	-0.181263	2.127252	0.356306
H	-1.641944	1.202758	0.788917
Br	2.751506	0.0	0.0
