17
Coordinates from ORCA-job run
  C   -0.57699434537432      0.36484510370848      0.07654489016947
  C   0.72728671648323     -0.43711170366148     -0.12753049872540
  Cl  -0.74095992377918      1.56477934550490     -1.24928484053518
  H   0.80151257903097     -1.09478400221802      0.75061737163535
  N   -0.43279346172422      1.11809454495932      1.31232458285179
  H   -1.17872511375791      1.80148487372948      1.37984973684704
  H   -0.52902238860840      0.47913797799049      2.09623597844679
  C   -1.80544006397797     -0.53466092270060      0.03505005890807
  H   -1.91454345883175     -1.03185929890026     -0.92950020730694
  H   -1.72199170126757     -1.29789626780352      0.81625203708638
  H   -2.70140775126771      0.05995519784266      0.22431219461916
  C   1.98996215626113      0.42429290689309     -0.19826813059298
  H   2.00626069394848      1.10569936841856      0.65096918684209
  H   2.00757141193250      1.00470504757152     -1.12031238281554
  H   2.87514940718806     -0.21415164739457     -0.17362602072845
  C   0.62689962998241     -1.30848637996297     -1.29966441356948
  N   0.56723561376226     -2.00504414397710     -2.24296954313217
