17
Coordinates from ORCA-job run
  C   -0.71947490616043      0.32283308691755     -0.07930789421395
  C   0.56355264004236     -0.18950194717112     -0.76523767554936
  Cl  -1.81654997197291      0.89258638436086     -1.46420467229763
  H   0.25737966800436     -0.86598489649700     -1.56928893487222
  N   -0.40761584097813      1.36666645913136      0.82710153026680
  H   0.00648139513908      2.16435751858295      0.35805846534017
  H   -1.22979076572412      1.67380581032633      1.33148588083414
  C   -1.47693738843401     -0.78587768614444      0.62764423575012
  H   -2.45034312885174     -0.41604843086451      0.95585597400022
  H   -1.64648191361440     -1.62896020808050     -0.04351596153507
  H   -0.91683210927339     -1.11609415704507      1.50349135644222
  C   1.50250707091307     -0.91747579041933      0.20375598990162
  H   2.43895540774345     -1.16367087189167     -0.29986125189268
  H   1.71988767816470     -0.28320537379600      1.06316558169299
  H   1.05065643021534     -1.84780805082674      0.54936473678964
  C   1.26834019347683      0.93803362918300     -1.38103980237765
  N   1.85526554130993      1.85534452423434     -1.82046755827932
