17
Coordinates from ORCA-job run
  C   -0.73294834294432      0.29797211297390     -0.07523195855910
  C   0.70411303333942      0.12367316322579     -0.61195118980530
  Cl  -1.83699458787289     -0.50882280540482     -1.33239743787812
  H   0.73588313339639      0.61156252855258     -1.59441207907967
  N   -1.01061736305558      1.68147665600586      0.04809297299373
  H   -1.93988768168362      1.84418306006816      0.41499312875529
  H   -0.91414857294333      2.16958801435883     -0.83412056623436
  C   -0.97765333920419     -0.40641906942743      1.24375955247421
  H   -0.84303492161617     -1.48285692372693      1.15197488786075
  H   -0.29216063322213     -0.00895308515018      1.99596369508848
  H   -2.00316620065317     -0.22553833243468      1.57307319028291
  C   1.17700040229174     -1.32446247184387     -0.76800710338937
  H   0.49566886859163     -1.88421652099424     -1.40734055699404
  H   1.24973587540711     -1.81984446563368      0.20096684479088
  H   2.16903506209610     -1.33496180217660     -1.22287285296906
  C   1.62704464918058      0.84737559222310      0.26872836015954
  N   2.39313061889244      1.42124434938421      0.94878111250325
