17
Coordinates from ORCA-job run
  C   -0.69337268998426      0.29067916620267      0.13642347830376
  C   0.67617710841685     -0.34565608361341     -0.23371093278939
  Cl  -0.96712493230365      1.68243877989697     -0.97075691662503
  H   0.78253119972329     -1.20482654972020      0.44351331283950
  N   -0.75405839241463      0.80787196598884      1.48240291813602
  H   -0.64539814019153      0.05570194013355      2.15353423973465
  H   -0.04735455838869      1.51291928651662      1.64743248729646
  C   -1.82424231552070     -0.70367567980052     -0.05580671832244
  H   -1.87547224509189     -1.05211093890454     -1.08705137966669
  H   -1.67052022187796     -1.56802931926702      0.59924892781244
  H   -2.76509206619527     -0.22332022668912      0.21139281087790
  C   1.88698634182855      0.57089801486614     -0.04646634967335
  H   1.96708794889677      0.89525277403146      0.99219549750306
  H   1.81291610510719      1.44690817326057     -0.69055802770402
  H   2.80221107777279      0.03300876462951     -0.29865099973088
  C   0.65685957611327     -0.88231613115347     -1.59564721452308
  N   0.65886620410986     -1.31474393637805     -2.68749513346891
