17
Coordinates from ORCA-job run
  C   -0.74368709059907      0.28470055403374     -0.20157244663591
  C   0.71308191012361      0.07161337686031     -0.67284166944996
  Cl  -1.81532272696116     -0.49177763533757     -1.42304640771354
  H   0.76121993744134      0.50054526535185     -1.67900842939702
  N   -1.01939545614229      1.70727206042289     -0.26880924780909
  H   -2.00857214952114      1.87006589714739     -0.11580759003277
  H   -0.50572598181056      2.18477449832391      0.46604893000553
  C   -1.03333997986816     -0.35960670181950      1.14656821853433
  H   -0.90406399833830     -1.44228599301776      1.12384282425571
  H   -0.36635345752971      0.06413163542303      1.90365106433780
  H   -2.06455291313375     -0.14663026409409      1.43494293653447
  C   1.18947012621418     -1.38222710949895     -0.69688661137046
  H   2.18293357208158     -1.43518206671384     -1.14568046708238
  H   0.50965008627109     -1.99125472361413     -1.29291684277672
  H   1.25340514653669     -1.79723587823315      0.30974575079272
  C   1.58790471174964      0.86910543690179      0.19132776167019
  N   2.26234826348598      1.49499164786408      0.92144222613712
