17
Coordinates from ORCA-job run
  C   -0.61937722419539      0.24759544473319      0.19242680683470
  C   0.69177044113970     -0.41688581223393     -0.27330454714267
  Cl  -0.86482772712910      1.76413927654569     -0.83217319134995
  H   0.74488233521819     -1.35481576584867      0.29359744431021
  N   -0.51790604143658      0.54839431121521      1.58024483557555
  H   0.16055316610386      1.27903432947689      1.75461925503303
  H   -1.41201662875509      0.85858532602473      1.94125376276149
  C   -1.81987445971511     -0.64491930456032     -0.06004764078728
  H   -1.70899250788182     -1.56522053773642      0.51896302244546
  H   -2.73482833897790     -0.13785882553991      0.25402793570958
  H   -1.91261852699873     -0.88668690241742     -1.11827899607473
  C   1.95716473582962      0.39514003929620      0.01334692612806
  H   2.83010134914644     -0.12728182079522     -0.38093983081077
  H   1.90276792561611      1.37758002384405     -0.45662216800366
  H   2.09810456691358      0.50903112023801      1.08930920548252
  C   0.61964085326003     -0.77077451667311     -1.69198941682556
  N   0.58645608186220     -1.07505638556898     -2.82543340328599
