17
Coordinates from ORCA-job run
  C   -0.53214686752018      0.42456977157394      0.09270286724866
  C   0.67085770959448     -0.51386470573851     -0.14844041981255
  Cl  -0.60426526952331      1.63585171668259     -1.23089481546955
  H   0.69757077864757     -1.18020660113944      0.72581491327546
  N   -0.27065358868584      1.15717909626530      1.32145976669075
  H   -0.40813872323930      0.53105231873450      2.10957865144174
  H   -0.93847302724137      1.91485075779495      1.41097187887615
  C   -1.85132748089585     -0.33670294231852      0.09018966851695
  H   -2.04142123890530     -0.82085373135105     -0.86825073104259
  H   -1.82851416046811     -1.10284631324062      0.87249728038303
  H   -2.67188985562546      0.35163587865821      0.30187912053193
  C   2.01717044440071      0.20597450581312     -0.25422000867028
  H   2.82835038882085     -0.52451758099923     -0.25166223036786
  H   2.07302566602520      0.78134661521138     -1.17774705282406
  H   2.12981544257078      0.88117714406840      0.59246739032485
  C   0.44417592642626     -1.36239123611502     -1.31984444836069
  N   0.28586385561887     -2.04125469390000     -2.26450183074194
