15
Coordinates from ORCA-job run
  C   0.58761602073954     -0.09087948035254      0.30508555408346
  C   -0.73391868797102      0.07696509745580     -0.45848504491322
  Br  0.16578694232442     -0.39906432638188      2.22722074628297
  H   -0.44443913003589      0.44901109587867     -1.44489355792997
  N   1.42092105897546     -1.05987928191508     -0.27637582658757
  H   2.30821048307160     -1.11904914154420      0.21004641672853
  H   0.98237821284453     -1.97250866400621     -0.30814558504240
  N   1.39273436805299      1.21132552415823      0.23242943234368
  O   1.02918621575467      2.05602298570864     -0.57395234959738
  O   2.39677177008057      1.25094156565872      0.93069584266923
  N   -1.59312524633568      1.05274631421191      0.17027027198746
  H   -2.19455961454764      1.48672449400455     -0.51669735181110
  H   -2.16030813146285      0.63446467371102      0.89571380867554
  C   -1.33304063238459     -1.25854015633412     -0.63714791652610
  N   -1.82621362910614     -2.31828070025350     -0.75876444036313
