15
Coordinates from ORCA-job run
  C   0.65050936493471     -0.06679858406569      0.27711239003044
  C   -0.87412638314816     -0.18053265375865      0.12283620003738
  Br  1.21607132102532     -1.69270403563030      1.37453598024847
  H   -1.31007931271136     -0.30833483632949      1.11809563011746
  N   1.26980959351707      0.08536135634965     -0.94008491922635
  H   2.27586427795532      0.16012350051558     -0.89778320574210
  H   0.92350097443545     -0.58494328897511     -1.61508231158131
  N   1.03046242937264      1.08612875008527      1.19065769945710
  O   0.18222886671663      1.45867407814628      1.99238754655661
  O   2.16370028716985      1.52720615677211      1.05925381329287
  N   -1.13683743868765     -1.27537626101782     -0.81035289972061
  H   -1.09913414451955     -2.15525319870097     -0.30924316436659
  H   -2.05950674358526     -1.17542928613975     -1.21470524209552
  C   -1.38846726722872      1.07129375445017     -0.44502026698915
  N   -1.84399582524630      2.05158454829872     -0.90260725001870
