15
Coordinates from ORCA-job run
  C   0.60035500200769     -0.27678068239288      0.34578399258082
  C   -0.92469009972880     -0.20221587295871      0.17055165440667
  Br  1.09778742545648     -1.82662037517263      1.38405196604169
  H   -1.37903414009406     -0.16737852515165      1.16185533995993
  N   1.24991254298855     -0.30067199534770     -0.90426018411003
  H   1.12256283199313      0.58259057983000     -1.38916178367591
  H   2.24086228366035     -0.47996387894723     -0.80668336931844
  N   1.01638938763560      0.94403167912463      1.22675547794596
  O   0.29159249916571      1.21819603443146      2.17437903800594
  O   2.04230963948920      1.52466376780510      0.89522906871115
  N   -1.38234740070572     -1.37574245264323     -0.53449486829159
  H   -2.38942345334607     -1.36156557602797     -0.63129154252612
  H   -0.95374871916093     -1.41973571137333     -1.45081231153585
  C   -1.21087933430273      1.07902275318379     -0.51691903230658
  N   -1.42264846505840      2.06217025564034     -1.12598344588763
