15
Coordinates from ORCA-job run
  C   0.57105138617651     -0.17944546138165      0.38928027799124
  C   -0.75246768442005     -0.01151432473230     -0.42275781412827
  Br  0.16807510796950     -0.48086598328107      2.24815129484421
  H   -0.42414228755212      0.15612115420141     -1.45606553141603
  N   1.47700236030303     -1.18059476719661     -0.06500219160500
  H   1.13094551201068     -2.10741641764903      0.14725749843845
  H   1.64756668261750     -1.08191667552005     -1.05932887285970
  N   1.28834812223771      1.16506494057708      0.20219525507426
  O   1.37625104660213      1.96247987837316      1.12123748026373
  O   1.67978272733105      1.33266224218954     -0.95168288113773
  N   -1.63165097139987      1.06788014587936     -0.05604957380871
  H   -1.86161318440920      1.03861478192245      0.92939886213794
  H   -1.22677776832998      1.96640200858255     -0.28401421978485
  C   -1.45546044998174     -1.29979292751544     -0.38791020592730
  N   -1.98591059915515     -2.34667859444939     -0.35470937808225
