15
Coordinates from ORCA-job run
  C   0.64767038127369     -0.25157078956438      0.42433802561495
  C   -0.81490255779159     -0.39695147359298     -0.04040873491584
  Br  0.78602469255385     -1.06802363259131      2.21198848906629
  H   -1.03816824542748     -1.45919745484792      0.10264076546356
  N   1.52971763733928     -0.76471127978646     -0.52169638856165
  H   2.37413415975253     -1.18287876452340     -0.16871045330089
  H   1.08251449415572     -1.22934095821681     -1.29729380252877
  N   1.01435264371946      1.24042678027681      0.61636335223629
  O   2.03899674923055      1.49626296662094      1.22462435046574
  O   0.29650278170028      2.04094012859698      0.02035712546998
  N   -0.93575025220764     -0.12142053105622     -1.46034726215997
  H   -1.83649668825286     -0.43961519197697     -1.79596386580200
  H   -0.85971196914559      0.87539316222143     -1.62229345167060
  C   -1.73873289492016      0.35139687475802      0.83114675267077
  N   -2.54715093198007      0.90929016368227      1.47525509795215
