15
Coordinates from ORCA-job run
  C   0.54093604679677     -0.12284635537930      0.46282969843630
  C   -0.67553870352613     -0.14809229809132     -0.47561507541822
  Br  -0.00443057683331     -0.22293649017315      2.30762682243768
  H   -0.25910919644823     -0.10894418420268     -1.48867064531962
  N   1.42142250268008     -1.18591155793274      0.16429676071238
  H   2.16388036482012     -1.27489563574197      0.84635388718531
  H   1.80972806597524     -1.06838035339966     -0.76510068797683
  N   1.18838383766377      1.27507076587684      0.19122988327305
  O   1.64563419492111      1.35237691520270     -0.94728424975072
  O   1.21435587584247      2.13951933573314      1.04696741185266
  N   -1.47522157203821      1.04243420889954     -0.28490153076352
  H   -2.10905504780448      1.16992256864587     -1.06317411556972
  H   -2.02125558243833      0.97457553617004      0.56573692453006
  C   -1.39205738591627     -1.42595229088853     -0.32574147631326
  N   -2.04867282369459     -2.39594016471878     -0.23455360731555
