15
Coordinates from ORCA-job run
  C   0.55578298533488     -0.16406116189009      0.47842591629051
  C   -0.87746888223443     -0.32133644795803     -0.05234607637316
  Br  0.57804952085876     -0.44549077562628      2.44247504905809
  H   -1.10918263270811     -1.39249339922921      0.07463109106331
  N   1.40870276649112     -1.01914086957984     -0.24585720363119
  H   1.32434238949876     -1.97456070568988      0.07683897095405
  H   2.37098395157139     -0.70824005518778     -0.18686460615773
  N   1.02227828179703      1.27703478150518      0.26958428338851
  O   2.16206193183463      1.43037867145705     -0.15378668981531
  O   0.22815559912208      2.15177885476945      0.56801719334553
  N   -0.85189496349287      0.13450773467321     -1.43223677132715
  H   -0.32075334704771     -0.52052804451153     -1.99121426837381
  H   -1.78908611608866      0.22544294484078     -1.80208151079586
  C   -1.89737504371264      0.41069282430311      0.70227369444624
  N   -2.80459644122421      0.91501564812385      1.25014092792798
