15
Coordinates from ORCA-job run
  C   0.60193411682278     -0.31892587430690      0.48430525249396
  C   -0.84764035460290     -0.40779772000797     -0.01692985221039
  Br  0.71703444192926     -0.79682034096738      2.35974492710640
  H   -1.06081177624807     -1.48119943256839      0.00310622846828
  N   1.41339676028416     -1.16345048900302     -0.29066500512067
  H   2.39146806574313     -1.05311050535415     -0.05429295113229
  H   1.24832589853758     -0.95629451980195     -1.27108583833991
  N   1.07495998629401      1.16248108254932      0.41896854020788
  O   0.21583406738380      2.03666673133477      0.35346598298016
  O   2.28625655883293      1.33454404862943      0.42224625706632
  N   -0.87007557910637      0.03728093497815     -1.40442222080024
  H   -1.00665868255969      1.04039800572878     -1.44207524991190
  H   -1.62861424089601     -0.40900877722105     -1.90380612439737
  C   -1.83341902233607      0.24862779914063      0.85505520326515
  N   -2.70099024007855      0.72760905686971      1.48538485032464
