15
Coordinates from ORCA-job run
  C   0.57711416057126     -0.03386007467228      0.49377492407181
  C   -0.61641446440565     -0.09079606803074     -0.48473645296811
  Br  -0.03614176749713     -0.36335358583259      2.29129879169305
  H   -0.18397258959786      0.13188145080349     -1.46621981993996
  N   1.67744671591438     -0.89458556848651      0.21134405347447
  H   1.45078679423100     -1.86074169734598      0.40764898368280
  H   1.97607854938223     -0.78309271933913     -0.75098130265997
  N   1.11691404242173      1.39923423171369      0.35540748718200
  O   1.56004223909576      1.61955977018760     -0.76945738392217
  O   1.08640372518621      2.17239168416611      1.29327831702548
  N   -1.57814519036334      0.94299329170541     -0.18090526312386
  H   -2.20462878129188      1.09146504869970     -0.96140891596653
  H   -2.12506172995611      0.70273052539910      0.63674630603069
  C   -1.13043544236937     -1.47246220907666     -0.52162439897417
  N   -1.56898626132123     -2.56236407989120     -0.55416532560554
