15
Coordinates from ORCA-job run
  C   0.65345366367784     -0.07165617738805      0.26999887597383
  C   -0.87124739023447     -0.19385606104316      0.12284275898454
  Br  1.24254407860627     -1.73292294930478      1.29978734422593
  H   -1.29830265303044     -0.36438036776511      1.11547923692135
  N   1.26199940721406      0.13245349374411     -0.94517883293251
  H   0.92123298644977     -0.51985716113111     -1.64031197965600
  H   2.26736734982284      0.21875609087622     -0.90599985126973
  N   1.02916276186111      1.04927017023878      1.22423320277747
  O   0.18645315355803      1.37534658584795      2.05161107562688
  O   2.15335843657439      1.51345656469904      1.09578205942540
  N   -1.13130298878586     -1.25394588155990     -0.85043396272706
  H   -2.05408727829660     -1.14129864850948     -1.25109743614270
  H   -1.09177134662601     -2.15166237643193     -0.38226544022343
  C   -1.40092216099562      1.07450769776270     -0.39175606835410
  N   -1.86793801979532      2.06578901996471     -0.81269098262987
