15
Coordinates from ORCA-job run
  C   0.68137848007094     -0.18909228683163      0.40189586756485
  C   -0.79319696350257     -0.44027508180416      0.03083228236330
  Br  0.95666715662067     -0.87385810844261      2.22990047280598
  H   -0.94884543364262     -1.50103321925007      0.25317640618501
  N   1.53963704356575     -0.71973007844392     -0.55622353446657
  H   1.08027841321707     -1.26736560276357     -1.26785864651591
  H   2.42535420637661     -1.06303786044529     -0.22402739625280
  N   0.97762566584847      1.32855339156170      0.47596389556274
  O   2.02172637936192      1.67348929924673      1.00161371411940
  O   0.18402256541605      2.05192393612290     -0.12236182024462
  N   -1.00489591767249     -0.26563061372049     -1.39419912842641
  H   -1.90484671525366     -0.64844079602082     -1.65653276572388
  H   -0.98995454288059      0.72080611863690     -1.62307799439139
  C   -1.70977563244164      0.31467668305818      0.90461904371373
  N   -2.51417470508393      0.88001421909614      1.54727960370657
