15
Coordinates from ORCA-job run
  C   0.60087838028402     -0.08305544005903      0.36850549981489
  C   -0.89319488727870     -0.12279401868543      0.01121419425244
  Br  0.90642994621324     -1.65629225898997      1.63454150896781
  H   -1.46693260698234     -0.15606940756868      0.94212076157407
  N   1.38759079852699     -0.05295876105952     -0.75737077338044
  H   2.38134133371282     -0.02802809328102     -0.58046294615591
  H   1.09451352734500     -0.74974534323484     -1.43068496146258
  N   0.92802808497863      1.10886829132554      1.25186594045777
  O   0.00601691249783      1.58229321428848      1.90494704529237
  O   2.09446226519807      1.47693670775208      1.25010599002581
  N   -1.09768558561798     -1.26440107052580     -0.87925310391501
  H   -1.94821069709047     -1.14218876890942     -1.41448678549734
  H   -1.18488252546064     -2.10740645592361     -0.32395946056170
  C   -1.24303316088955      1.11333601851417     -0.69852587315493
  N   -1.56432178543692      2.08250538635705     -1.27755703625726
