15
Coordinates from ORCA-job run
  C   0.67082773259126     -0.15764440791961      0.29850574400007
  C   -0.89239987433321     -0.23203622500554      0.22199632812115
  Br  1.29760381715706     -1.76793160884141      1.19180525035759
  H   -1.26530450549204     -0.31366390715144      1.24652917301634
  N   1.38780646765221      0.00627277282067     -0.90495327727141
  H   1.19336620161206      0.89146656263485     -1.35596530899560
  H   1.27644636175307     -0.77959938497706     -1.52873245298984
  N   0.97314539555039      1.04070371172624      1.21055872325972
  O   1.57965565012552      1.97989205294013      0.71147996905718
  O   0.50675065693167      0.98471415980209      2.34158015110261
  N   -1.43794062461922     -1.30974230990647     -0.56476631451028
  H   -1.19045309333518     -2.20629459711479     -0.16670863387547
  H   -1.13187884134593     -1.26377043649887     -1.52826019955763
  C   -1.33925179180719      1.04911985211602     -0.34160091704636
  N   -1.62737355244048      2.07751376537520     -0.83046823466806
