15
Coordinates from ORCA-job run
  C   0.60461277560224     -0.15886227175155      0.43287529137197
  C   -0.65853710031237      0.03928039463060     -0.43307213730224
  Br  0.09585597067064     -0.62833190861372      2.23180324337263
  H   -0.27923112570125      0.32727149404065     -1.41955756869473
  N   1.56401607557776     -1.09992181046524     -0.04129533259891
  H   1.80013950200167     -0.90800155964200     -1.00834376324006
  H   1.23440651037193     -2.05019431254521      0.06642427756914
  N   1.30643760596263      1.20931862327702      0.40374778606676
  O   1.68384579791197      1.51100914759772     -0.72619704360313
  O   1.44569059510701      1.86271990100431      1.41964242843611
  N   -1.45850365688404      1.13211880618428      0.06853335720753
  H   -1.96714213742564      0.85886072534916      0.90038547915703
  H   -2.11931635564397      1.44410704825616     -0.63129962851905
  C   -1.34127911735704     -1.26016372871596     -0.57500511088844
  N   -1.91199533988154     -2.28121054860623     -0.68864127833460
