15
Coordinates from ORCA-job run
  C   0.54034644580405     -0.28225988390225      0.57219482493706
  C   -0.84814469674849     -0.39958098978228     -0.07512027297412
  Br  0.44499270678880     -0.59757387011406      2.48237254091104
  H   -1.08238342078662     -1.46545555367849      0.00906604046333
  N   1.41451667028514     -1.19759306979409     -0.03599181420468
  H   2.36313502835842     -1.07824292653572      0.29638978413841
  H   1.36133067441070     -1.07226597908376     -1.04237648147765
  N   1.04439734057640      1.18410179578513      0.43341926044910
  O   2.25202965171818      1.34398434004127      0.54641643622929
  O   0.21228586124029      2.05809634164239      0.20996531745578
  N   -0.71180480261314     -0.07180151372843     -1.48860528026764
  H   -0.82642418547357      0.92562850131331     -1.62374146432632
  H   -1.41852125497214     -0.55288070690714     -2.02990020680957
  C   -1.91035384556846      0.33600825634289      0.62713036027739
  N   -2.83440217301955      0.86783525840122      1.11978095519858
