15
Coordinates from ORCA-job run
  C   0.56745331687140     -0.30637804550128      0.32515476624831
  C   -0.73357705476499      0.06549436821567     -0.40281139533294
  Br  0.20708665356116     -0.94602458448398      2.10624858342811
  H   -0.42178029875604      0.39351231384978     -1.40103264330545
  N   1.28160491013208     -1.28495908869027     -0.40052960328163
  H   1.58116034485341     -0.91004676512760     -1.29379689653099
  H   2.07543026472407     -1.64386631365146      0.11437170690750
  N   1.34388740025355      1.04900546406179      0.41114695695530
  O   1.55952350552007      1.59024889485374      1.47923323195050
  O   1.68738282512089      1.44871410227262     -0.69953037735490
  N   -1.36396224456232      1.19197839281580      0.25075951023717
  H   -2.05618994645686      1.61058034281605     -0.35700076292151
  H   -1.82270447869001      0.89887455238592      1.10525314770949
  C   -1.57605239527535     -1.13247418343751     -0.55727778664155
  N   -2.32926280253107     -2.02565945037928     -0.68018843806741
