15
Coordinates from ORCA-job run
  C   0.51186088199714     -0.19894878124854      0.44346929107229
  C   -0.92946125024685     -0.39363747080374     -0.08421458520632
  Br  0.55025994525273     -0.52239433824718      2.40697714169443
  H   -1.11026003876669     -1.47207935443246      0.02119005906758
  N   1.40097031576362     -0.99760196375090     -0.29844239252493
  H   1.24734015425494     -1.98154528994207     -0.11579045812282
  H   2.36428846097732     -0.75303523496601     -0.10091281510544
  N   0.97289292927125      1.24530095370836      0.28009599290218
  O   2.18298475304070      1.42823421907366      0.23671086865832
  O   0.10332686734908      2.10525984752619      0.21982035068716
  N   -1.09937055487990     -0.03976757435908     -1.47646922875353
  H   -0.34865197031676     -0.44496984153342     -2.02222950052072
  H   -1.09096380460499      0.96606727859706     -1.58793266044913
  C   -1.94556878457204      0.27797328727248      0.73136012299251
  N   -2.80964790451955      0.78114426310566      1.34536781360843
