15
Coordinates from ORCA-job run
  C   0.63867232537875     -0.07787308884714      0.30126244083651
  C   -0.88644495708468     -0.11001710988016      0.11666363014475
  Br  1.06943249663846     -1.60935057258387      1.58297325366133
  H   -1.35100300058364     -0.10227796650684      1.10711227750159
  N   1.29317523184826     -0.09913185249036     -0.90614458639209
  H   2.30072968424562     -0.08058496370235     -0.84479758121146
  H   0.91791298910953     -0.81380945784333     -1.51703067743658
  N   1.07503902240171      1.14011098072478      1.09755715067524
  O   2.23771275256060      1.49097026914544      0.95254503482648
  O   0.23625781837293      1.65081918808423      1.83011960087658
  N   -1.20126515913409     -1.27994091961859     -0.70292301883653
  H   -1.23569412927311     -2.10062325529147     -0.10921588318936
  H   -2.10620882657150     -1.16418316706096     -1.14157769872680
  C   -1.30435458352293      1.10372108298755     -0.59503163577704
  N   -1.68396166438590      2.05317083288308     -1.17151230695263
