15
Coordinates from ORCA-job run
  C   0.60274966614983     -0.27146030757219      0.34661926852585
  C   -0.92404819060128     -0.16624051055373      0.20576194165816
  Br  1.08812529934043     -1.76819674514049      1.46529965010555
  H   -1.35075248406057     -0.05851278621971      1.20404337893911
  N   1.21771634399786     -0.38865929672592     -0.91537152901552
  H   1.10019125657472      0.46648442236831     -1.45046922118981
  H   2.20580976252661     -0.58947662320723     -0.83230726933302
  N   1.07281136228455      0.98947110035970      1.14030477376914
  O   2.10061225394810      1.52478563981762      0.74489583172498
  O   0.38315770883254      1.33672915667066      2.09008084316069
  N   -1.43077942051406     -1.36742405568655     -0.41361556687005
  H   -1.03327652741273     -1.47686664532269     -1.33839457590097
  H   -2.43984352640909     -1.33476231964811     -0.47926007738944
  C   -1.19520547368427      1.07788280718625     -0.55242392066058
  N   -1.39626803097264      2.02724616367407     -1.21616352752408
