15
Coordinates from ORCA-job run
  C   0.61562849816972     -0.09678105410230      0.34020594631277
  C   -0.89242241637984     -0.11482920801179      0.04538532893588
  Br  0.95815439116781     -1.69938001376611      1.55810385916737
  H   -1.42694908023325     -0.16118835049713      0.99879964587587
  N   1.35449482823055     -0.05001712582827     -0.81750592347464
  H   2.35504088657939     -0.04108489627537     -0.68197264140749
  H   1.02509653108539     -0.72983506350481     -1.49146461694865
  N   0.99103640271966      1.07311864704339      1.23366377846320
  O   2.15907243470086      1.43329017659252      1.18872474997434
  O   0.10204199761197      1.53899912869799      1.93635646598141
  N   -1.14601953009834     -1.23608869580334     -0.85867560572359
  H   -2.01827059102625     -1.09504595837284     -1.35281496106076
  H   -1.21859489131334     -2.08927191248654     -0.31683890320551
  C   -1.25963648772892      1.13844405044187     -0.62436522130020
  N   -1.59867297348542      2.12767027587273     -1.15760190158999
