15
Coordinates from ORCA-job run
  C   0.63579571002651     -0.14609289568252      0.48679225500093
  C   -0.79039147085935     -0.44473403141511     -0.01598288476167
  Br  0.71866910393849     -0.67510577515359      2.38252411110395
  H   -0.96706722470083     -1.48431757795209      0.27871362671662
  N   1.59442152608961     -0.74219352798611     -0.32919368930752
  H   1.21127554862194     -1.35123532378620     -1.03635964674114
  H   2.43228432525792     -1.06057408162041      0.12874704529222
  N   0.91626681633712      1.37609495424667      0.46375363730100
  O   0.19532579770502      2.03337235850494     -0.28420781491621
  O   1.89022765640256      1.78050364568518      1.07461930857657
  N   -0.84905441494429     -0.39480706882512     -1.46523334874548
  H   -1.71335620755762     -0.81197423751512     -1.78798945873864
  H   -0.81464202675433      0.56875398570428     -1.77517663665850
  C   -1.79601278942410      0.37189554202516      0.68768115556227
  N   -2.66474235013863      0.98041403377005      1.19231234031560
