15
Coordinates from ORCA-job run
  C   0.54340207010868     -0.02777595730251      0.26696807611986
  C   -0.80416283584880     -0.09727674617702     -0.50903836156211
  Br  0.15039023545187     -0.01131177746022      2.23455358991412
  H   -0.52964856429171      0.12338038085633     -1.54679506877469
  N   1.44148379758830     -1.00786065269737     -0.15731302407745
  H   2.35673160041363     -0.89041574503225      0.25998015893795
  H   1.09247841089289     -1.94697694730466     -0.01312376200912
  N   1.23775116148018      1.31011971508937      0.01411126761507
  O   0.59122430672877      2.19411728314383     -0.53821102906911
  O   2.40244731278184      1.38695520458817      0.37783741852659
  N   -1.89179342449504      0.76470168987802     -0.13369888261330
  H   -1.61360726278960      1.73017026279225     -0.24104511286557
  H   -2.17440703631458      0.59809533982593      0.82329766290893
  C   -1.24416457824909     -1.49795312209039     -0.45382008506408
  N   -1.55812519345734     -2.62696892810948     -0.38270284798709
