15
Coordinates from ORCA-job run
  C   0.57792426274125     -0.23037992274189      0.23615241604047
  C   -0.97082298911461     -0.20461949470994      0.16287019400150
  Br  1.17299405137016     -1.88950170054871      1.04392099568649
  H   -1.35315208338610     -0.28368899718205      1.18217764235733
  N   1.14976328207049     -0.08965916892611     -1.04028612062465
  H   2.15621330471834     -0.19270955844773     -1.01646211975750
  H   0.92082421434601      0.81719772444131     -1.43613913836226
  N   1.01505153904258      0.88112642381845      1.23933326101052
  O   0.37928508107344      0.96255461993580      2.28247176590769
  O   1.95444885520350      1.58685685735701      0.89352904514322
  N   -1.56007126563883     -1.23275845187210     -0.65917191049559
  H   -1.04636099558555     -1.30895098948878     -1.52981295108278
  H   -1.51495717112144     -2.12240304985463     -0.17939684106163
  C   -1.33340225123992      1.12242598018116     -0.36287784927085
  N   -1.54773783447933      2.18450972803820     -0.81630838949198
