15
Coordinates from ORCA-job run
  C   0.62459704366529     -0.11252424416642      0.20956200651293
  C   -0.79100788197199      0.11062854745560     -0.34209560409840
  Br  0.47674148268663     -0.59966925502154      2.13504308386468
  H   -0.64257583534503      0.57339646364482     -1.32139731170443
  N   1.36515797548247     -1.01533842028403     -0.57023282820178
  H   2.31265606573035     -1.10760925283232     -0.22225973960271
  H   0.92543915606808     -1.92658060710669     -0.62190145837920
  N   1.41461376743292      1.19927837163668      0.14485626538851
  O   0.94246521080933      2.11099535375297     -0.51989672289899
  O   2.50646220899914      1.18624761490906      0.69720632328460
  N   -1.55065959592088      1.01584195962284      0.48798942042368
  H   -2.01355055284810      0.52701458029477      1.24266332818752
  H   -2.23910146529435      1.50764465947980     -0.06509558472092
  C   -1.41207343739086     -1.20984454664206     -0.55515028515573
  N   -1.91816414210301     -2.26048122474348     -0.70029089289977
