15
Coordinates from ORCA-job run
  C   0.62379725646852     -0.20135980504045      0.38562971652837
  C   -0.67787515705503      0.08131825089609     -0.39615493739237
  Br  0.19793465850261     -0.84923787931580      2.15022645452365
  H   -0.34356789377754      0.46608037797144     -1.36577521431311
  N   1.55708856769654     -1.08865033410349     -0.22469749673155
  H   1.74612659970158     -0.80239365642919     -1.17865967240506
  H   1.23185693475511     -2.04601810221156     -0.19396284801384
  N   1.32727264518995      1.16427423028682      0.46060629472901
  O   1.65373486510887      1.57721648484517     -0.64987374401068
  O   1.51405399025020      1.71406273573443      1.52886191012099
  N   -1.44777786630003      1.11908340837433      0.24901552659360
  H   -1.91955549561734      0.76473801188827      1.07195614766232
  H   -2.13763745761996      1.50111149467271     -0.38461000518551
  C   -1.37283537308764     -1.19722408203646     -0.63420459874815
  N   -1.95361627421583     -2.20200113553232     -0.81935753335767
