15
Coordinates from ORCA-job run
  C   0.58576962160894     -0.22778169046491      0.35696623098758
  C   -0.72572436378113     -0.03373263314072     -0.41978610881602
  Br  0.24229989884828     -0.77205001319658      2.17264689877373
  H   -0.42180082125883      0.25080017221183     -1.43365136765967
  N   1.40636869947339     -1.18253090807092     -0.28280144089854
  H   2.21999466894573     -1.42233629675640      0.26967861313712
  H   1.68895113784998     -0.84542859859030     -1.19664793917927
  N   1.22894764654865      1.19812499745952      0.35887249774072
  O   1.56204912240910      1.54958260649228     -0.77105386130766
  O   1.36521702781862      1.83170874631798      1.38876062892601
  N   -1.47487970844306      1.07094167578435      0.13871077711669
  H   -2.18487269166461      1.38105441288890     -0.51183169634717
  H   -1.92815511434748      0.79619155081268      1.00206202675099
  C   -1.44887131728211     -1.31418924000340     -0.50138828876227
  N   -2.11329380672549     -2.28035478174431     -0.57153697046224
