15
Coordinates from ORCA-job run
  C   0.60467689541992     -0.22199626888762      0.38716588467726
  C   -0.88050163849342     -0.31857382952291      0.00593955699632
  Br  0.84603109969771     -0.75839081151853      2.28271716225331
  H   -1.10540937449327     -1.39848490888017      0.01806079952705
  N   1.36360546850644     -0.96864244858001     -0.53456658978684
  H   2.32970391121841     -0.66410083534602     -0.54120263953598
  H   1.30598050168010     -1.95896154732534     -0.33430755025673
  N   1.05657182833067      1.23714637377015      0.31814541864742
  O   2.14272575738342      1.45230315790830     -0.20701909367244
  O   0.30984218345597      2.05957250320550      0.81903129838439
  N   -1.00716531918398      0.31375944434231     -1.29675758625001
  H   -0.54605302987391     -0.25779001460062     -1.99268037965804
  H   -1.97958981321542      0.44328030140008     -1.54385046711461
  C   -1.80235430928363      0.30400540436838      0.95880611893740
  N   -2.63806416114901      0.73787347966650      1.65951806685152
