15
Coordinates from ORCA-job run
  C   0.62214286154830     -0.29313284940136      0.47649627384256
  C   -0.83979522006325     -0.42422012377168      0.02212120886532
  Br  0.80001305043558     -0.70658095708474      2.36264373798346
  H   -1.03118669864632     -1.50024020487926      0.08154751862557
  N   1.42609477788431     -1.14731645827607     -0.29464688525199
  H   1.22644691873642     -0.97831754764566     -1.27585751092509
  H   2.40881910805153     -1.01286302120188     -0.09285931853857
  N   1.06537813353545      1.19383145196362      0.35025307820662
  O   0.18873849642357      2.05047347880913      0.28657095837768
  O   2.27279361038627      1.38676284331462      0.30930620098587
  N   -0.91218292637121     -0.02374324174664     -1.37694512929702
  H   -1.06637374187493      0.97552168151961     -1.44204222460498
  H   -1.67794548084994     -0.49765274514728     -1.83848598663604
  C   -1.81203549322370      0.24154974956378      0.90203781079091
  N   -2.67190739597207      0.73492794398383      1.53186026757563
