15
Coordinates from ORCA-job run
  C   0.52752883329644     -0.19501872823603      0.29407032901952
  C   -0.86321294337977      0.02703640501711     -0.36270932994722
  Br  0.39186229302864     -0.14502079250650      2.22962796863175
  H   -0.65973569175003      0.16220800114825     -1.43368631477811
  N   1.09666207667748     -1.41350216654508     -0.10841587695602
  H   2.03104995789986     -1.53844072059580      0.26012857806289
  H   1.08992384254961     -1.52256625799657     -1.11640001843251
  N   1.46309482635640      1.00414608833495     -0.06919104389192
  O   2.64785883518621      0.84158029895809      0.18765554679890
  O   0.97230875847046      1.98900950981409     -0.61563951445745
  N   -1.67530378280446      1.13694673217206      0.06706881862331
  H   -1.92067153978165      1.04564312657558      1.04441755886722
  H   -1.18036435582400      2.00473701525930     -0.08240363858914
  C   -1.63303500100812     -1.21521449039757     -0.20713950236269
  N   -2.28796610891708     -2.18154402100187     -0.08638356058854
