15
Coordinates from ORCA-job run
  C   0.56635702107553     -0.14313654723401      0.41085918334687
  C   -0.74850368429329     -0.04870663950664     -0.42654189330064
  Br  0.14479158861087     -0.25359415406119      2.28659543245891
  H   -0.40985674983609      0.01360945144480     -1.46819603236660
  N   1.46851779826019     -1.19119113961684      0.06795750473801
  H   1.64731462316733     -1.19443098250539     -0.92985788529657
  H   1.11281357708727     -2.08939394261384      0.36893997568953
  N   1.29605742000519      1.17068782296770      0.09654382782588
  O   1.38210774395441      2.05579370412024      0.93169568584189
  O   1.69908937338358      1.21870947256542     -1.06451916606649
  N   -1.62365520779109      1.06708988777856     -0.17761956040730
  H   -1.20961927104235      1.93626528504326     -0.48792201282906
  H   -1.86418749802482      1.13618880840367      0.80328484645819
  C   -1.46105817763781     -1.32260504209170     -0.27086764280391
  N   -2.00016855691893     -2.35728598469404     -0.13935226328870
