15
Coordinates from ORCA-job run
  C   0.59692447337206     -0.08363139806421      0.24059237010758
  C   -0.94279326118486     -0.24477142488092      0.21661804666654
  Br  1.32682595882597     -1.71364212728521      1.18611665864883
  H   -1.26772202793466     -0.44239118834680      1.23959538204390
  N   1.13443083681183      0.15789429792039     -1.01738976140512
  H   2.10115513339454      0.45469507359479     -0.97402075027999
  H   1.01857819849168     -0.62661852263127     -1.64296269862183
  N   0.99760622857023      1.06266363918413      1.16329876938065
  O   0.25190857351879      1.28600911305325      2.10766937623906
  O   2.04463892126840      1.64019107770579      0.90104126184574
  N   -1.43736253142779     -1.29349174386031     -0.64499798282646
  H   -1.26770804090032     -1.09915522620858     -1.62266756495063
  H   -1.05960209128472     -2.19467950831327     -0.38409297295516
  C   -1.52004528408293      1.03818071025246     -0.20753612888882
  N   -1.97683508743823      2.05974722787976     -0.56126400500430
