15
Coordinates from ORCA-job run
  C   0.56099262825544      0.07796443678125      0.35637398715829
  C   -0.69659395965420     -0.17007164373617     -0.48899935674840
  Br  -0.00143531430428      0.84344945782376      2.10688350268535
  H   -0.32325084294845     -0.38136067252987     -1.49457831043164
  N   1.37620762843386     -1.06154866117769      0.44776755318634
  H   2.22504997951203     -0.86400230937012      0.96533950308315
  H   0.89104312455692     -1.84653935704942      0.86571074595755
  N   1.43885626192366      1.13339300886362     -0.32595262862374
  O   1.17360691497249      1.42661520165625     -1.48333659016633
  O   2.39669535846605      1.52517321852070      0.32685186626644
  N   -1.54041124558861      1.00075524939575     -0.54546773190364
  H   -2.06686861242952      1.01418129499775     -1.40825148337962
  H   -2.17966277349057      1.03539286534527      0.23754350257482
  C   -1.35558897676154     -1.38931683277094      0.01390527044899
  N   -1.89864017094328     -2.34608525675013      0.42721016989243
