15

C	0.0	0.0	0.0
C	-0.382866	-0.073928	-1.485982
F	1.350195	0.0	0.0
H	0.322722	-0.78057	-1.93613
C	-0.599595	1.136648	0.687603
N	-0.618704	2.198738	1.219782
N	-0.370681	-1.276519	0.723216
O	-0.384655	-1.235402	1.952876
O	-0.394517	-2.302631	0.040511
N	-0.123306	1.251452	-2.049014
H	-0.235394	1.185056	-3.054681
H	-0.85511	1.873391	-1.713452
C	-1.769141	-0.547063	-1.701851
N	-2.551094	-0.988635	-2.487851
H	-2.150395	0.0	0.0
