15

C	0.0	0.0	0.0
C	-0.357635	0.059553	-1.516064
F	1.349545	0.0	0.0
H	-1.434409	0.306226	-1.537255
C	-0.726208	0.975286	0.840213
N	-0.787058	1.827538	1.642752
N	-0.281302	-1.409462	0.598968
O	-1.072739	-1.53196	1.516739
O	0.461718	-2.305745	0.157039
N	-0.104062	-1.130857	-2.287396
H	-0.818644	-1.803044	-2.078046
H	0.768151	-1.53377	-1.96734
C	0.439511	1.169953	-2.053274
N	1.067757	2.07089	-2.441796
H	-2.436586	0.0	0.0
