15

C	0.0	0.0	0.0
C	-0.227617	0.009298	-1.543522
F	1.350706	0.0	0.0
H	-1.29432	0.082535	-1.717307
C	-0.401595	1.171794	0.748436
N	-0.702961	2.119044	1.395734
N	-0.165667	-1.508543	0.786055
O	-1.265072	-1.973469	0.981315
O	0.899048	-2.031965	1.093429
N	0.265915	-1.25144	-2.085689
H	-0.123599	-1.410001	-3.005529
H	1.275178	-1.236526	-2.158306
C	0.457526	1.188095	-2.133004
N	1.002214	2.115799	-2.612226
H	-1.893127	0.0	0.0
