15

C	0.0	0.0	0.0
C	-0.210159	0.029265	-1.565605
F	1.359471	0.0	0.0
H	0.166251	1.018185	-1.855825
C	-0.453034	1.212615	0.683817
N	-0.575666	2.288646	1.152657
N	-0.670745	-1.162919	0.59431
O	-0.705101	-2.194888	-0.14733
O	-0.650295	-1.219879	1.850181
N	-1.549415	-0.116527	-2.102895
H	-1.465274	-0.172923	-3.116185
H	-1.897187	-1.010235	-1.768078
C	0.723726	-0.952787	-2.167242
N	1.403687	-1.673229	-2.800056
H	-1.947973	0.0	0.0
