15

C	0.0	0.0	0.0
C	-0.555764	-0.23443	-1.39112
F	1.358813	0.0	0.0
H	-1.654954	-0.244003	-1.294889
H	-0.221312	-1.203055	-1.764094
C	-0.49992	1.253936	0.658228
H	-0.057601	1.344884	1.648969
H	-0.196632	2.103635	0.04303
H	-1.588819	1.214615	0.726125
N	-0.339863	-1.228267	0.858268
O	-0.380806	-1.06219	2.071934
O	-0.421677	-2.312483	0.285289
C	-0.116696	0.817394	-2.300275
N	0.254154	1.652004	-3.037551
Cl	-3.685792	0.0	0.0
