15

C	0.0	0.0	0.0
C	-0.55623	-0.191132	-1.398209
F	1.358743	0.0	0.0
H	-1.65505	-0.203504	-1.302209
H	-0.221313	-1.147863	-1.800798
C	-0.503244	1.23066	0.697378
H	-0.046758	1.30302	1.682779
H	-0.219614	2.099423	0.099788
H	-1.590514	1.176531	0.77888
N	-0.341767	-1.254693	0.820571
O	-0.395924	-1.121139	2.038568
O	-0.418857	-2.319775	0.215147
C	-0.119151	0.889193	-2.273418
N	0.240141	1.751842	-2.984297
Cl	-3.678627	0.0	0.0
