15

C	0.0	0.0	0.0
C	-0.556853	-0.212082	-1.393256
F	1.358462	0.0	0.0
H	-0.480633	0.737359	-1.930725
H	-1.627598	-0.439078	-1.286853
C	-0.53199	1.238931	0.657514
H	-0.151698	1.299934	1.676039
H	-0.191408	2.106809	0.087422
H	-1.624425	1.191825	0.654258
N	-0.331944	-1.222703	0.871227
O	-0.751503	-2.23366	0.318582
O	-0.070167	-1.109819	2.065465
C	0.155655	-1.231669	-2.156197
N	0.744798	-2.007947	-2.811157
Cl	-3.704805	0.0	0.0
