15

C	0.0	0.0	0.0
C	-0.249701	-0.13501	-1.510369
F	1.374433	0.0	0.0
H	0.212657	0.76858	-1.925737
H	0.384391	-0.969712	-1.814713
C	-0.477612	1.226736	0.709435
H	0.035235	1.295652	1.668702
H	-1.558463	1.169947	0.840585
H	-0.223205	2.093535	0.095911
N	-0.388607	-1.26817	0.73722
O	-0.478818	-2.296898	0.076808
O	-0.472626	-1.186463	1.957224
C	-1.518613	-0.327672	-2.218305
N	-2.200957	-0.607481	-3.13371
Cl	-3.407349	0.0	0.0
