13

C	0.0	0.0	0.0
C	-0.282253	0.114983	-1.526543
Br	1.93923	0.0	0.0
H	0.504596	0.753261	-1.926859
H	-0.109543	-0.888138	-1.925914
N	-0.379972	1.258553	0.767742
O	-0.482252	1.147785	1.978833
O	-0.419917	2.286679	0.10848
C	-0.456265	-1.204007	0.670737
N	-0.538865	-2.259623	1.185705
C	-1.509844	0.649023	-2.117736
N	-2.160808	1.133829	-2.973208
Cl	-2.941601	0.0	0.0
