13

C	0.0	0.0	0.0
C	-0.238961	0.165165	-1.525798
Br	1.939373	0.0	0.0
H	0.270814	1.093099	-1.792352
H	0.334893	-0.643204	-1.986239
N	-0.399039	1.21931	0.819567
O	-0.503847	1.046157	2.023512
O	-0.446375	2.281875	0.219253
C	-0.46104	-1.23397	0.607841
N	-0.565282	-2.308253	1.07937
C	-1.533375	0.183507	-2.212369
N	-2.221981	0.235628	-3.16846
Cl	-2.944447	0.0	0.0
