13

C	0.0	0.0	0.0
C	-0.254339	0.127685	-1.525456
Br	1.939392	0.0	0.0
H	0.372701	0.958536	-1.851499
H	0.18279	-0.779287	-1.95442
N	-0.400696	1.238984	0.78657
O	-0.455662	2.279	0.147952
O	-0.499309	1.103927	1.995385
C	-0.44398	-1.222263	0.64836
N	-0.539413	-2.27815	1.1599
C	-1.548518	0.330045	-2.183818
N	-2.20645	0.530498	-3.142213
Cl	-2.949153	0.0	0.0
