13

C	0.0	0.0	0.0
C	-0.535218	-0.376009	-1.375732
Br	1.923165	0.0	0.0
H	-1.637998	-0.327726	-1.272794
H	-0.197455	0.368561	-2.097942
N	-0.415386	1.442255	0.340355
O	-0.527751	2.204431	-0.606786
O	-0.504753	1.714639	1.525816
C	-0.431803	-0.897683	1.063684
N	-0.648252	-1.683028	1.911186
C	-0.10255	-1.705193	-1.777045
N	0.237531	-2.770523	-2.136144
Cl	-3.348721	0.0	0.0
