15

C	-0.555325	-0.048869	-1.4313
C	0.0	0.0	0.0
Br	0.105675	1.649103	-2.314328
H	1.091086	0.0	0.0
C	-0.001083	-1.117153	-2.262089
N	0.317535	-1.942709	-3.035583
N	-1.969292	-0.154393	-1.405768
H	-2.381889	0.627953	-0.909917
H	-2.355934	-0.210022	-2.339781
N	-0.420314	-1.256303	0.727284
O	-0.96371	-1.138587	1.8215
O	-0.143947	-2.308829	0.166195
C	-0.530907	1.158367	0.704312
N	-0.983131	2.104716	1.234651
Br	3.281887	0.0	0.0
