15

C	-0.555097	-0.069373	-1.430547
C	0.0	0.0	0.0
Br	0.112356	1.613117	-2.337016
H	1.09105	0.0	0.0
C	-0.004785	-1.152297	-2.245301
N	0.307255	-1.989939	-3.008129
N	-1.969675	-0.170564	-1.403412
H	-2.379157	0.620473	-0.918752
H	-2.356474	-0.237369	-2.336915
N	-0.417454	-1.24495	0.748139
O	-0.15735	-2.306052	0.197463
O	-0.939599	-1.11014	1.850532
C	-0.531432	1.167368	0.688481
N	-0.986729	2.119781	1.205156
Br	3.282371	0.0	0.0
