15

C	-0.301602	-0.025398	-1.529215
C	0.0	0.0	0.0
Br	-2.201893	-0.516715	-1.803197
H	1.095375	0.0	0.0
C	-0.155312	1.341389	-2.038274
N	-0.04003	2.438048	-2.442949
N	0.529313	-0.899658	-2.305551
H	0.445112	-1.832024	-1.912904
H	1.497565	-0.605725	-2.14334
N	-0.418067	-1.270381	0.674237
O	-0.991734	-1.188923	1.756658
O	-0.121776	-2.317525	0.104554
C	-0.570353	1.140989	0.687848
N	-1.007353	2.08636	1.233096
Br	3.27566	0.0	0.0
