15

C	-0.327	-0.095651	-1.50492
C	0.0	0.0	0.0
Br	-2.249458	-0.620224	-1.757568
H	1.094241	0.0	0.0
C	-0.251153	1.24862	-2.098497
N	-0.154871	2.279812	-2.657873
N	0.520034	-1.052386	-2.119941
H	0.568727	-0.909076	-3.120242
H	1.454061	-1.02083	-1.703485
N	-0.430691	-1.244018	0.725626
O	-1.323364	-1.139001	1.564136
O	0.158168	-2.272508	0.418573
C	-0.566826	1.175504	0.630985
N	-0.989861	2.14631	1.14009
Br	3.299482	0.0	0.0
