15

C	-0.327681	0.045252	-1.506589
C	0.0	0.0	0.0
Br	-0.008749	-1.831724	-2.250844
H	1.09251	0.0	0.0
C	-1.725951	0.322699	-1.832298
N	-2.830169	0.582805	-2.141224
N	0.522217	1.027028	-2.043253
H	0.418617	1.133458	-3.042967
H	1.498813	0.866348	-1.776157
N	-0.577994	-1.199219	0.678636
O	-1.80039	-1.318938	0.599892
O	0.191793	-1.952624	1.258245
C	-0.514776	1.192846	0.65741
N	-0.926474	2.148692	1.202537
Br	3.351021	0.0	0.0
