15

C	-0.5487	-0.068062	-1.434363
C	0.0	0.0	0.0
Br	0.113778	1.608878	-2.346107
H	1.0912	0.0	0.0
C	0.004871	-1.156561	-2.239996
N	0.312132	-2.005858	-2.992245
N	-1.96418	-0.17574	-1.409456
H	-2.348676	-0.228432	-2.344963
H	-2.37554	0.607922	-0.913803
N	-0.436507	-1.248031	0.729928
O	-0.066328	-2.30298	0.233386
O	-1.105784	-1.123233	1.750992
C	-0.533539	1.167817	0.685398
N	-0.995297	2.120943	1.194599
Br	3.282755	0.0	0.0
