15

C	-0.292973	-0.038377	-1.529606
C	0.0	0.0	0.0
Br	-2.196562	-0.514236	-1.816774
H	1.095425	0.0	0.0
C	-0.132556	1.322784	-2.049541
N	-0.001367	2.413782	-2.468181
N	0.53705	-0.925065	-2.29368
H	0.452854	-1.851833	-1.889638
H	1.506275	-0.630651	-2.135146
N	-0.419866	-1.262414	0.687932
O	-0.107989	-2.316195	0.140837
O	-1.012219	-1.168227	1.757797
C	-0.572427	1.149274	0.672183
N	-1.02417	2.107011	1.182331
Br	3.28021	0.0	0.0
