12

C	-0.29478	-0.0558	-1.490361
C	0.0	0.0	0.0
F	-1.651899	-0.295512	-1.722429
H	1.092894	0.0	0.0
H	-0.05654	0.906806	-1.950969
H	-0.33527	-0.929678	0.471881
N	0.472415	-1.07754	-2.155107
H	0.29521	-1.953704	-1.671017
H	1.452534	-0.858044	-1.952471
C	-0.579047	1.143474	0.679561
N	-1.039611	2.078522	1.222491
H	2.817792	0.0	0.0
