12

C	-0.504009	-0.028949	-1.437722
C	0.0	0.0	0.0
F	-0.23976	1.237626	-1.96607
H	1.09166	0.0	0.0
H	0.103268	-0.722461	-2.0266
H	-0.342467	0.926984	0.470764
N	-1.900406	-0.316531	-1.591104
H	-2.370623	-0.39033	-0.701469
H	-2.056829	-1.160163	-2.117551
C	-0.49428	-1.141444	0.752824
N	-0.916244	-2.072567	1.333461
H	2.826502	0.0	0.0
