12

C	-0.46572	-0.082067	-1.44697
C	0.0	0.0	0.0
F	-0.26178	1.172328	-2.019984
H	1.091691	0.0	0.0
H	0.199556	-0.754357	-2.002046
H	-0.36402	0.935597	0.432326
N	-1.862433	-0.398229	-1.583329
H	-2.158682	-1.041119	-0.862716
H	-2.049574	-0.812283	-2.486778
C	-0.485442	-1.125146	0.779813
N	-0.904165	-2.044162	1.382122
H	2.821712	0.0	0.0
