12

C	-0.502417	-0.052715	-1.426949
C	0.0	0.0	0.0
F	-0.198752	1.168992	-2.053236
H	1.091884	0.0	0.0
H	0.060371	-0.810903	-1.97835
H	-0.308249	-0.921588	0.503903
N	-1.90131	-0.326618	-1.519128
H	-2.191901	-0.270742	-2.489323
H	-2.407852	0.381417	-0.996843
C	-0.56726	1.135298	0.709614
N	-1.054519	2.05159	1.261787
H	2.832927	0.0	0.0
