12

C	-0.5066	-8.7e-05	-1.43599
C	0.0	0.0	0.0
F	-0.237653	1.27086	-1.95205
H	1.091602	0.0	0.0
H	0.089554	-0.694395	-2.035027
H	-0.343059	0.915924	0.490823
N	-1.909711	-0.270829	-1.585197
H	-2.362521	-0.379513	-0.690233
H	-2.072205	-1.097521	-2.136565
C	-0.491705	-1.155522	0.730925
N	-0.916128	-2.098186	1.289027
H	2.815798	0.0	0.0
