12

C	-0.522325	0.020751	-1.430549
C	0.0	0.0	0.0
F	-0.209816	1.246845	-1.988943
H	1.092678	0.0	0.0
H	0.005173	-0.749888	-2.001529
H	-0.296946	-0.949731	0.462137
N	-1.947875	-0.161275	-1.613632
H	-2.433275	0.461691	-0.975092
H	-2.189386	-1.110838	-1.35707
C	-0.571275	1.088239	0.776151
N	-1.076279	1.961526	1.379502
H	2.828605	0.0	0.0
