15

C	-0.530962	-5.7e-05	-1.431469
C	0.0	0.0	0.0
F	0.242575	-0.913658	-2.166226
H	1.098685	0.0	0.0
N	-1.904177	-0.372798	-1.465035
H	-1.960791	-1.229255	-0.919531
H	-2.187549	-0.558233	-2.420542
C	-0.355145	1.305873	-2.101143
N	-0.246753	2.323187	-2.675504
N	-0.375765	-1.288533	0.619841
H	0.50365	-1.713807	0.893281
H	-0.925286	-1.142373	1.456055
C	-0.525951	1.132046	0.740588
N	-0.926322	2.029653	1.387316
F	2.528841	0.0	0.0
