15

C	-0.127615	0.1354	-1.523811
C	0.0	0.0	0.0
F	-1.387404	0.601331	-1.910837
H	1.094545	0.0	0.0
N	0.876259	1.027427	-2.052592
H	0.626429	1.961443	-1.738
H	1.742479	0.770069	-1.543571
C	0.032377	-1.200765	-2.146478
N	0.137841	-2.230508	-2.698578
N	-0.558244	-1.214712	0.557095
H	0.031103	-1.522944	1.32005
H	-1.498853	-1.073293	0.902845
C	-0.465511	1.234424	0.6276
N	-0.862801	2.200197	1.169821
F	2.600763	0.0	0.0
