15

C	-0.427911	-0.064723	-1.457051
C	0.0	0.0	0.0
F	-1.804375	-0.500104	-1.516887
H	1.094513	0.0	0.0
N	-0.261459	1.151412	-2.146521
H	-0.658694	1.103056	-3.075143
H	-0.662446	1.920577	-1.624176
C	0.302891	-1.142911	-2.156472
N	0.80527	-2.015746	-2.758453
N	-0.352896	-1.197314	0.751431
H	-1.151745	-1.671715	0.352069
H	0.458884	-1.802232	0.733153
C	-0.567475	1.19547	0.607688
N	-1.002808	2.197125	1.045926
F	2.513918	0.0	0.0
