14

C	-0.559259	-0.009711	-1.425629
C	0.0	0.0	0.0
Cl	0.113954	1.323654	-2.346313
H	1.093621	0.0	0.0
H	-0.333088	-0.916415	0.496901
N	-0.131753	-1.354314	-2.044478
O	-0.642449	-2.321756	-1.482267
O	0.612412	-1.386737	-3.006264
N	-1.992567	0.001819	-1.56752
H	-2.340752	0.906808	-1.274507
H	-2.379646	-0.713344	-0.961713
C	-0.537451	1.147729	0.715279
N	-1.027957	2.067337	1.256317
Br	3.452254	0.0	0.0
