14

C	-0.301608	-0.08863	-1.485643
C	0.0	0.0	0.0
Cl	-2.044992	-0.35266	-1.85604
H	1.095967	0.0	0.0
H	-0.382219	0.924686	0.427523
N	-0.056994	1.339756	-2.103257
O	0.388909	1.355275	-3.244684
O	-0.364751	2.319413	-1.437381
N	0.483238	-1.071979	-2.08562
H	1.446193	-1.003345	-1.749436
H	0.448488	-1.013216	-3.094642
C	-0.503195	-1.158628	0.719097
N	-0.90201	-2.081442	1.324984
Br	3.422632	0.0	0.0
