12
Coordinates from ORCA-job run
  C   -0.38311439323454      0.10994234262649      0.54756905133870
  C   0.88557635634588     -0.68705404435229      0.25761826590521
  Cl  -1.09466197839230     -0.44673225664026      2.06981787895741
  H   1.59266902709589     -0.51402663835313      1.07331138578066
  H   0.63239764169844     -1.74837609923077      0.23065789852035
  C   -0.13710470726051      1.54330181766848      0.59848728442684
  N   0.12611580457670      2.68729552451039      0.66129575646484
  N   -1.43025585275680     -0.16842011973998     -0.55427312630848
  O   -1.38962826483245     -1.28234310933650     -1.05411561600149
  O   -2.22717867482979      0.72841572716767     -0.78199261010418
  C   1.47725788135397     -0.28013582161503     -1.01391749401098
  N   1.94792716023551      0.05813267729492     -2.03445867496888
