12
Coordinates from ORCA-job run
  C   -0.32792842733976      0.13568215077197      0.53137705477508
  C   1.06761399571269      0.09583644109923     -0.10466796808259
  Cl  -0.44771107650642     -0.96130445733914      1.89067856836921
  H   1.80287242358349      0.37888606582506      0.65265108652777
  H   1.09919799127208      0.82759642537142     -0.91605400287482
  C   -0.66207029964395      1.49549758917032      0.93556172412504
  N   -0.89008948883264      2.59808914272579      1.27324961092991
  N   -1.33123374442876     -0.26581281948477     -0.59098032466308
  O   -1.94170900792880     -1.31130700304614     -0.48324349960451
  O   -1.35960047876420      0.53985326401310     -1.51124922019424
  C   1.37240947003043     -1.23355105707420     -0.62493411045204
  N   1.61824864284584     -2.29846574203264     -1.05238891885572
