12
Coordinates from ORCA-job run
  C   -0.40503763366656      0.10613572737851      0.53847525968858
  C   0.87781178782906     -0.68206910525641      0.28518802128088
  Cl  -1.16849698574972     -0.47165768825436      2.02702327387521
  H   0.63087364354614     -1.74439705355163      0.24778036299571
  H   1.56046300470491     -0.50727638897034      1.12075673412278
  C   -0.16614513192518      1.53980050059990      0.61653434995804
  N   0.09461555026682      2.68248479684837      0.70746906245340
  N   -1.40138791991408     -0.17014514161096     -0.60934800013316
  O   -2.11961434400045      0.75819666998327     -0.94622756163485
  O   -1.39878684215742     -1.31313664214708     -1.04015249655406
  C   1.50184236658740     -0.26806166938614     -0.96843176806598
  N   1.99486250447907      0.07112599436686     -1.97806723798653
