12
Coordinates from ORCA-job run
  C   -0.37063887462521     -0.03347455730850      0.57144513578649
  C   0.95144582114080     -0.63471628909674      0.10053503008185
  Cl  -0.96903719693318     -0.94342497702060      1.96666423297955
  H   0.79234618889673     -1.69117991770693     -0.12229573282263
  H   1.67759691513445     -0.55112833347100      0.91329986248715
  C   -0.24938850903678      1.37822593835374      0.90354712907584
  N   -0.08462511523535      2.50563364588745      1.19294589227444
  N   -1.42276502056939     -0.19264860847386     -0.54926242432416
  O   -2.23428407315388      0.71156759888311     -0.67191931437974
  O   -1.36061584014454     -1.23736208015728     -1.17906955901698
  C   1.44283402093127      0.06040880547785     -1.08584209819228
  N   1.82813168359510      0.62809877463276     -2.03804815394954
