12
Coordinates from ORCA-job run
  C   -0.28757927229586      0.13327649884642      0.55490176914833
  C   1.06563426373576     -0.01208090495872     -0.15344485632575
  Cl  -0.46614889784324     -1.03316296807995      1.84811171069098
  H   1.86007716504023      0.13977385763465      0.58142892535339
  H   1.14095083443776      0.76524618344706     -0.91809658913878
  C   -0.45098081966620      1.49127563248193      1.05877469151881
  N   -0.54145634034997      2.58643336454421      1.47606808463862
  N   -1.37769282731205     -0.08232237054706     -0.53655035935458
  O   -2.09320324685458     -1.06212970246579     -0.46348660984099
  O   -1.35926768087863      0.78238004456789     -1.40189555427034
  C   1.20049437970894     -1.32809867817485     -0.77014309619438
  N   1.30917244227784     -2.38159095729578     -1.27566811622531
