12
Coordinates from ORCA-job run
  C   -0.33264582608712      0.07077655138724      0.43911086878738
  C   0.67370733416713     -0.56057638327335     -0.53305056634668
  Cl  -0.21958672737782     -0.65293071747644      2.02882428823328
  H   0.47334685487471     -1.63532669274944     -0.58208997256763
  H   0.51806068732527     -0.12353922631407     -1.52310129847556
  C   -0.17822018041668      1.51705893957654      0.51823832873203
  N   -0.02486127441115      2.68071057102427      0.58436367764290
  N   -1.72886462084204     -0.20798076739057     -0.19387500355047
  O   -2.45615698591895     -1.02533149330891      0.33806818851556
  O   -1.92321467038086      0.41758303237984     -1.22708864874169
  C   2.04576209047090     -0.33221947413522     -0.09662545319687
  N   3.15267331859661     -0.14922433971989      0.24722559096775
