12
Coordinates from ORCA-job run
  C   -0.33429108941474      0.18336188310408      0.34390671831781
  C   0.71083388982005     -0.69882936495470     -0.33827422190758
  Cl  -0.24988486487052      0.01166257038588      2.10161139280496
  H   0.56287859884528     -1.72931947948391     -0.01145461823494
  H   0.55490062395648     -0.65806416459910     -1.42100415592333
  C   -0.20296934153745      1.58234287528963     -0.03752061613853
  N   -0.04446144756285      2.69842196722523     -0.37097568717946
  N   -1.73856931296425     -0.30159836565024     -0.08022431233039
  O   -2.62457482049422      0.53849754726704     -0.07985520518076
  O   -1.83848899361163     -1.49410228578439     -0.33123403903274
  C   2.05933634209966     -0.24638743739098     -0.01515381745346
  N   3.14729041573419      0.11201425459147      0.23917856225843
