12
Coordinates from ORCA-job run
  C   -0.31282441143642      0.07600935182467      0.41469288104715
  C   0.74265931505736     -0.57035670163863     -0.48694565598096
  Cl  -0.07722408003589     -0.39048999746646      2.09045290767112
  H   0.67352679351969     -1.65653734720089     -0.37889738831856
  H   0.52776232856897     -0.31289743107782     -1.52542364549537
  C   -0.32909482314536      1.52784057382306      0.28059936307488
  N   -0.34094083117207      2.69569125009468      0.14469744224465
  N   -1.71918907067429     -0.40551351832615     -0.06741960698073
  O   -2.59606744031925     -0.50371572768885      0.77028291418019
  O   -1.80996823293531     -0.58816701404315     -1.27360945654250
  C   2.08068882328446     -0.11731376352419     -0.12365935356944
  N   3.16067162928811      0.24645032522372      0.15622959866956
