12
Coordinates from ORCA-job run
  C   -0.32930368034568      0.15870339490980      0.36506696673000
  C   0.70840711582875     -0.66400470232957     -0.39832746444660
  Cl  -0.19778518774585     -0.12298877013147      2.10541241808644
  H   0.52294068594632     -0.55651511384655     -1.47191293131352
  H   0.58046426642279     -1.71480464751972     -0.13353243074792
  C   -0.22440989367708      1.58066195685948      0.07125480739856
  N   -0.08108190191142      2.71816624271362     -0.18897443424579
  N   -1.73576113490008     -0.32227349830953     -0.05738804565546
  O   -2.62478363356212      0.51446131742993     -0.04144749688169
  O   -1.83105978319447     -1.51049974059121     -0.32920784648434
  C   2.06010690102935     -0.21645833082736     -0.08294222256918
  N   3.15126624610950      0.13755189164257      0.16399868012952
