12
Coordinates from ORCA-job run
  C   -0.35905310680232      0.12772288814709      0.41148190196179
  C   0.70069169562731     -0.59962747516531     -0.42799215748001
  Cl  -0.30444006282917     -0.38772133604116      2.08598917907371
  H   0.52221284280894     -1.67569998452960     -0.34065447774688
  H   0.57907561604827     -0.30027450582719     -1.47378483071316
  C   -0.23252858159553      1.57493109132198      0.31587770009164
  N   -0.08243107291265      2.73881683932966      0.24662628363023
  N   -1.70986846589784     -0.28398376965438     -0.23590077591656
  O   -2.26465051063131     -1.27348916922939      0.20761071518585
  O   -2.03369796886046      0.39406372632602     -1.20102539712836
  C   2.04918079882921     -0.28137557877574      0.02579110314498
  N   3.13750881621557     -0.03236272590198      0.38698075589675
