12
Coordinates from ORCA-job run
  C   -0.37871344333127      0.11350563229365      0.55581459511818
  C   0.86038054622012     -0.72118150384634      0.24095712922323
  Cl  -1.10682402779133     -0.45622874244267      2.06477676971730
  H   0.56938043560673     -1.77218587444824      0.19882680954717
  H   1.58236215761816     -0.58684830821568      1.05067776820963
  C   -0.07989022794385      1.53517318186375      0.64405818777129
  N   0.22512817803466      2.66636693607683      0.74069412764829
  N   -1.42878384722054     -0.10555206405699     -0.55632591717136
  O   -2.11979749765412      0.85611945559974     -0.85459213719129
  O   -1.49114187389642     -1.24203892378494     -0.99968509777170
  C   1.45054792566172     -0.31254779542960     -1.03067706105787
  N   1.91635167469613      0.02541800639049     -2.05352517404288
