12
Coordinates from ORCA-job run
  C   -0.27854089289019      0.25230425691468      0.51556464538951
  C   1.05582476813783      0.03504732210486     -0.20917270910865
  Cl  -0.29959356060588     -0.53880900774155      2.07743203846686
  H   1.02904931202345      0.58225059774565     -1.15496977877264
  H   1.85791504196849      0.44355612435503      0.41060781191007
  C   -0.55298510038057      1.67687409732070      0.65589180501850
  N   -0.73489096747692      2.83175533181924      0.77814437354753
  N   -1.38223504286377     -0.33461441859585     -0.41453730752333
  O   -1.47872834684886      0.26870734851419     -1.47452139957974
  O   -1.99754730919880     -1.31561498005424     -0.04524717533727
  C   1.29510591529303     -1.38224735143356     -0.46319637029154
  N   1.48762618284219     -2.52020932094914     -0.67599593371930
