12
Coordinates from ORCA-job run
  C   -0.29512879466309      0.20230883837580      0.52944876675119
  C   1.06083967680814      0.06147688128795     -0.17454680848553
  Cl  -0.35051589562193     -0.72707853623578      2.01223476697178
  H   1.05483500358573      0.69420164176829     -1.06576938288491
  H   1.84188740278773      0.41589714743355      0.50262347146573
  C   -0.58596381742611      1.60663832359513      0.79006943802279
  N   -0.77912317774407      2.74519286794923      1.00928342979186
  N   -1.36676827112939     -0.30587312962926     -0.48004941243781
  O   -1.98331832620272     -1.31998057881444     -0.21770073688350
  O   -1.43841336833263      0.38865310878417     -1.48472034248753
  C   1.31815482816940     -1.32450182371120     -0.55285218796129
  N   1.52451473976891     -2.43593474080344     -0.86802100186277
