12
Coordinates from ORCA-job run
  C   -0.34191600854218      0.14234548030486      0.52051965380160
  C   1.07005396481275     -0.12011293396373     -0.01923035537284
  Cl  -0.80489354455464     -1.04678282380219      1.71924869784241
  H   1.32229518618350      0.67360718287443     -0.72699286054451
  H   1.77397451915077     -0.08263833540639      0.81585830808770
  C   -0.43183843339080      1.48955664701785      1.06963902827009
  N   -0.46737404388524      2.57095271947729      1.52894254922726
  N   -1.29649229081504      0.08619345632725     -0.70912028035433
  O   -2.10946963973890     -0.81477065193092     -0.77795558687142
  O   -1.07904397679778      0.97708717511303     -1.51893380140685
  C   1.14944575414717     -1.41850958087523     -0.68111301055648
  N   1.21525851343039     -2.45792833513625     -1.22186234212264
