12
Coordinates from ORCA-job run
  C   -0.38901938335688      0.11306225615558      0.54797951062636
  C   0.85544292666994     -0.72184507022727      0.25633991414738
  Cl  -1.14588022277669     -0.45792737569247      2.04255566711279
  H   0.56450587776594     -1.77251102828040      0.20724803580151
  H   1.56083383607988     -0.58911861251261      1.08071805804741
  C   -0.09220905950443      1.53465751249518      0.64337944308106
  N   0.21143098149531      2.66562786203120      0.74682912294108
  N   -1.41841371698741     -0.10466852194668     -0.58400748257370
  O   -2.10554402444993      0.85680106160588     -0.89160331344702
  O   -1.46999575720518     -1.23965944542433     -1.03262597696322
  C   1.47107863338754     -0.31208907551478     -1.00268211326325
  N   1.95776990888191      0.02767043731071     -2.01513086551040
