12
Coordinates from ORCA-job run
  C   -0.31954590661365      0.12859972033759      0.53861923412637
  C   1.07029110511333     -0.09025773018364     -0.07368655176433
  Cl  -0.68903550984182     -1.08178359052717      1.74824834898603
  H   1.81419848879286     -0.03824337251376      0.72508820602348
  H   1.26344215704029      0.71545246224899     -0.78647518633055
  C   -0.41733603345436      1.46876596001077      1.10348099922075
  N   -0.45593651079201      2.54551839905985      1.57338578086427
  N   -1.33277490255680      0.05550548158322     -0.64199342371001
  O   -2.12441119665300     -0.86619802203749     -0.67737686414894
  O   -1.18004380830027      0.95759231145437     -1.45422598864096
  C   1.15209579241840     -1.38082913906547     -0.75042041370815
  N   1.21905632484703     -2.41312248036725     -1.30464414091797
