12
Coordinates from ORCA-job run
  C   -0.30909198925497      0.21194599403834      0.47775345897989
  C   1.07757410516627     -0.19824890618733     -0.02137846309510
  Cl  -0.83634793491703     -0.80705083753237      1.80773705224769
  H   1.38160888019661      0.47336209644400     -0.82589945122647
  H   1.77963265565890     -0.09166622472741      0.80957947637898
  C   -0.31516941270110      1.61566521847558      0.87504507769445
  N   -0.28506916837695      2.75106978931669      1.17875158094512
  N   -1.32975019756486      0.10398878926684     -0.69903609779591
  O   -0.84763894592620      0.28475784356102     -1.80829766597863
  O   -2.49613958331088     -0.08287089961929     -0.40856122546604
  C   1.08389632861359     -1.57637467011626     -0.50178637461831
  N   1.09549526241663     -2.68557819291982     -0.88390736806569
