12
Coordinates from ORCA-job run
  C   -0.37229720243532     -0.04311513039474      0.56908900441656
  C   0.93437709913688     -0.66332246682179      0.08045785712285
  Cl  -1.00010777140311     -0.98437355858241      1.93015420755323
  H   1.66023646497622     -0.62585380061263      0.89688858024847
  H   0.74820339536684     -1.70717732089342     -0.17783179364733
  C   -0.21338434137385      1.35246162202211      0.95038947869001
  N   -0.01755468092576      2.46480226953134      1.27662719176717
  N   -1.42620772455055     -0.13304604774080     -0.55730357151247
  O   -2.22399609733234      0.78816817316953     -0.63493287398645
  O   -1.38168691914282     -1.14790701034618     -1.23571863843206
  C   1.44657796723854      0.05695979061803     -1.08191224931620
  N   1.84783981044527      0.64340348005098     -2.01590719290379
