12
Coordinates from ORCA-job run
  C   -0.36132398371964     -0.02391682429226      0.57786929610461
  C   0.95251908216067     -0.63422637501962      0.09582689494611
  Cl  -0.93877305706614     -0.90989393946058      1.99681860132728
  H   1.69156468874647     -0.53896582291758      0.89549931521568
  H   0.78857701155355     -1.69375196274244     -0.10796363068085
  C   -0.23328849511964      1.39307235588580      0.88400627380371
  N   -0.06134093740692      2.52521878291777      1.14998584192492
  N   -1.43198209619205     -0.19969546018304     -0.52300168733669
  O   -1.37682948901859     -1.25080498041509     -1.14276894856546
  O   -2.25035112036332      0.69912844613108     -0.63914921737780
  C   1.42554132234850      0.04105181764305     -1.10933330141497
  N   1.79568707407711      0.59278396245290     -2.07678943794653
