12
Coordinates from ORCA-job run
  C   -0.37963619882247      0.10443763674013      0.55735243582282
  C   0.84637385877940     -0.74308461964962      0.22596956648833
  Cl  -1.12799534330763     -0.49547115470970      2.04469659637283
  H   0.53659357979569     -1.78682607648094      0.15077875373973
  H   1.56471587475403     -0.64604528798501      1.04404359712155
  C   -0.05597061497331      1.51730479168157      0.68810801157666
  N   0.26949639046911      2.63986827078777      0.81453169897796
  N   -1.42616163076534     -0.06361195676177     -0.56723208557751
  O   -1.50634878927071     -1.18571788351491     -1.04300701167581
  O   -2.09680330008136      0.91901586639109     -0.84267202022839
  C   1.45128273999312     -0.30848716780940     -1.03000180736018
  N   1.92645343342949      0.04961758131079     -2.04156773525800
