11
Coordinates from ORCA-job run
  C   1.20910123064369     -0.18228242265832      0.23623300981545
  C   -0.10884320407023      0.17170558772382     -0.43141722772708
  F   1.04627558214888     -0.11561814101835      1.60089612535339
  H   -0.00302857215619      0.08183639196208     -1.51690249131149
  H   1.97853810076463      0.53098420640640     -0.06617144048336
  H   1.49321353735902     -1.19816162981788     -0.03851412081897
  C   -0.57453722873460      1.50582430975642     -0.07468067342789
  N   -0.89132331464693      2.60784771110009      0.17497296502759
  N   -1.14313507534415     -0.87541168937098     -0.04620227400657
  O   -0.83725440803089     -2.02348884476089     -0.34391062966183
  O   -2.16900664793323     -0.50423547932241      0.50469675724076
