11
Coordinates from ORCA-job run
  C   1.20520810695095     -0.21951850230184      0.24557596297827
  C   -0.13468417273110      0.17199533164648     -0.37782891399997
  F   2.10471486950500      0.77653019626906     -0.06928060758680
  H   -0.04016696517467      0.19248672390177     -1.46798800708653
  H   1.11639601442680     -0.29175747008078      1.33072492910340
  H   1.55464072651040     -1.16102769231577     -0.17165994554559
  C   -0.59821775025100      1.46806284320999      0.10081457813859
  N   -0.92587345778335      2.52147012139523      0.50131451600555
  N   -1.17906464948484     -0.88915569086590     -0.08462679646884
  O   -2.34693107674056     -0.53266478670815     -0.02806055787206
  O   -0.75502164522763     -2.03542107415009      0.02201484233397
