11
Coordinates from ORCA-job run
  C   1.16402700978253     -0.15628618261901      0.35714627430954
  C   -0.10952307069735      0.14884801755386     -0.43197061367792
  F   2.12715795478609      0.74524907280282     -0.03072071880553
  H   0.07900034550904      0.06274782834289     -1.50263996807452
  H   0.97931909222957     -0.05082462107452      1.42651930305882
  H   1.50338190945660     -1.16712624693018      0.11961941093845
  C   -0.65231447084155      1.46172989031684     -0.10713383032755
  N   -1.06856433371599      2.52830362721084      0.15100151467303
  N   -1.11318782799069     -0.92217909974567     -0.08462580386461
  O   -1.57382305669747     -0.88675154787645      1.05113930572189
  O   -1.33447355182075     -1.76471073798143     -0.94733487395162
