11
Coordinates from ORCA-job run
  C   1.21764394322886     -0.18157249390459      0.14229875364736
  C   -0.14374910241384      0.24901425632169     -0.37739927932722
  F   1.57318417340854     -1.34083817351550     -0.51169260676400
  H   -0.13641735202157      0.33770589976292     -1.46482026064117
  H   1.16368579991045     -0.37680646715915      1.21344882770545
  H   1.95618762070885      0.59293757833748     -0.07348944408893
  C   -0.56995752132094      1.49341070646364      0.25080248841075
  N   -0.87261750182545      2.50499520277125      0.76397300321615
  N   -1.15593646270066     -0.83378824920730     -0.05774185777150
  O   -1.79114891650155     -1.28306093920649     -1.00293111110963
  O   -1.24187468047268     -1.16199732066395      1.11855148672274
