11
Coordinates from ORCA-job run
  C   1.22139339028526     -0.19289680779464      0.18719108585119
  C   -0.15543682952462      0.17277104648055     -0.36720840779835
  F   2.07953281178001      0.83030471079821     -0.15573901558766
  H   -0.11252274868450      0.21181824163294     -1.46013678869415
  H   1.57442569890064     -1.11962658997511     -0.25937902092325
  H   1.18631294795690     -0.28195539446133      1.27416554194531
  C   -0.62852444887853      1.44998847851058      0.15140251031251
  N   -0.96489553784375      2.48920886107701      0.58063130980977
  N   -1.16057882824506     -0.91668741706583     -0.04373764546515
  O   -2.33653809470893     -0.59285694837395      0.03509136499431
  O   -0.70216836103743     -2.05006818082842      0.05971906555547
