11
Coordinates from ORCA-job run
  C   1.18998886916575     -0.05966805676633      0.34151406916482
  C   -0.09645695172649      0.14639190452453     -0.44024197320855
  F   1.67811145983204     -1.31003767141912      0.03100022797390
  H   0.06489338866257     -0.01362102640497     -1.50737973484755
  H   0.98859853446402     -0.00948811428420      1.41169885266678
  H   1.92368106270088      0.69428178279552      0.04974153834079
  C   -0.65584845392327      1.46786553137291     -0.18445264437007
  N   -1.06558904782564      2.54755576005097      0.02673690965256
  N   -1.10336956072103     -0.90368010966546     -0.01213891290234
  O   -1.57624424931220     -1.60060045928513     -0.90060446589003
  O   -1.34776505131663     -0.95999954091873      1.18612613341970
