11
Coordinates from ORCA-job run
  C   1.17569392358604     -0.15475415187993      0.32191606244788
  C   -0.12109243112571      0.16091885642180     -0.42372449620634
  F   2.11862996228060      0.76879912795132     -0.06425634656513
  H   0.04055091084175      0.11206553710578     -1.50106931752591
  H   1.01922646158574     -0.08373667816541      1.39842871404288
  H   1.51900328357044     -1.15403129369452      0.04443892592571
  C   -0.66913912687490      1.45616887178422     -0.04153960040677
  N   -1.09165554452716      2.50707229122245      0.26602138278452
  N   -1.10659449734398     -0.93042263026588     -0.08724732791135
  O   -1.51216505145427     -0.95602926208472      1.06952911945392
  O   -1.37145789053858     -1.72505066839511     -0.98249711603938
