11
Coordinates from ORCA-job run
  C   1.13708352575836     -0.06710283094368      0.50196867419359
  C   -0.02041035737266      0.06741385569181     -0.47283946341772
  F   0.70261234082255      0.28817737442997      1.75808982850729
  H   0.30320934859238     -0.25171102752044     -1.46837838372846
  H   1.47484548264398     -1.10329882579852      0.52268267633301
  H   1.94868237546404      0.59962298230928      0.20360482161660
  C   -0.55300934209102      1.42320695369111     -0.52014248724633
  N   -0.91401059434861      2.53879010112396     -0.56856638343205
  N   -1.10776475013714     -0.91976669103774     -0.07549497132365
  O   -2.22792519931280     -0.48835448004554      0.15492241231154
  O   -0.74231283001903     -2.08797741190021     -0.03484672381385
