11
Coordinates from ORCA-job run
  C   1.13943438187482     -0.18710705955442      0.41950419337071
  C   -0.08127678470799      0.16046252792672     -0.43288568938995
  F   2.13879582596915      0.70470160529933      0.10804549215185
  H   0.16660782962828      0.09395403972613     -1.49279042293582
  H   1.47400969648689     -1.19838723107274      0.17727843956764
  H   0.89632953604602     -0.10236889908237      1.47896703938208
  C   -0.61819090379428      1.47595946235106     -0.10918680675685
  N   -1.03410521755531      2.54436718539444      0.14183290669535
  N   -1.12319714005883     -0.89812795889908     -0.16821797358111
  O   -1.64663134442430     -0.87931592063317      0.94035164275806
  O   -1.31077587946447     -1.71613775145591     -1.06189882126197
