11
Coordinates from ORCA-job run
  C   1.20643568005646     -0.19103651104020      0.23892065330283
  C   -0.10696645122464      0.17479325416290     -0.43170136670652
  F   1.03995294565307     -0.13013837679827      1.60321226641700
  H   0.00288402684595      0.08859366829919     -1.51706947008500
  H   1.98143651136353      0.51856041545183     -0.05787140730716
  H   1.48455105537072     -1.20741332405079     -0.04032450179526
  C   -0.56437232832192      1.51042926280640     -0.07022985957217
  N   -0.86919915901256      2.61244952274856      0.19392677772053
  N   -1.14919942132448     -0.86712565814666     -0.05498998238342
  O   -2.17178675106036     -0.49259149817200      0.49977312787675
  O   -0.85373610834578     -2.01452075526095     -0.36564623746756
