11
Coordinates from ORCA-job run
  C   1.16311245866698     -0.18071597717589      0.34848726635079
  C   -0.10887003423554      0.16458959571174     -0.42650035097201
  F   2.13504925317326      0.72236547597754     -0.01320788591298
  H   0.07733621168814      0.11291990249649     -1.49977306505739
  H   1.49056777487926     -1.18687079860163      0.07687685918589
  H   0.98303571934492     -0.10801584465344      1.42131440818708
  C   -0.63676752536344      1.47112764742540     -0.05510220571645
  N   -1.04168940790185      2.53133387125312      0.24404549041208
  N   -1.12404478240082     -0.90654888633256     -0.11416194770778
  O   -1.57704950540146     -0.90896958874770      1.02518972471227
  O   -1.36168016244945     -1.71221539735308     -1.00716829348149
