11
Coordinates from ORCA-job run
  C   1.21861371466868     -0.17524906280847      0.18502313193025
  C   -0.12672408425575      0.18167713938210     -0.42426763594998
  F   1.10530932822994     -0.14611044289380      1.55601518966691
  H   -0.06110439586997      0.11808552715880     -1.51478141785316
  H   1.96911918026094      0.55430152012487     -0.12593210363246
  H   1.50251106581345     -1.18037796702991     -0.12687988642501
  C   -0.59026852966694      1.50203907360069     -0.01758595671690
  N   -0.90947420738823      2.59043903858865      0.28346542319530
  N   -1.13625435833405     -0.88488715434347     -0.02609646781408
  O   -2.14394962643251     -0.53737684024654      0.57167684620868
  O   -0.82977808702556     -2.02254083153294     -0.36063712260953
