13

C	0.0	0.0	0.0
C	-0.501508	-0.209166	-1.433596
Br	1.958311	0.0	0.0
H	-1.601895	-0.206152	-1.372704
H	-0.172721	-1.182566	-1.805202
N	-0.501498	1.240307	0.503049
H	-1.527935	1.172363	0.439235
H	-0.250645	1.343295	1.480947
C	-0.336756	-1.194291	0.805131
N	-0.557623	-2.146782	1.458337
C	-0.040177	0.836794	-2.33891
N	0.302809	1.646936	-3.115841
Cl	-3.494238	0.0	0.0
