13

C	0.0	0.0	0.0
C	-0.226405	0.168751	-1.544638
Br	1.969786	0.0	0.0
H	0.449196	-0.527976	-2.046809
H	0.141182	1.174226	-1.780634
N	-0.521506	0.984863	0.877456
H	-0.352378	1.903114	0.478562
H	-1.543909	0.820304	0.88103
C	-0.381441	-1.347089	0.440705
N	-0.595511	-2.448628	0.788493
C	-1.513333	0.005309	-2.231518
N	-2.26048	-0.087571	-3.135643
Cl	-3.345071	0.0	0.0
