13

C	0.0	0.0	0.0
C	-0.245351	0.21237	-1.525037
Br	1.962389	0.0	0.0
H	0.120292	1.226019	-1.714099
H	0.42295	-0.473577	-2.050115
N	-0.52468	1.074893	0.771028
H	-1.54919	1.016207	0.624832
H	-0.353203	0.89688	1.756129
C	-0.368635	-1.362324	0.436993
N	-0.600606	-2.444767	0.834994
C	-1.536974	0.072927	-2.209123
N	-2.280909	-0.014458	-3.116337
Cl	-3.370777	0.0	0.0
