14

C	-0.412374	-0.098496	-1.454137
C	0.0	0.0	0.0
Br	-2.344585	-0.121746	-1.697026
H	1.094511	0.0	0.0
H	-0.029894	-1.02888	-1.864553
N	0.130016	1.005844	-2.312212
O	0.143243	2.137646	-1.842134
O	0.495975	0.679844	-3.43822
N	-0.388662	-1.252708	0.649929
H	0.334695	-1.489019	1.318655
H	-1.26838	-1.148745	1.138961
C	-0.518016	1.179461	0.696749
N	-0.986001	2.036562	1.350853
Cl	3.21926	0.0	0.0
