14

C	-0.407084	-0.40124	-1.402953
C	0.0	0.0	0.0
Br	-2.337086	-0.524049	-1.626877
H	1.094497	0.0	0.0
H	0.003797	-1.383109	-1.620383
N	0.104843	0.522777	-2.468604
O	0.553138	-0.016203	-3.476317
O	0.008246	1.728776	-2.269504
N	-0.383265	-1.094015	0.891809
H	0.323473	-1.165283	1.613859
H	-1.281019	-0.910981	1.32381
C	-0.523731	1.295598	0.43831
N	-0.988387	2.26503	0.913388
Cl	3.220319	0.0	0.0
