14

C	-0.448796	0.055473	-1.458074
C	0.0	0.0	0.0
Br	0.350887	-1.354673	-2.493299
H	1.100754	0.0	0.0
H	-0.162338	1.000711	-1.913184
N	-1.958419	-0.012653	-1.541681
O	-2.512138	1.075622	-1.379662
O	-2.515155	-1.086812	-1.711152
N	-0.568809	-1.183799	0.65965
H	-0.101405	-1.992213	0.257992
H	-0.269819	-1.15136	1.629734
C	-0.454079	1.203867	0.701411
N	-0.775083	2.167623	1.291451
Cl	3.283303	0.0	0.0
