14

C	-0.399172	-0.087706	-1.466838
C	0.0	0.0	0.0
Br	-0.017328	-1.808688	-2.237921
H	1.095223	0.0	0.0
H	0.133505	0.658036	-2.056218
N	-1.86599	0.187431	-1.682087
O	-2.64784	-0.174872	-0.806074
O	-2.175378	0.752644	-2.728063
N	-0.445945	-1.109358	0.811475
H	-1.379556	-0.962996	1.167927
H	0.209023	-1.236382	1.571205
C	-0.433489	1.323353	0.486644
N	-0.801742	2.36997	0.875496
Cl	3.248704	0.0	0.0
