14

C	-0.612279	0.078801	-1.393874
C	0.0	0.0	0.0
Br	0.110426	1.520804	-2.44846
H	1.095785	0.0	0.0
H	-1.693087	0.202779	-1.355791
N	-0.402181	-1.220731	-2.118738
O	0.723565	-1.690814	-2.135965
O	-1.406281	-1.701959	-2.643536
N	-0.450332	-1.256132	0.605431
H	-1.146538	-1.102012	1.321631
H	0.357017	-1.707345	1.018375
C	-0.453963	1.170899	0.758202
N	-0.885473	2.059657	1.3949
Cl	3.269702	0.0	0.0
