14

C	-0.615849	-0.001833	-1.396746
C	0.0	0.0	0.0
Br	0.126327	1.357141	-2.541554
H	1.096416	0.0	0.0
H	-1.694433	0.141416	-1.364576
N	-0.428223	-1.353598	-2.025731
O	-1.46146	-1.917278	-2.387022
O	0.708154	-1.787751	-2.118632
N	-0.436271	-1.219298	0.680182
H	-1.17299	-1.041815	1.34905
H	0.363463	-1.615339	1.156938
C	-0.452021	1.214688	0.688702
N	-0.880784	2.143843	1.266858
Cl	3.263285	0.0	0.0
