13
Coordinates from ORCA-job run
  C   0.66063696499584     -0.23775703940277      0.38733450518400
  C   -0.81169485739430     -0.59191707276904      0.31974003569591
  Cl  1.33751774839222     -1.02639898450805      1.82595920062959
  H   -0.94319727028322     -1.67015645502802      0.23293273375436
  H   -1.32651629602912     -0.22078519679264      1.20510360913339
  N   0.83388926575964      1.27976090776033      0.60474663916840
  O   1.82231198300010      1.79083918745530      0.10754779192777
  O   -0.01498812321746      1.80641134707057      1.30610795914837
  C   1.40235225181105     -0.64524531539494     -0.79538897269410
  N   1.97394811926935     -1.05010273048968     -1.73923294071591
  N   -1.47604822350805      0.03294417733145     -0.86728852270021
  O   -2.60703177795450     -0.36442526417814     -1.10991797535180
  O   -0.85017978484154      0.89683243894562     -1.47664406317975
