13
Coordinates from ORCA-job run
  C   0.64091752624389     -0.21167270440465      0.27555722560422
  C   -0.66755006539266     -0.56759955953378     -0.41503970088856
  Cl  0.63012301195943     -0.67544632774034      1.96476652748848
  H   -0.81974445273452     -1.64537636730678     -0.40586121935090
  H   -0.66010308762024     -0.18481543464464     -1.43654240492669
  N   0.91495359226052      1.32041774375704      0.11600611879444
  O   0.81003361299924      1.70112441405429     -1.03976135427189
  O   1.23566579761247      1.95661026037434      1.09685669789868
  C   1.73209026181035     -0.87620849464420     -0.42877080934480
  N   2.58535064575546     -1.43177619559529     -1.01636386905580
  N   -1.84145951067713      0.04894791485105      0.27410244108152
  O   -2.87114220263068     -0.61436295215574      0.29076830093799
  O   -1.68713512958612      1.18015770298872      0.72328204603329
