11
Coordinates from ORCA-job run
  C   -0.89135164726362     -0.75647992178972      0.10363254190677
  C   0.24179561104525     -0.01519675383085      0.01444490399361
  H   -0.83568158671235     -1.83607940198472      0.10316227559325
  C   -2.13814372141936     -0.09191754624645      0.20264498207383
  N   -3.14760497065785      0.51193384293611      0.27652268588119
  N   1.53382337266595     -0.73397501048259     -0.11491779711913
  O   1.52998851218623     -1.95222089653062      0.01461013341564
  O   2.52063106782503     -0.03919163099606     -0.35799225165818
  N   0.38617682497576      1.32869772107538      0.08344104993815
  H   1.24691172002827      1.70089834082680     -0.28510839038195
  H   -0.44654518267329      1.88353125702272     -0.04144013364319
