11
Coordinates from ORCA-job run
  C   -1.12040488317621      0.03208580390152      0.28488396503028
  C   0.20916441210525      0.25356905631624      0.13566900251086
  H   -1.70055040230018      0.81271187429832      0.76967783374206
  C   -1.84256942956405     -1.11219688310397     -0.13535556463951
  N   -2.54115473894366     -2.00413620046778     -0.45782458839984
  N   1.08146692020860     -0.73977326564261     -0.53533776571281
  O   2.15100803818165     -0.31141942908100     -0.97078617667530
  O   0.68230366395178     -1.89497546035238     -0.61416497879843
  N   0.91726228215062      1.32338462435013      0.59330504997253
  H   0.38264091520297      2.14399059028092      0.82818409372190
  H   1.78183322218322      1.49575928950060      0.10274912924826
