11
Coordinates from ORCA-job run
  C   -0.87019278438891     -0.78116953611928      0.10349473719220
  C   0.23396096645022     -0.01057984217835     -0.06481235900914
  H   -0.78266232393191     -1.85821374225058      0.12393405233429
  C   -2.13027839944082     -0.14916087152849      0.24051097732394
  N   -3.14944530195664      0.43159137290183      0.35532639215016
  N   1.54732422591308     -0.69334917955464     -0.17287912260164
  O   1.55411659821294     -1.91278642492925     -0.28818634618241
  O   2.54152075409391      0.03130793446957     -0.12372245252791
  N   0.32076021841510      1.33257051554232     -0.20899880428904
  H   -0.48818339905774      1.87148467370654      0.05967120140898
  H   1.22407944569077      1.73930509994034     -0.02433827579943
