11
Coordinates from ORCA-job run
  C   -0.87775732579027     -0.77651824571093      0.07008755377782
  C   0.23871528253296     -0.01369355424928     -0.04289348665142
  H   -0.79587691781455     -1.85103121076263      0.15262642063595
  C   -2.14303935983727     -0.13984133671852      0.06839987568437
  N   -3.16664154859267      0.44446129717382      0.06927353193335
  N   1.55446284493339     -0.69855547900587     -0.00948295206784
  O   1.56757568853668     -1.92252265601936     -0.05835984337516
  O   2.54368019440181      0.02959930201810      0.07776781333639
  N   0.33967404761976      1.32066587984489     -0.24681076176693
  H   -0.48692955430755      1.87086193602312     -0.07025933113515
  H   1.22613664831769      1.73757406740665     -0.01034882037137
