11
Coordinates from ORCA-job run
  C   -0.92311169942004     -0.70808086014791     -0.15382173225888
  C   0.22098670666312      0.01957452180717     -0.10037583290396
  H   -0.94422725905466     -1.64796921062097     -0.68665044503762
  C   -2.08088730035440     -0.20982435266063      0.49223369218777
  N   -3.01061354247464      0.24884606125376      1.05285473600445
  N   1.42963067669761     -0.53777638970716     -0.75616224418275
  O   1.29600253873909     -1.53085558174195     -1.46053954713497
  O   2.48969982214650      0.04434859538040     -0.52567249709179
  N   0.42419178919051      1.24775089067378      0.43180196730684
  H   1.38111733630286      1.48563456717182      0.63984254175082
  H   -0.28078906843595      1.58835175859169      1.06748936136009
