11
Coordinates from ORCA-job run
  C   -0.91514681773050     -0.73528567317892     -0.01379309143835
  C   0.24115954012150     -0.02572690559147      0.01717890515134
  H   -0.89195044023087     -1.80665047830219     -0.15502700269073
  C   -2.14346310088258     -0.04951266767825      0.14947379210566
  N   -3.13462673708962      0.57404757746040      0.28333096922769
  N   1.51354125941625     -0.76103384326825     -0.18775990450787
  O   1.47577568050602     -1.98541380323473     -0.19444260157714
  O   2.51950620655932     -0.07040890925782     -0.35190930728294
  N   0.42440295536376      1.29094119333765      0.27151849482998
  H   1.30010361296120      1.68414342949559     -0.03508828890040
  H   -0.38930215899449      1.88390008021798      0.21651803508277
