11
Coordinates from ORCA-job run
  C   -0.94706253478197     -0.65062311524154     -0.24092401599099
  C   0.24006312226852     -0.03630046425598     -0.00745411240153
  H   -0.97791633704021     -1.58737205980153     -0.77910501806456
  C   -2.13459798335479     -0.04821447989705      0.24170604074942
  N   -3.08841609622326      0.50323014500290      0.66041914324442
  N   1.46827410640641     -0.66920654734067     -0.54851592086683
  O   1.37527572979241     -1.79625654076178     -1.01938153298454
  O   2.49691184307797      0.00517370382132     -0.49139758502676
  N   0.49314603591162      1.07723082893180      0.72001905807300
  H   1.36939058835185      1.53739479981856      0.53022530659346
  H   -0.29606847440856      1.66694372972397      0.93540863667490
