11
Coordinates from ORCA-job run
  C   -0.89259159815032     -0.66836797455180     -0.36557177262341
  C   0.23702549321333     -0.03654166506297      0.04171647275172
  H   -0.83404951605053     -1.64027665755577     -0.83466604028855
  C   -2.14267442350234     -0.03522049176156     -0.15849260670608
  N   -3.15335726913406      0.54044302591911      0.03181175094729
  N   1.53728445409373     -0.70366755472893     -0.21535351462734
  O   1.52090837807350     -1.86293989512905     -0.61088454611888
  O   2.54472177291298     -0.02353804756230     -0.01916394042534
  N   0.36301181891075      1.12730242665544      0.72194736372618
  H   1.26488594993024      1.57361037904536      0.66694620941733
  H   -0.44516506029727      1.73019645473245      0.74271062394709
