11
Coordinates from ORCA-job run
  C   -1.15604913662432      0.04045067635772      0.03103331207581
  C   0.17115371376845      0.30748059008803     -0.04971200965807
  H   -1.82767051851914      0.89160558533748      0.10463171294336
  C   -1.76476136930111     -1.23903573624168      0.04170203629634
  N   -2.37044498214419     -2.24871209417566      0.07550792454922
  N   1.17012658390872     -0.78497782236124     -0.13032020137421
  O   2.32263065480215     -0.48699481818074      0.18606065012740
  O   0.78561446621925     -1.88961026186661     -0.49355125427516
  N   0.75605733055546      1.53544259707749     -0.11982224649638
  H   0.19320119114695      2.31560179281485      0.17812786180848
  H   1.72014206618778      1.55874949115034      0.17634221400322
