11
Coordinates from ORCA-job run
  C   -0.91772004012296     -0.70983015429457     -0.17192992700053
  C   0.24048105059030     -0.01693062309950     -0.03171790527875
  H   -0.93554058023835     -1.62819111697391     -0.74152695455579
  C   -2.09103171811648     -0.21729986829335      0.44980095640211
  N   -3.03806537374378      0.23949905128732      0.98245362502329
  N   1.44910123362433     -0.53924676856942     -0.71658878925029
  O   1.38843833536160     -1.65413698597231     -1.22043783840510
  O   2.42810345519936      0.20721841633354     -0.73476271434833
  N   0.48613850836165      1.08975655375886      0.70802749126948
  H   1.30722885638807      1.61650302007320      0.45538518375544
  H   -0.31613372730375      1.61365847575016      1.02229687238848
