11
Coordinates from ORCA-job run
  C   -1.14908786803817      0.02246020651983      0.13502492790979
  C   0.18582554700012      0.26129142250192      0.15320285098041
  H   -1.79679118174209      0.80937911328078      0.51221409849830
  C   -1.79560344164655     -1.14507680869413     -0.34079302343927
  N   -2.43432042733102     -2.05847767287987     -0.72189867421269
  N   1.15113619757911     -0.73881960433667     -0.36232117193592
  O   0.77892611920207     -1.90195470899622     -0.45519483932555
  O   2.26500164360866     -0.30830330265053     -0.66419657419694
  N   0.81415799584594      1.35719820844469      0.66164111980825
  H   1.73560560852147      1.52521722628456      0.28720849247823
  H   0.24514980700046      2.17708592052564      0.79611279343539
