11
Coordinates from ORCA-job run
  C   -0.93747686959113     -0.67686538834933     -0.20303509287393
  C   0.22737613713687      0.00909832684105     -0.08500559660644
  H   -0.96104696529759     -1.62262920644956     -0.72540789355417
  C   -2.11537496842086     -0.12630781123107      0.35862378887240
  N   -3.06153969105938      0.37591561997080      0.85026633270569
  N   1.45427872913580     -0.60221051607218     -0.65373913915788
  O   2.51854311294435     -0.05677076052146     -0.36092007323166
  O   1.32909769437161     -1.60052652730727     -1.35222076048478
  N   0.44199284648426      1.23645241424181      0.44348795198092
  H   -0.28857255329226      1.61704415645801      1.02488585645749
  H   1.39272252758833      1.44579969241919      0.70406462589237
