11
Coordinates from ORCA-job run
  C   -0.83653520503092     -0.82391516477429      0.00477684415581
  C   0.24211210441096     -0.00067482851158      0.01731593365279
  H   -0.70524431516654     -1.89078003415284     -0.10906704609568
  C   -2.12797459686863     -0.26151329175335      0.15339176602153
  N   -3.17653111598228      0.26271909124476      0.27512821130768
  N   1.58263216968087     -0.60905843153959     -0.17059408379210
  O   1.66860262878090     -1.83066176790227     -0.14492970544401
  O   2.51398238767475      0.17535330708123     -0.35294464183088
  N   0.29164114002841      1.33374307933342      0.23883301917061
  H   -0.57754723240781      1.83983637034420      0.16825655932317
  H   1.12386203488028      1.80395167063031     -0.08016685646891
