11
Coordinates from ORCA-job run
  C   -1.12695231685768      0.04711985043049      0.25571143508862
  C   0.16985282011848      0.30933190850315     -0.04003140968657
  H   -1.74461168771403      0.88360279787840      0.57085155931928
  C   -1.76260983542064     -1.21871234935497      0.20494876747984
  N   -2.39460582904289     -2.21249291493183      0.21593422673180
  N   1.09671084345658     -0.77426273175961     -0.44112422890921
  O   0.61753581228357     -1.79029932129968     -0.92906665052455
  O   2.29526044843673     -0.54887099326559     -0.26859811931314
  N   0.77867369266962      1.52833964725295     -0.06526052543421
  H   0.29596183547023      2.27541625706743      0.40882380413965
  H   1.77578421660004      1.49882784947924      0.08881114110850
