11
Coordinates from ORCA-job run
  C   -1.15890677247203      0.05370391727978      0.13616963823797
  C   0.17683537606086      0.27171227554414      0.14745069434204
  H   -1.79873455301422      0.75350949202606      0.66513978551387
  C   -1.78652183763178     -1.03081632818903     -0.52649266946049
  N   -2.36612013596062     -1.90608982270103     -1.05877182697409
  N   1.08302882065342     -0.64948507679830     -0.56621396515217
  O   1.95277140990133     -0.12964927862608     -1.26292673773226
  O   0.91381287772268     -1.85280523299944     -0.38666671508587
  N   0.83616515739756      1.34287287254390      0.66882271077375
  H   0.32884924423917      1.90916315876245      1.32905216738554
  H   1.81882041310363      1.23788402315755      0.85543691815171
