11
Coordinates from ORCA-job run
  C   -1.15372332745894      0.02970840930706      0.08211451975348
  C   0.17762921209501      0.28635046831253      0.11340449856381
  H   -1.82211271014268      0.86088718940573      0.29038885798327
  C   -1.77182355520559     -1.21139338685267     -0.20988981323806
  N   -2.38779316014977     -2.18539116957829     -0.45370864339715
  N   1.17036840540178     -0.77482364325499     -0.18053974510292
  O   0.81009528602957     -1.94136507009419     -0.08363804055911
  O   2.29288301430427     -0.38809061420133     -0.50844898163769
  N   0.77677221393031      1.46234536891351      0.44880732118522
  H   0.19693323777795      2.28503213013883      0.41516369297042
  H   1.71177138341810      1.57574031790382      0.08734633347874
