11
Coordinates from ORCA-job run
  C   -0.94068057104194     -0.63151161163240     -0.30723519799983
  C   0.24049824346061     -0.03108527701575     -0.01460960091461
  H   -0.96601490135458     -1.49061751464894     -0.96270974677988
  C   -2.12966873230985     -0.11828992250645      0.26646300882527
  N   -3.08641537102799      0.35571200841847      0.76560140135290
  N   1.46845149730899     -0.56556215300606     -0.65440174090107
  O   2.48634444756321      0.11582298553103     -0.52917003132929
  O   1.38508428053340     -1.62432098728243     -1.26479770018923
  N   0.48881314680844      0.98540230248516      0.84364481981233
  H   -0.30438846318886      1.52728482743732      1.15025332181075
  H   1.35697642324857      1.47816534222005      0.70696146631266
