11
Coordinates from ORCA-job run
  C   -0.87096381310402     -0.69542178940463     -0.36756056221013
  C   0.24125077572361      0.00358689084390     -0.02794243171388
  H   -0.78149129428407     -1.68319699379112     -0.79712845489432
  C   -2.14117373072978     -0.10536387051059     -0.15670452753576
  N   -3.17112192248743      0.43036688054122      0.04687301847324
  N   1.55942185740672     -0.64866656448055     -0.22812172375906
  O   1.59131838587194     -1.70166724229349     -0.85313169331833
  O   2.52948633201772     -0.07613967221075      0.26891017026643
  N   0.34212013430503      1.27355574819246      0.42982856849534
  H   -0.50186376066249      1.69647708806750      0.78443908758875
  H   1.20301703594280      1.50546952504605      0.89953854860772
