11
Coordinates from ORCA-job run
  C   -1.15688005864738      0.01802489536124     -0.01551298724784
  C   0.16565133059690      0.30819912280088      0.06210726893874
  H   -1.84640197011584      0.85752991271412     -0.04302405305257
  C   -1.73993752008093     -1.27173855399802     -0.08045160350110
  N   -2.32756323770064     -2.28992445059125     -0.15514846217991
  N   1.18684383852396     -0.76643209787669      0.07945630118817
  O   0.82923794432855     -1.89395540125474      0.39694623392645
  O   2.32888256490457     -0.43073241310148     -0.23711583804692
  N   0.72705008728539      1.54284537010546      0.18323490945497
  H   0.14501985297164      2.32545431620752     -0.06756127744771
  H   1.68709716793378      1.60072929963296     -0.12093049203228
