11
Coordinates from ORCA-job run
  C   -1.13709179754814      0.05409934905686      0.20749674540051
  C   0.17265438472702      0.30873207556494     -0.03530408282301
  H   -1.76047488188982      0.89829422908215      0.48982449608844
  C   -1.78170610682511     -1.20625666389750      0.14708089941464
  N   -2.41153293629407     -2.20163823305271      0.14328867930905
  N   1.11050461294055     -0.77945767704346     -0.40300691310550
  O   2.30658545148092     -0.54338963082164     -0.22751655734215
  O   0.63857445989382     -1.82039866914524     -0.84307055788441
  N   0.78377947994714      1.52568355265590     -0.03427825270158
  H   1.78129863022720      1.49539231069092      0.11304999316123
  H   0.29840870334052      2.26893935690977      0.44143555048276
