11
Coordinates from ORCA-job run
  C   -1.15371404740087      0.08062930200605     -0.03443531019422
  C   0.17493042105305      0.25712492274111      0.17228085312757
  H   -1.80838496025884      0.90834623143256      0.22498665074178
  C   -1.78364326603930     -1.06999234479643     -0.57024103434701
  N   -2.40671034264656     -1.96368399905884     -1.01815017331394
  N   1.15254655366463     -0.80329547771180     -0.17165810779818
  O   0.73873310093605     -1.94995230553144     -0.28956310787232
  O   2.31881727409343     -0.43528873242746     -0.31834952955667
  N   0.77824692750032      1.33813318460258      0.73958476738456
  H   0.23798656223869      2.18757760963893      0.76849188152073
  H   1.75119177685939      1.45140160910474      0.49805311030769
