11
Coordinates from ORCA-job run
  C   -1.10169311801976     -0.01861538136794      0.35140377140500
  C   0.17210871809929      0.31093967135679      0.02327534741130
  H   -1.66997847956960      0.71431859008225      0.91869776678083
  C   -1.76956635696008     -1.23386233196328      0.06203800616289
  N   -2.41487407296635     -2.20408013098219     -0.11135507851935
  N   1.03789495216127     -0.63093006942993     -0.72926718592978
  O   2.24930223131233     -0.41754591323662     -0.66765385566784
  O   0.49688882563166     -1.53888433506036     -1.34800179242984
  N   0.79864598691491      1.49661236920867      0.26080197136171
  H   1.80635958371418      1.44483114102278      0.26181926597851
  H   0.39491172968215      2.07721639036983      0.97824178344658
