11
Coordinates from ORCA-job run
  C   -0.96301231505188     -0.57224658873296     -0.35167212989125
  C   0.23699192491085     -0.01318560192399     -0.05322748494231
  H   -1.00791850333979     -1.50430352273192     -0.89703671774538
  C   -2.14627677158900      0.09153854124212      0.05521585039456
  N   -3.09573742052939      0.68432116747087      0.42432905978856
  N   1.46343605510775     -0.74278734651286     -0.45943391599484
  O   2.52491456896907     -0.31597514244060     -0.00411052256275
  O   1.33820698717251     -1.71210137609327     -1.19788862953230
  N   0.49778508733064      1.17855252196608      0.53326828096324
  H   1.41687675882862      1.28174877328179      0.93338196895600
  H   -0.26626637180938      1.62343857447474      1.01817424056651
