11
Coordinates from ORCA-job run
  C   -1.15252796157227      0.03423432611522     -0.09098065384288
  C   0.16580169047239      0.30588174628662      0.07535675539475
  H   -1.82412481208518      0.88353720957605     -0.18071011354868
  C   -1.74928181233009     -1.24628516367232     -0.19476621613774
  N   -2.34629970139714     -2.25491711183794     -0.31339364458458
  N   1.16612628153931     -0.78251596886842      0.17410645886920
  O   2.33442072664309     -0.46525363520644     -0.05375086925281
  O   0.76801865809514     -1.90403601317619      0.46398655857967
  N   0.73469091262888      1.53438045397171      0.21733902351004
  H   0.18612054922097      2.32102544041140     -0.08911133683698
  H   1.71705546878489      1.57294871640032     -0.00807596214998
