11
Coordinates from ORCA-job run
  C   -1.15523485084743      0.01379753152214     -0.06460112416972
  C   0.16832441396776      0.30910433006377     -0.04883870483823
  H   -1.84800303154401      0.85096835444373     -0.07974846021693
  C   -1.73646918359788     -1.27833420744484     -0.04840685834156
  N   -2.32316726256442     -2.29937777918593     -0.02003057163353
  N   1.19263965080818     -0.76182298043306     -0.00351442594155
  O   0.86154937425816     -1.88868718689803     -0.35075411253730
  O   2.30951040307739     -0.42407388340304      0.39104881029039
  N   0.73157490866060      1.54682176622086     -0.12208115948247
  H   0.13087267129140      2.32472688803722      0.09738409026223
  H   1.66840290649023      1.60487716707718      0.24754251660867
