11
Coordinates from ORCA-job run
  C   -1.15626684645793      0.04634310944423     -0.01511118234789
  C   0.17286036429081      0.30257056727044      0.06951224781736
  H   -1.82450937991248      0.90322723457084     -0.02255302935860
  C   -1.76981490959619     -1.22697664102210     -0.11315759589498
  N   -2.38018808401191     -2.22931519116539     -0.21454282406704
  N   1.16811355784056     -0.79617804316031      0.06481715448724
  O   0.78245888907355     -1.92182535328884      0.35504336794930
  O   2.31898514024567     -0.48080958124571     -0.24054511276906
  N   0.76303005140308      1.52100458626815      0.21946279818067
  H   1.72472324596375      1.56124370081241     -0.08283378634760
  H   0.20060797116107      2.32071561151627     -0.02209203764940
