11
Coordinates from ORCA-job run
  C   -1.15585706609420     -0.02075556555040     -0.05108570342150
  C   0.15913274584422      0.31069831796992     -0.06687173960441
  H   -1.87145218870133      0.79568157087884     -0.09951133397490
  C   -1.70106728092748     -1.32516360834482      0.04314965315831
  N   -2.25790856771716     -2.35917334760007      0.13413999711748
  N   1.21328963714477     -0.72796889830334      0.02086819439195
  O   0.90926665549866     -1.88045380017054     -0.26084293451098
  O   2.32509264294113     -0.33955139465336      0.38174553122827
  N   0.68687934604100      1.55761739776151     -0.21411792125813
  H   0.06717308072138      2.32949486496118     -0.02861156562412
  H   1.62545099524902      1.66057446305108      0.14113782249803
