11
Coordinates from ORCA-job run
  C   -0.97732365093573     -0.54565755134845     -0.35158889587930
  C   0.23382860981080     -0.00443524104420     -0.06659195566637
  H   -1.04747434335134     -1.41761890173053     -0.98631125846254
  C   -2.14026488596425      0.05858684324361      0.18585110516997
  N   -3.07350365380713      0.59761120921069      0.66284063937876
  N   1.43938439593827     -0.67186706809411     -0.61673581985655
  O   2.52237822450974     -0.28797853232304     -0.17420580276391
  O   1.27836131982079     -1.55321430638642     -1.45225149355105
  N   0.52079429554465      1.12427817724048      0.62349992257511
  H   1.46085994580381      1.19553819371697      0.97957505775152
  H   -0.21604025736962      1.50675717751500      1.19591850130436
