11
Coordinates from ORCA-job run
  C   -0.92580655198960     -0.49944376747233     -0.52074893870459
  C   0.23620604666092      0.02083195847950     -0.05139085205072
  H   -0.91448049622808     -1.20216940124840     -1.34194926146523
  C   -2.14626009547307     -0.09488586070654      0.07347448872107
  N   -3.13020974215625      0.27291595879410      0.60811577864337
  N   1.50363638585390     -0.43771270971251     -0.67246363977229
  O   1.43301938849784     -1.11967051799674     -1.68754328930071
  O   2.54127126518766     -0.09998263389987     -0.10204075657122
  N   0.42226704059384      0.97127836080537      0.89390444824796
  H   -0.36018232934506      1.17599695842940      1.49611737820132
  H   1.34153908839790      1.01284165452802      1.30452464405103
