11
Coordinates from ORCA-job run
  C   -0.97170766775668     -0.55793805942086     -0.34978609085277
  C   0.23857783452952     -0.04768077222158     -0.00920754019503
  H   -1.03719883681538     -1.40123566556301     -1.02230622020804
  C   -2.13835504565755      0.02502212936368      0.20274944438963
  N   -3.07320468805159      0.55390494942819      0.68797324359870
  N   1.44571891256633     -0.65335350060978     -0.62352108378750
  O   1.30869050742627     -1.69166344866886     -1.25886741294662
  O   2.50340905097397     -0.04612664333780     -0.45467446042698
  N   0.52919341873423      0.93014404842990      0.88122575380227
  H   -0.23552538338973      1.52017512620450      1.17131313551939
  H   1.43040189744061      1.36875183639561      0.77610123110695
