11
Coordinates from ORCA-job run
  C   -1.14716088706441      0.09093319841681     -0.12304626013552
  C   0.18201410568991      0.30285240338081      0.04374923217923
  H   -1.80816268779949      0.93644365384454      0.04769805314721
  C   -1.77299864563522     -1.12851422749838     -0.48165085255833
  N   -2.39586622374318     -2.08963099253816     -0.75699080445055
  N   1.16187836324042     -0.79394112330547     -0.14135151205938
  O   2.26036515546446     -0.63231468287133      0.39218666742704
  O   0.81553467039461     -1.77002972471397     -0.79524157812070
  N   0.79243973694666      1.48478039014412      0.33532690235797
  H   1.70450473828583      1.39278383144284      0.75673170667926
  H   0.20745167422040      2.20663727369820      0.72358844553378
