11
Coordinates from ORCA-job run
  C   -1.14484930379171      0.04991014401669      0.13547794198458
  C   0.20273238617052      0.04330264676450      0.28975304423233
  H   -1.73815156777136      0.39711671691540      0.97718844438308
  C   -1.86840307263647     -0.32914871044908     -1.02179855827445
  N   -2.56821068289413     -0.59454531632083     -1.93146369956082
  N   1.09648739599641     -0.38170865508593     -0.81115490247095
  O   2.26656106293570     -0.00374125895659     -0.73067804262649
  O   0.61906147715143     -1.05964408434270     -1.71300534657088
  N   0.89459288707684      0.35504963044117      1.42126707834826
  H   1.85071327474184      0.63954295246173      1.26925725032448
  H   0.38946614302092      0.88386593455563      2.11515679023085
