11
Coordinates from ORCA-job run
  C   -1.13402769328894     -0.02812647238841      0.22726932522575
  C   0.16654107156133      0.31074600227909      0.04586755313406
  H   -1.76862923858844      0.69637933083767      0.73039168104017
  C   -1.75657544382882     -1.24119344077759     -0.15848714197073
  N   -2.36876365893977     -2.21323100243876     -0.41916448153036
  N   1.11877536718104     -0.62123540993478     -0.60468009248080
  O   2.31280974263120     -0.41279525499444     -0.38573048554901
  O   0.65973194050456     -1.52072936328035     -1.29765215512787
  N   0.75428262499389      1.49876303464565      0.35897455305252
  H   0.26123001297782      2.08091106394125      1.01649985159916
  H   1.75362527479614      1.45151151211069      0.48771139260711
