11
Coordinates from ORCA-job run
  C   -1.11955556447360     -0.15062479277112      0.25103948803520
  C   0.20424535661438      0.14419655126162      0.25253001434067
  H   -1.71180669115940      0.23345142566596      1.07728920802215
  C   -1.82118244493116     -0.89807455976625     -0.72703179229610
  N   -2.50267664037720     -1.48886323051045     -1.48470918078643
  N   1.09301230938537     -0.31252435622485     -0.84284394423792
  O   2.15260773953315      0.30260197940312     -0.96990431638764
  O   0.71636086545272     -1.24951532146842     -1.53581444281100
  N   0.89273171858260      0.81280909214788      1.21864620305706
  H   1.75207165858256      1.23784392937647      0.90461287991600
  H   0.34419169279056      1.36669928288602      1.85618588314803
