11
Coordinates from ORCA-job run
  C   -1.13393840207903      0.10998454995400     -0.19984883592065
  C   0.16284407837364      0.27088711981416      0.16299627894423
  H   -1.77821900707916      0.98261656598800     -0.13277203193609
  C   -1.74129092425883     -1.07909719692586     -0.67411568504814
  N   -2.34285598368987     -2.00167822975321     -1.09194994426044
  N   1.12670720620795     -0.85280932884713      0.08229480795138
  O   0.67904863580363     -1.99226082823647      0.04647401874424
  O   2.31800404957480     -0.54114369403933      0.05237580932307
  N   0.73669928810315      1.39542460651946      0.67339778317462
  H   0.23625901656425      2.25735396765549      0.52885951889557
  H   1.73674204247946      1.44872246787089      0.55228828013221
