17

C	0.0	0.0	0.0
C	-0.277844	-0.11275	-1.55229
F	1.39781	0.0	0.0
H	0.587123	-0.676535	-1.927634
C	-0.497493	1.279617	0.624258
H	-0.030826	2.148527	0.158344
H	-0.245577	1.256112	1.687105
H	-1.584246	1.2845	0.496479
N	-0.522018	-1.114292	0.721697
H	-0.41661	-1.944797	0.146339
H	-1.537012	-0.921707	0.736456
C	-0.184965	1.214828	-2.20018
N	-0.135739	2.237524	-2.780655
N	-1.491324	-0.844762	-1.86593
H	-2.260566	-0.491852	-1.241055
H	-1.73016	-0.693238	-2.838578
F	-3.046425	0.0	0.0
