19
Coordinates from ORCA-job run
  C   -0.70088828085870      0.14618968565050      0.02809590686601
  C   0.81212163693397     -0.14164192948291      0.00420848118892
  Br  -1.13247395629918      1.54674776165983      1.34423507914203
  H   0.93559778050487     -1.01557384844449     -0.64224650554062
  C   -1.44263771120647     -1.11661620427650      0.45412471752763
  H   -1.15262653620557     -1.44914817056509      1.45089361346705
  H   -2.51730142449846     -0.92793828556847      0.46311471283312
  H   -1.23915725584453     -1.91963937299194     -0.26234249653318
  C   -1.20148845075914      0.62420317849761     -1.32895283270924
  H   -0.77079804606701      1.58677713748625     -1.60581804365296
  H   -2.28697310259352      0.73229071288887     -1.30351931482828
  H   -0.93523779822161     -0.10622026212757     -2.09925775860772
  C   1.50119719974791     -0.35721613151806      1.33653781495417
  H   2.54376576826801     -0.63679915638238      1.16820162885751
  H   1.47528721446886      0.55124264753560      1.93433600103498
  H   1.01960879887734     -1.16400009589861      1.89003335290596
  N   1.52674392889957      0.94374901689529     -0.74977239267336
  O   1.75514632584130      0.73268301514577     -1.94141835176562
  O   1.81011390901235      1.97191030149630     -0.14045361246641
