19
Coordinates from ORCA-job run
  C   -0.63943501509232      0.40782999040411     -0.29997959254488
  C   0.88623336456705      0.23242437385474     -0.20893032024148
  Br  -0.97308867142010      2.27773932483934     -0.84356078741609
  H   1.31562797659112      0.49204894398648     -1.17833465942406
  C   -1.40603727644810      0.15904973896081      0.99022941641987
  H   -1.25579702545446     -0.87276966743688      1.32044161632815
  H   -2.47222802005197      0.30492321967703      0.80677261114088
  H   -1.09227119312544      0.82748767812050      1.78887917180571
  C   -1.17242594588373     -0.47769740228096     -1.42222423937671
  H   -1.10405893020022     -1.53078062357382     -1.13658820871723
  H   -2.22251349192556     -0.24757825287965     -1.60826217624759
  H   -0.61906401831402     -0.32320395418786     -2.35117074490595
  C   1.33827641302860     -1.15365189500830      0.22978167362246
  H   1.00363100427384     -1.91236200104092     -0.47772007849791
  H   0.96576648841877     -1.39307630692605      1.22487337636669
  H   2.42999187621752     -1.18345865737661      0.25859044706709
  N   1.50911003793629      1.22342473892500      0.73271542251857
  O   2.24632352724553      2.07594837512344      0.24440739523356
  O   1.26295889963721      1.09270237681961      1.93107967686893
