19
Coordinates from ORCA-job run
  C   -0.69255414938193      0.18221765309228      0.03433354500241
  C   0.80450668230582     -0.18019478587994     -0.00591583124787
  Br  -1.04547797946341      1.57689356990707      1.37943739726678
  H   0.87997566193485     -1.04225938037942     -0.67531529153901
  C   -1.49332100385914     -1.05043176496903      0.44167425754797
  H   -2.55732779730365     -0.80948734872797      0.46132554634014
  H   -1.21409798205173     -1.41471426386684      1.43032709705713
  H   -1.33366846652136     -1.84912914177546     -0.29054071503611
  C   -1.17687882932923      0.71073731009348     -1.30977267211921
  H   -2.25554803814780      0.87156881390834     -1.27443511648753
  H   -0.95161738223385     -0.01654262110246     -2.09589897338149
  H   -0.70094321165529      1.65609632723227     -1.57121724347998
  C   1.48675494364215     -0.46747029861755      1.31647016273242
  H   1.49501340531306      0.41849481815894      1.94751512872134
  H   0.97720597448486     -1.27683820894361      1.84033038312137
  H   2.51830048344067     -0.77824695365234      1.13547653959218
  N   1.56952080113056      0.88756362493703     -0.73417605342826
  O   1.91476730338981      1.87886489989035     -0.09638037771081
  O   1.77438958430563      0.70187775069487     -1.93423778295148
