15

C	0.0	0.0	0.0
C	-0.395894	-0.097203	-1.496983
Br	1.922616	0.0	0.0
H	0.348521	0.525156	-2.009109
H	-0.333363	0.925751	0.447453
N	-0.433858	-1.078057	0.958864
O	-0.484573	-2.238756	0.574102
O	-0.587128	-0.709584	2.116145
C	-1.702307	0.490282	-1.863695
N	-2.404083	0.985895	-2.67833
C	-0.295626	-1.493273	-2.123772
H	-1.108795	-2.120452	-1.77363
H	-0.371586	-1.379032	-3.208216
H	0.652959	-1.974558	-1.881264
F	-2.346984	0.0	0.0
