15

C	0.0	0.0	0.0
C	-0.432051	0.167691	-1.49018
Br	1.923781	0.0	0.0
H	0.481951	0.348213	-2.069957
H	-0.345542	0.815974	0.61772
N	-0.415418	-1.23887	0.73398
O	-0.416534	-2.306588	0.133587
O	-0.58956	-1.10473	1.938303
C	-1.196871	1.41432	-1.599444
N	-1.622496	2.485284	-1.833217
C	-1.174328	-0.979258	-2.186279
H	-1.420757	-0.648977	-3.200792
H	-0.54829	-1.868521	-2.246164
H	-2.075921	-1.161652	-1.609538
F	-2.337865	0.0	0.0
