16

C	0.0	0.0	0.0
C	-0.525196	0.056111	-1.425349
Cl	1.827294	0.0	0.0
H	-0.49695	-0.984221	-1.761427
H	-1.582182	0.323477	-1.331774
N	-0.282458	1.341921	0.763133
O	-0.388194	2.376917	0.118821
O	-0.339264	1.257999	1.984375
N	-0.522414	-1.092871	0.693794
H	-0.334573	-0.994591	1.684486
H	-1.541358	-1.06488	0.550644
C	0.188355	0.938535	-2.441305
H	-0.368368	0.898394	-3.381632
H	0.228223	1.974918	-2.114409
H	1.204337	0.591942	-2.638378
Cl	-3.618579	0.0	0.0
