15

C	0.0	0.0	0.0
C	-0.529083	0.126783	-1.425741
Br	1.944719	0.0	0.0
H	-1.602311	0.347351	-1.31501
H	-0.264847	0.908657	0.542557
N	-0.514388	-1.22597	0.554898
H	-0.233696	-1.292959	1.526851
H	-1.536712	-1.11801	0.531386
N	-0.218798	-1.027164	-2.207388
H	-0.193418	-1.813775	-1.566656
H	-0.948734	-1.187063	-2.888158
N	0.029194	1.3777	-2.072059
O	0.360676	1.328442	-3.252033
O	0.032404	2.394859	-1.379737
Cl	-3.558485	0.0	0.0
