15

C	0.0	0.0	0.0
C	-0.350519	0.814464	-1.312575
Br	2.027848	0.0	0.0
H	0.557611	1.314627	-1.654997
H	-0.2556	0.657764	0.830903
N	-0.542925	-1.278812	0.239342
H	-0.433074	-1.868593	-0.575352
H	-1.539296	-1.156409	0.436683
N	-1.401564	1.764756	-1.234141
H	-1.108971	2.545247	-0.661068
H	-2.24946	1.341946	-0.843052
N	-0.636872	-0.163832	-2.443082
O	-1.575838	0.044365	-3.196489
O	0.158478	-1.102685	-2.543755
Cl	-3.706433	0.0	0.0
