15

C	0.0	0.0	0.0
C	-0.371589	0.635562	-1.38072
Br	2.002452	0.0	0.0
H	0.513437	1.079397	-1.843657
H	-0.25162	0.769084	0.729123
N	-0.55927	-1.23031	0.41579
H	-1.54939	-1.063325	0.607752
H	-0.47789	-1.919965	-0.319313
N	-1.37515	1.614029	-1.228079
H	-2.219466	1.200473	-0.812567
H	-1.622127	2.00529	-2.128193
N	-0.704764	-0.462004	-2.426339
O	-1.50257	-0.161093	-3.307991
O	-0.07671	-1.521347	-2.383061
Cl	-3.7815	0.0	0.0
