15

C	0.0	0.0	0.0
C	-0.419198	-0.063995	-1.486736
Cl	1.81779	0.0	0.0
H	0.41068	-0.410525	-2.104035
H	-0.24987	0.97458	0.410802
N	-0.535334	-1.055564	0.778519
H	-1.009021	-1.717229	0.175776
H	-1.209111	-0.70108	1.442711
N	-0.591366	1.389092	-2.032983
O	-1.020693	1.451753	-3.182773
O	-0.260203	2.355691	-1.353968
N	-1.544743	-0.881228	-1.717295
H	-2.391888	-0.558594	-1.225084
H	-1.723966	-0.951114	-2.708591
Cl	-4.022571	0.0	0.0
