15

C	0.0	0.0	0.0
C	-0.395545	-0.337507	-1.483939
Cl	1.789542	0.0	0.0
H	0.529085	-0.625238	-1.992926
H	-0.297135	1.014782	0.265028
N	-0.495129	-1.037693	0.867161
H	-0.188765	-0.838948	1.812796
H	-1.513175	-0.931801	0.85105
N	-0.77143	0.945595	-2.205251
O	-1.481263	0.863427	-3.196913
O	-0.242047	1.98061	-1.799005
N	-1.363915	-1.350635	-1.740188
H	-2.261386	-1.059062	-1.345533
H	-1.060605	-2.174786	-1.234879
Cl	-3.63106	0.0	0.0
