15

C	0.0	0.0	0.0
C	-0.342351	0.219335	-1.488802
Cl	1.796574	0.0	0.0
H	0.225746	-0.513636	-2.061967
H	-0.296358	0.873181	0.588042
N	-0.547575	-1.260015	0.418466
H	-1.56482	-1.172378	0.340393
H	-0.338369	-1.402309	1.401351
N	0.244504	1.555205	-1.89971
O	0.955338	1.586886	-2.90145
O	-0.078323	2.53233	-1.227051
N	-1.69748	0.227902	-1.902656
H	-2.362155	0.585244	-1.213897
H	-2.005587	-0.708751	-2.130448
Cl	-4.139248	0.0	0.0
