15

C	0.0	0.0	0.0
C	-0.579945	-0.129074	-1.42239
Cl	1.780079	0.0	0.0
H	-1.478959	-0.744763	-1.341276
H	-0.278594	1.006303	0.325585
N	-0.468454	-1.068863	0.840054
H	-1.488001	-1.039072	0.777791
H	-0.222795	-0.850947	1.799396
N	0.332949	-0.910037	-2.32024
O	0.818137	-0.35032	-3.30358
O	0.522597	-2.080764	-2.010744
N	-0.822417	1.186606	-1.96124
H	-1.74664	1.437551	-1.615131
H	-0.86978	1.130512	-2.970559
Cl	-3.505467	0.0	0.0
