15

C	0.0	0.0	0.0
C	-0.426052	-0.129367	-1.494066
Cl	1.784157	0.0	0.0
H	0.452683	-0.161469	-2.141913
H	-0.297445	0.983798	0.350069
N	-0.517798	-0.981369	0.89178
H	-1.494458	-0.732674	1.057026
H	-0.514009	-1.879785	0.421909
N	-1.062613	1.203584	-1.976588
O	-1.738102	1.12594	-2.997545
O	-0.756095	2.249002	-1.412044
N	-1.238926	-1.260572	-1.739322
H	-1.44446	-1.308164	-2.72867
H	-2.125671	-1.135825	-1.237227
Cl	-3.615947	0.0	0.0
