15

C	0.0	0.0	0.0
C	-0.463338	0.29792	-1.460791
Cl	1.811952	0.0	0.0
H	0.336192	-0.024699	-2.138368
H	-0.305982	0.797713	0.670246
N	-0.534157	-1.232738	0.443053
H	-0.620867	-1.291217	1.444276
H	-0.035288	-2.03229	0.079949
N	-0.472278	1.821974	-1.649684
O	0.259109	2.473726	-0.904482
O	-1.141997	2.287525	-2.558578
N	-1.697708	-0.23178	-1.900252
H	-1.601031	-1.233213	-1.993398
H	-2.47395	-0.064025	-1.244486
Cl	-4.326451	0.0	0.0
