15

C	0.0	0.0	0.0
C	-0.526901	-0.051474	-1.427827
Cl	1.820323	0.0	0.0
H	-1.615805	0.060866	-1.31854
H	-0.307103	0.966521	0.399133
N	-0.537982	-1.029349	0.782474
H	-0.120015	-1.92849	0.613268
H	-0.666857	-0.805518	1.752716
N	-0.374864	-1.427725	-2.056524
O	-0.962308	-1.567234	-3.122865
O	0.319491	-2.292426	-1.521281
N	0.089625	0.873804	-2.335903
H	-0.597919	1.392176	-2.858013
H	0.741574	1.48907	-1.873414
Cl	-3.726134	0.0	0.0
