18

C	-0.306739	-0.079339	-1.491867
C	0.0	0.0	0.0
F	-1.661923	-0.416787	-1.726313
H	1.096531	0.0	0.0
C	-0.124592	1.234424	-2.1434
N	-0.001415	2.28449	-2.654965
C	0.605607	-1.108758	-2.128895
H	0.322962	-2.081775	-1.726739
H	0.519972	-1.107864	-3.218408
H	1.620935	-0.869493	-1.788808
N	-0.395035	-1.281172	0.596775
H	-1.289972	-1.199137	1.065727
H	0.311577	-1.516313	1.282754
C	-0.599327	1.208644	0.696817
H	-0.222588	2.144846	0.278356
H	-0.321488	1.183698	1.754512
H	-1.695787	1.213385	0.626753
F	2.696566	0.0	0.0
