18

C	-0.53843	0.009213	-1.424691
C	0.0	0.0	0.0
F	-0.14269	1.191071	-2.069792
H	1.10135	0.0	0.0
C	0.046477	-1.11206	-2.190522
N	0.458446	-1.987667	-2.85504
C	-2.054248	-0.061698	-1.527394
H	-2.365288	-0.087812	-2.574481
H	-2.408094	-0.958572	-1.018105
H	-2.486029	0.824483	-1.056859
N	-0.39523	-1.289025	0.599011
H	0.461029	-1.712566	0.939319
H	-1.007294	-1.143595	1.393665
C	-0.474816	1.199188	0.801265
H	-1.534214	1.138473	1.090904
H	0.131169	1.253409	1.709497
H	-0.317806	2.126077	0.245586
F	2.646517	0.0	0.0
