18

C	-0.275609	0.026932	-1.507809
C	0.0	0.0	0.0
F	0.036615	-1.227693	-2.033768
H	1.096307	0.0	0.0
C	-1.704814	0.253764	-1.81415
N	-2.841925	0.471587	-2.018147
C	0.653718	1.022896	-2.185711
H	1.638342	0.842119	-1.73407
H	0.666202	0.838707	-3.262249
H	0.341004	2.052736	-2.006371
N	-0.567891	-1.20802	0.593282
H	0.182861	-1.709727	1.050241
H	-1.262378	-0.970069	1.290988
C	-0.47782	1.269032	0.688919
H	-0.163123	1.229097	1.735663
H	-1.571211	1.373996	0.657297
H	-0.02807	2.16395	0.253599
F	2.707939	0.0	0.0
