18

C	-0.542681	-0.043173	-1.422368
C	0.0	0.0	0.0
F	-0.158908	1.117469	-2.109372
H	1.09874	0.0	0.0
C	0.046829	-1.184415	-2.155698
N	0.44583	-2.063692	-2.822421
C	-2.057155	-0.132122	-1.516114
H	-2.39801	-1.015061	-0.977107
H	-2.370831	-0.193638	-2.560747
H	-2.494005	0.763717	-1.070408
N	-0.396076	-1.269777	0.644979
H	0.469197	-1.707961	0.945739
H	-0.948059	-1.088584	1.47539
C	-0.477759	1.223541	0.760838
H	-0.343261	2.129267	0.166112
H	0.142884	1.322259	1.654441
H	-1.530986	1.161272	1.070128
F	2.644487	0.0	0.0
