18

C	-0.306517	-0.077853	-1.491156
C	0.0	0.0	0.0
F	-1.666023	-0.398137	-1.726078
H	1.09662	0.0	0.0
C	-0.107185	1.232938	-2.144301
N	0.02574	2.281227	-2.657051
C	0.592304	-1.118357	-2.127958
H	0.514064	-1.11084	-3.217119
H	1.60789	-0.892064	-1.782269
H	0.294348	-2.089054	-1.731689
N	-0.396317	-1.279837	0.598593
H	-1.284292	-1.194226	1.078924
H	0.317002	-1.520988	1.274394
C	-0.598217	1.209478	0.696128
H	-0.318767	1.186445	1.753424
H	-1.694688	1.213993	0.627349
H	-0.222086	2.144827	0.275162
F	2.693967	0.0	0.0
