18

C	-0.304728	-0.068987	-1.49193
C	0.0	0.0	0.0
F	-1.662384	-0.393722	-1.731028
H	1.097004	0.0	0.0
C	-0.109869	1.246453	-2.13773
N	0.013625	2.281926	-2.67851
C	0.600595	-1.101538	-2.134142
H	1.616849	-0.870424	-1.791302
H	0.309844	-2.075017	-1.738434
H	0.517474	-1.092973	-3.223649
N	-0.398773	-1.282365	0.590735
H	0.305472	-1.522881	1.277563
H	-1.294648	-1.200126	1.057921
C	-0.596677	1.207734	0.701118
H	-0.320767	1.177775	1.759228
H	-0.215404	2.14433	0.286985
H	-1.693049	1.216897	0.629017
F	2.695344	0.0	0.0
