18

C	-0.402941	-0.022681	-1.472814
C	0.0	0.0	0.0
F	0.114506	1.109404	-2.11498
H	1.096198	0.0	0.0
C	0.189734	-1.209419	-2.129299
N	0.56296	-2.174892	-2.683189
C	-1.90172	-0.005024	-1.755598
H	-2.080697	-0.027648	-2.833176
H	-2.326687	0.912743	-1.346515
H	-2.403452	-0.862934	-1.302584
N	-0.360612	-1.241885	0.692313
H	0.423437	-1.875731	0.593684
H	-1.189026	-1.693488	0.321286
C	-0.560748	1.210126	0.722704
H	-0.034347	1.293575	1.675261
H	-1.634309	1.120144	0.935481
H	-0.381637	2.126068	0.153301
F	2.640785	0.0	0.0
