18

C	-0.534117	0.003323	-1.426365
C	0.0	0.0	0.0
F	-0.135322	1.182253	-2.075194
H	1.101324	0.0	0.0
C	0.050953	-1.122793	-2.186443
N	0.431104	-2.012321	-2.851524
C	-2.049766	-0.067676	-1.534936
H	-2.482981	0.820931	-1.069421
H	-2.405916	-0.962596	-1.023325
H	-2.356076	-0.097828	-2.583375
N	-0.399466	-1.28509	0.6048
H	-1.004604	-1.132729	1.40277
H	0.455766	-1.713323	0.941758
C	-0.474992	1.203959	0.794133
H	0.129121	1.262457	1.703051
H	-1.534875	1.145947	1.081611
H	-0.315627	2.127585	0.233913
F	2.64768	0.0	0.0
