18

C	-0.241618	-0.10972	-1.510156
C	0.0	0.0	0.0
F	-1.56323	-0.557278	-1.792744
H	1.096683	0.0	0.0
C	-0.13668	1.204027	-2.173098
N	-0.065796	2.253207	-2.698205
C	0.76213	-1.076221	-2.114849
H	0.73667	-1.055106	-3.20718
H	1.744811	-0.796019	-1.704206
H	0.517339	-2.084223	-1.774138
N	-0.399525	-1.240475	0.676747
H	0.401761	-1.860305	0.681426
H	-1.160067	-1.69265	0.183289
C	-0.656602	1.201349	0.648272
H	-1.745992	1.185833	0.516076
H	-0.444552	1.169622	1.718224
H	-0.268062	2.139776	0.246218
F	2.712547	0.0	0.0
