16

C	-0.165516	0.100511	-1.521775
C	0.0	0.0	0.0
Br	0.189265	-1.822502	-2.27117
H	1.088045	0.0	0.0
C	-1.49345	0.415331	-2.044115
N	-2.526843	0.742429	-2.499367
N	0.816345	1.000263	-1.923702
H	1.705736	0.788722	-1.420478
H	0.905734	1.08455	-2.926891
N	-0.697908	-1.109217	0.673194
O	-0.238091	-1.426957	1.770059
O	-1.699004	-1.586839	0.146389
N	-0.51159	1.256485	0.637049
O	-1.673436	1.248161	1.053365
O	0.261307	2.20554	0.690084
F	2.54563	0.0	0.0
