14

C	0.0	0.0	0.0
C	-0.54167	0.163465	-1.438376
Cl	1.777047	0.0	0.0
H	-1.652615	0.164456	-1.310553
C	-0.372347	1.196456	0.791428
N	-0.616883	2.140338	1.448528
N	-0.491271	-1.244523	0.50562
H	-1.518101	-1.181473	0.502542
H	-0.176631	-1.371364	1.461199
C	-0.145146	-0.969922	-2.272371
N	0.152086	-1.853686	-2.98659
C	-0.121109	1.423639	-2.046758
N	0.200627	2.438387	-2.542754
Br	-3.592055	0.0	0.0
