14

C	0.0	0.0	0.0
C	-0.392355	-0.142841	-1.479911
F	1.351037	0.0	0.0
H	0.42976	-0.688966	-1.953298
H	-1.310219	-0.717241	-1.549117
C	-0.62532	1.120354	0.69425
N	-0.587548	2.150483	1.286386
N	-0.343402	-1.284176	0.74853
O	-0.383973	-1.229946	1.974986
O	-0.333466	-2.323408	0.087166
N	-0.472821	1.197274	-2.057917
H	-1.325329	1.607849	-1.685122
H	-0.614931	1.096419	-3.055879
H	-2.309633	0.0	0.0
