14

C	0.0	0.0	0.0
C	-0.174742	0.259487	-1.528523
F	1.365964	0.0	0.0
H	0.378159	1.19225	-1.690315
H	0.42228	-0.555936	-1.951773
C	-0.480969	1.054809	0.883997
N	-0.56238	2.019121	1.560378
N	-0.532449	-1.308995	0.434992
O	-0.557589	-1.520525	1.664793
O	-0.536342	-2.220961	-0.424753
N	-1.483043	0.387305	-2.158572
H	-2.077935	-0.32815	-1.756928
H	-1.351861	0.185983	-3.148661
H	-2.032239	0.0	0.0
