14

C	0.0	0.0	0.0
C	-0.409549	-0.157444	-1.48803
F	1.364438	0.0	0.0
H	-0.947593	0.754896	-1.764026
H	-1.106959	-0.981341	-1.574805
C	-0.625564	1.155633	0.629181
N	-0.602438	2.223508	1.154041
N	-0.322169	-1.238573	0.826614
O	-0.332224	-1.095982	2.048537
O	-0.344006	-2.320427	0.243124
N	0.759501	-0.457713	-2.332852
H	0.421137	-0.532239	-3.285479
H	1.40711	0.320764	-2.304496
H	-2.170604	0.0	0.0
