14

C	0.0	0.0	0.0
C	-0.314614	-0.009416	-1.543361
F	1.366018	0.0	0.0
H	0.633141	-0.314564	-1.995136
H	-0.483291	1.043213	-1.78808
C	-0.570096	1.122475	0.729433
N	-0.566976	2.149248	1.323204
N	-0.322514	-1.289172	0.714684
O	-0.20494	-2.319968	0.043397
O	-0.464604	-1.261313	1.935363
N	-1.363901	-0.800738	-2.146353
H	-1.147412	-1.771174	-1.954492
H	-2.185833	-0.583617	-1.575251
H	-2.215121	0.0	0.0
