14

C	0.0	0.0	0.0
C	-0.403457	-0.193674	-1.484994
F	1.370963	0.0	0.0
H	-1.151082	-0.97363	-1.545145
H	-0.881932	0.74034	-1.801969
C	-0.622362	1.170652	0.601571
N	-0.600286	2.260961	1.078589
N	-0.323307	-1.220793	0.849605
O	-0.314513	-1.05649	2.068824
O	-0.366864	-2.311808	0.284792
N	0.751726	-0.595997	-2.302751
H	0.405524	-0.770441	-3.239219
H	1.410803	0.170613	-2.360991
H	-2.177945	0.0	0.0
