14

C	0.0	0.0	0.0
C	-0.403647	-0.414698	-1.446981
F	1.356889	0.0	0.0
H	0.542243	-0.657096	-1.944613
H	-1.005666	-1.314105	-1.378586
C	-0.535776	1.295547	0.403488
N	-0.54651	2.454068	0.649161
N	-0.342708	-1.039831	1.046152
O	-0.298722	-2.216772	0.684273
O	-0.412508	-0.662701	2.215169
N	-1.11528	0.567661	-2.241057
H	-0.598971	1.441481	-2.238018
H	-1.971887	0.724645	-1.702911
H	-2.286549	0.0	0.0
