14

C	0.0	0.0	0.0
C	-0.397788	-0.027718	-1.50072
F	1.35649	0.0	0.0
H	-1.312225	-0.602083	-1.589559
H	-0.626788	1.005381	-1.780383
C	-0.634318	1.07755	0.747389
N	-0.615576	2.089594	1.37223
N	-0.350466	-1.324509	0.661841
O	-0.340282	-2.322882	-0.067195
O	-0.374868	-1.355025	1.89101
N	0.709063	-0.513147	-2.345382
H	0.322173	-0.591297	-3.281213
H	0.903355	-1.463662	-2.049872
H	-2.227012	0.0	0.0
