14

C	0.0	0.0	0.0
C	-0.243222	-0.067521	-1.557713
F	1.362581	0.0	0.0
H	0.611282	-0.649844	-1.908775
H	-0.090074	0.968619	-1.881276
C	-0.580006	1.135717	0.693757
N	-0.584586	2.182523	1.252382
N	-0.352942	-1.278729	0.715271
O	-0.306899	-2.31203	0.038906
O	-0.438497	-1.248259	1.94238
N	-1.425948	-0.599351	-2.192755
H	-1.471445	-1.578126	-1.929002
H	-2.206568	-0.176069	-1.687197
H	-2.204378	0.0	0.0
