14

C	0.0	0.0	0.0
C	-0.375319	-0.17449	-1.494813
F	1.351311	0.0	0.0
H	-1.273403	-0.771555	-1.560076
H	-0.626543	0.832181	-1.858443
C	-0.706621	1.121381	0.612118
N	-0.666156	2.205319	1.112173
N	-0.326605	-1.264924	0.799868
O	-0.192214	-1.164316	2.018148
O	-0.518238	-2.314855	0.196593
N	0.706016	-0.831246	-2.229616
H	1.447708	-0.17173	-2.429646
H	0.332819	-1.162438	-3.110611
H	-2.237011	0.0	0.0
