16
Coordinates from ORCA-job run
  C   -0.49151810708606     -0.59797638878516      0.15334475551578
  C   0.82671230832033      0.18956129509943      0.28710743967567
  Cl  -0.35471308863789     -2.19588558129554      0.92015529143780
  H   1.10096597140298      0.20802000337742      1.34517822399879
  N   -0.85722541501639     -0.72121473401137     -1.19403541197536
  H   -1.76099056950909     -1.16299350746352     -1.30040445757104
  H   -0.85960776037206      0.21050600181071     -1.59854848582275
  N   -1.58054875973774      0.13070148253529      0.99721703792112
  O   -2.73207430786926      0.05688458561473      0.58657664318785
  O   -1.21041893625229      0.71262194582660      2.01243251939681
  N   0.55278321962677      1.50797781906778     -0.27612515085561
  H   1.43584124379032      1.88185564942061     -0.60125188811822
  H   0.18402120853914      2.12634707908504      0.43643914362002
  N   1.90592013181656     -0.40654914677780     -0.46203573147826
  H   1.54978842891452     -0.74741961472960     -1.34854154000023
  H   2.29006443207016     -1.19343688877459      0.04349161106763
