16
Coordinates from ORCA-job run
  C   -0.66352176962292     -0.62783908575966      0.23229989767755
  C   0.73827447107167      0.02499742739847      0.27885257113415
  Cl  -0.60928503082653     -2.18414175163158      1.06793919599563
  H   1.12397640928593     -0.08139018523532      1.29810075422133
  N   -1.23401488250809     -0.80196480024191     -1.05095589372746
  H   -1.22661932991397      0.08338759246094     -1.54490615362277
  H   -0.69628293479457     -1.49664256096810     -1.55357847111052
  N   -1.57523492360028      0.30142260109088      1.04548074892830
  O   -1.20116474999016      0.53382156314563      2.19231369588907
  O   -2.54467040207762      0.79537982040516      0.48754086225927
  N   0.57316478084505      1.41133817705729     -0.15726449156467
  H   0.17971446735480      1.98081496403391      0.58451747105644
  H   1.48521704205411      1.79481010885330     -0.37486818609669
  N   1.58415774906983     -0.71544993751277     -0.62511467994528
  H   2.54839031555660     -0.69722087237933     -0.32504385794640
  H   1.51789878809615     -0.32032306071691     -1.55531346314796
