13
Coordinates from ORCA-job run
  C   -0.66636552178963      0.24765929421766     -0.13609917047316
  C   0.52680694256089     -0.52548232860263     -0.69503116709646
  Cl  -2.05207816122273      0.01731214567393     -1.33022340933955
  H   0.22790089057663     -1.58566199727283     -0.73384402914883
  H   0.70591328410024     -0.19633714608512     -1.71977008503257
  N   -0.97645301180861     -0.21948539233893      1.17076500269010
  H   -1.27981463552079     -1.18599521327765      1.13546148991239
  H   -1.69551236899498      0.33870784843226      1.61378880666389
  C   -0.39365344979440      1.68638350729516     -0.09369887814905
  N   -0.20787835876396      2.84449749176437     -0.04814959286485
  N   1.68653695985630     -0.22201436543593      0.11732032881815
  H   1.59256334513991     -0.63158912700932      1.03643916469728
  H   2.53103408566112     -0.56699471736096     -0.31795846067734
