13
Coordinates from ORCA-job run
  C   -0.79030230357212      0.25084289065333     -0.20961980223405
  C   0.45160459305979     -0.56729841600919     -0.60438896103579
  Cl  -2.04976219043326     -0.03262013160272     -1.44975059860787
  H   0.75474000399652     -0.29835319670206     -1.62388704371418
  H   0.15058276925807     -1.61838436985283     -0.60534161663584
  N   -1.33845688472579     -0.06767766019362      1.08752841317533
  H   -1.73863299215957     -0.99950003156313      1.05116061134136
  H   -0.55470588877993     -0.08156280656787      1.73565069164896
  C   -0.42403844772338      1.67518326794293     -0.23265859494076
  N   -0.04228856190742      2.78553381144353     -0.25197965374185
  N   1.46760760550025     -0.35277212557076      0.41661394851950
  H   2.08248125395868     -1.15147016476766      0.48918930665331
  H   2.03217104352813      0.45807893279007      0.19648329957188
