13
Coordinates from ORCA-job run
  C   -0.61849109259410      0.21737987770805     -0.18140341833782
  C   0.87806318942562      0.01696785034988     -0.43247011946624
  Cl  -1.58645105341549     -0.63409147601190     -1.41458624821210
  H   1.11909505582067      0.41942283913709     -1.41912275850779
  H   1.39295607798711      0.64392287629159      0.31714794257099
  N   -0.95560464110887     -0.33819840314365      1.11632873796414
  H   -1.96115817799373     -0.34867775616739      1.24328165460781
  H   -0.55204783178312      0.24580239744148      1.84267862485079
  C   -0.93776163402380      1.65313033005030     -0.29534305484771
  N   -1.15906312529793      2.80730051103629     -0.31847257590587
  N   1.20268108724157     -1.39124614300533     -0.39104002531384
  H   0.99407565967754     -1.76438998997974      0.52513678352624
  H   2.18370648606452     -1.52932291370669     -0.59213554292861
