13
Coordinates from ORCA-job run
  C   -0.58804760015929      0.37432484843982     -0.11992357396189
  C   0.91783517452115      0.09078000763223     -0.17294208641911
  Cl  -1.31175957338201     -0.36785159064020     -1.67250955778567
  H   1.31568635453828      0.49407247089131     -1.10993694083353
  H   1.36257945559629      0.63801875975075      0.66210263306275
  N   -1.12906885576331     -0.15283909162456      1.06350505185866
  H   -2.13667593570039     -0.08825221252043      1.10622614028969
  H   -0.80257203787588     -1.10599022945385      1.17881643664769
  C   -0.85022555806976      1.81053231195235     -0.22959003206336
  N   -1.03108959629008      2.96874694567493     -0.29994562320691
  N   1.13237095159966     -1.33417460048206      0.02392499649744
  H   1.08041650949347     -1.82546573142756     -0.85860137293111
  H   2.04155071149187     -1.50290188819271      0.43087392884533
