13
Coordinates from ORCA-job run
  C   -0.65572571228899      0.28236298300789     -0.09670030270445
  C   0.57735283357470     -0.61430381603130      0.06675393614265
  Cl  -1.18488025368133      0.15019397404471     -1.81791943012322
  H   0.24208886911811     -1.64385087198526     -0.13521666788507
  H   0.86259932423361     -0.55590001842534      1.12227381904914
  N   -1.78113475766906     -0.07122711054464      0.73158209580525
  H   -1.98118021779539     -1.06108466728493      0.64524690481855
  H   -1.59040743679712      0.15642448443795      1.70052185658737
  C   -0.29513038654648      1.67916454984264      0.16886921712937
  N   -0.00832079738565      2.77998109470554      0.45813297397761
  N   1.68206451030752     -0.14932654665804     -0.74413913709411
  H   2.56083498411280     -0.50535840927832     -0.39500942743846
  H   1.57283904081728     -0.44607564583087     -1.70439583826463
