13
Coordinates from ORCA-job run
  C   -0.54630455469240      0.44375267283734     -0.07755262400948
  C   0.91290326105314     -0.00758998015269     -0.21248070046447
  Cl  -1.41735763916057     -0.14513808917621     -1.62006309315819
  H   1.31421367357974      0.38635760708205     -1.15199053627855
  H   1.45373089990482      0.44970561754398      0.61991247059242
  N   -1.09341108462615     -0.06689724010384      1.11022618995613
  H   -2.08414878130626      0.10990469188348      1.20254966545730
  H   -0.87510688631836     -1.05515042127014      1.17494011208110
  C   -0.64298016101497      1.90401120268960     -0.12253231627383
  N   -0.68014009227974      3.07757428713138     -0.14495008889908
  N   0.96848512295019     -1.45476145190065     -0.07878674419632
  H   0.81984698702405     -1.89901927301489     -0.97515229658059
  H   1.86926925488654     -1.74374962354943      0.27587996177357
