13
Coordinates from ORCA-job run
  C   -0.56617922488246      0.41046864887411     -0.10470280352441
  C   0.91087309036126      0.01719981895099     -0.22557726920902
  Cl  -1.42629273729388     -0.34003158344767     -1.58189048355614
  H   1.28266770534299      0.35183102053898     -1.19957963692332
  H   1.43964067242800      0.56394728537772      0.55923015023364
  N   -1.07464815311422     -0.02705427094916      1.12834836635207
  H   -2.07119296406584      0.11187739532634      1.22244879367581
  H   -0.80855981372394     -0.99532228916644      1.26988546957221
  C   -0.73286135804456      1.85639253695182     -0.26439538404868
  N   -0.83715203606995      3.02103698127684     -0.37321531799174
  N   1.03561299620116     -1.41083056665272      0.02302787789490
  H   1.95550113652864     -1.62883047929841      0.37960632032079
  H   0.89259068633281     -1.93168449778243     -0.83218608279614
