13
Coordinates from ORCA-job run
  C   -0.56703161560848      0.41006614015283     -0.10621772282171
  C   0.91002628136358      0.01597645997219     -0.22760681947052
  Cl  -1.43019265438360     -0.34798577847886     -1.57684780168407
  H   1.27959986757341      0.34579701922996     -1.20414883473478
  H   1.44003290972752      0.56718099952587      0.55325552550667
  N   -1.07304579219432     -0.02104887576121      1.13045935826392
  H   -2.06969737831420      0.11669341238701      1.22515621427426
  H   -0.80558920175985     -0.98832887451620      1.27635255019966
  C   -0.73285302506067      1.85529229801046     -0.27288839510510
  N   -0.83473782987734      3.01949458980948     -0.38851834394011
  N   1.03559377421553     -1.41021943049460      0.02816352915546
  H   1.95477331923552     -1.62635916329141      0.38752133381768
  H   0.89312134508290     -1.93655879654553     -0.82368059346134
