13
Coordinates from ORCA-job run
  C   -0.61742824331087      0.18898371391563     -0.10034255726777
  C   0.64450734676732     -0.67067640006452     -0.06271504899039
  Cl  -1.04473905281539      0.50851941166828     -1.81578658815939
  H   0.84565111299243     -0.89497683317971      0.99062168448738
  H   0.38555290590118     -1.61049364230213     -0.56662253147483
  N   -1.71465481845968     -0.54175912981186      0.48941214000030
  H   -1.51994594337308     -0.70008860994146      1.47292853748291
  H   -2.57212198996405     -0.00544429520505      0.41918299140321
  C   -0.36515797917438      1.49606409689734      0.53274662309303
  N   -0.23735904901951      2.49840110336850      1.13235949266632
  N   1.77320893042033      0.05526055809233     -0.60846917301694
  H   1.77852845953008     -0.00092845984763     -1.61796587048860
  H   2.64395832050561     -0.32386151358974     -0.26434969973525
