13
Coordinates from ORCA-job run
  C   -0.76962823685190      0.13940424149009     -0.26696980390051
  C   0.51947951619442     -0.60445712931576     -0.63126555522153
  Cl  -1.96635299161042     -0.12658851196211     -1.57834791139685
  H   0.25032013710029     -1.66101495078308     -0.68932401750317
  H   0.84989671018903     -0.27180367309695     -1.62180029825860
  N   -1.27687410674258     -0.39323133517753      0.96180344241393
  H   -0.50246611655927     -0.41626105010625      1.61885951088631
  H   -2.03043206802802      0.17385360914585      1.33021372502003
  C   -0.49113341825023      1.58878949379062     -0.22459348696293
  N   -0.21881146420587      2.72822052359136     -0.12702992088974
  N   1.48471006864807     -0.40272537631577      0.44136214787709
  H   2.03215069624674      0.43350419577854      0.28165877818079
  H   2.11914127386975     -1.18669003703904      0.50543338975519
