13
Coordinates from ORCA-job run
  C   -0.54157575195374      0.24837529494605     -0.14591707612937
  C   0.97146297908995      0.03392381220248     -0.37025453724105
  Cl  -1.46529524936028     -0.65060022947749     -1.39196758704759
  H   1.23632572637171      0.44047077995284     -1.34857943461427
  H   1.48506877645686      0.64098730685716      0.38541410354738
  N   -0.90972440603466     -0.28958711974398      1.14537601080489
  H   -0.46124641623895      0.25723322754853      1.87418295695221
  H   -1.91299684965141     -0.23664350036484      1.28080004072134
  C   -0.86938488443998      1.67435312659151     -0.30951274598518
  N   -1.08054021833184      2.82960251327864     -0.36829045668378
  N   1.42318025445965     -1.33141859040708     -0.27166896213004
  H   1.05284190871933     -1.74726536399743      0.57423070021843
  H   1.07288413091335     -1.86943125738640     -1.05381301241300
