13
Coordinates from ORCA-job run
  C   -0.77842457361269      0.26319390431318     -0.24013548921935
  C   0.46556327337225     -0.57374014882734     -0.58750808848178
  Cl  -1.99280125795956     -0.00037328291389     -1.52820570787457
  H   0.14884285022747     -1.62010691878275     -0.60181346653179
  H   0.81176915205128     -0.30813794635903     -1.59410754387302
  N   -1.38096080175840     -0.04727142817659      1.03457565552630
  H   -0.62289291146457     -0.07439156127896      1.71217261612185
  H   -1.79452952993637     -0.97242293525085      0.98165939146659
  C   -0.38844676541969      1.68140780503802     -0.24711559322823
  N   0.01429894714960      2.78448909007674     -0.24437034785771
  N   1.44410952775753     -0.37598778518561      0.47258659142776
  H   2.04472151107794     -1.18330193365137      0.56620416278120
  H   2.02775057851519      0.42764314099845      0.27705781974274
