13
Coordinates from ORCA-job run
  C   -0.55602582188448      0.22677941100106      0.05343210749388
  C   0.58620905811560     -0.79756856446110     -0.12245043610511
  Cl  -0.99471546242145      0.84463599840035     -1.63448311754907
  H   0.78815080625423     -1.19146634987845      0.87736449434909
  H   0.18401848500846     -1.61381086607005     -0.73165932863413
  N   -1.64663798002269     -0.36252205011687      0.73524609990706
  H   -1.97324779874649     -1.18852728393812      0.24869965311579
  H   -2.41710357637492      0.28133576599608      0.86272036457886
  C   -0.07012546629633      1.39671203617732      0.78817771793213
  N   0.37732948732155      2.30232523083207      1.38740942120822
  N   1.81371367035662     -0.33006720189944     -0.70877329900805
  H   1.65559188352288      0.05925732560298     -1.62832820060489
  H   2.25284271516705      0.37291654835412     -0.12835547668378
