13
Coordinates from ORCA-job run
  C   -0.71110688245173      0.22337026555443     -0.13593143878393
  C   0.55345200155209     -0.63816153880493      0.02825154284933
  Cl  -1.37751785128545     -0.05485280964136     -1.77388287823611
  H   0.25863187990045     -1.66889592511980     -0.18774357260975
  H   0.82264687064372     -0.58401763862938      1.09494980474871
  N   -1.76315262765703     -0.05203873726517      0.81708532162315
  H   -2.02641415634105     -1.02963106670859      0.76008092278123
  H   -1.44303156512550      0.15411271152306      1.75711367367902
  C   -0.32921324408233      1.63694073055236     -0.01799737879860
  N   0.04240488816293      2.73852965870384      0.14713900765052
  N   1.60182427106813     -0.22659891060950     -0.87935163583859
  H   2.19698412448207     -1.00068712664081     -1.13473388248005
  H   2.17349229113371      0.50193038708585     -0.47397948658490
