13
Coordinates from ORCA-job run
  C   -0.59263259735585      0.37453069444688     -0.16156233977095
  C   0.88797527763758     -0.02260923702927     -0.40283974385031
  Cl  -1.58180900691166     -0.43163825440163     -1.43568555670195
  H   1.48708603682996      0.56279938824092      0.30311169453460
  H   1.16646073197000      0.29057592939754     -1.41208484453708
  N   -1.15012096798890      0.00586376003270      1.11575513590401
  H   -0.70914055932958      0.53603012503122      1.85911830066564
  H   -1.01875111595902     -0.98564598501301      1.27602820929990
  C   -0.72102722053311      1.82494976894348     -0.33180409152742
  N   -0.74355597588049      2.99398557185889     -0.44319435537974
  N   1.21081300352748     -1.41739304834458     -0.23600623164312
  H   1.10019072963345     -1.72722480572500      0.71909636623802
  H   0.66251166436009     -2.00422390743812     -0.84993254323161
