13
Coordinates from ORCA-job run
  C   -0.48625323891906      0.42768009517630     -0.05315364906516
  C   0.89768251094822     -0.07773486379879     -0.51849976112728
  Cl  -1.74037396556268     -0.31236914049603     -1.19999324281796
  H   1.00219933367518      0.16424583596455     -1.57775860138666
  H   1.63901925202013      0.50057094536708      0.03938773854641
  N   -0.71762492310590      0.09887171408537      1.30388296793981
  H   -1.60342910554883      0.45624502372649      1.63837113098983
  H   -0.69402897320973     -0.90483481039413      1.43072131662258
  C   -0.57847360019448      1.87544103970597     -0.24218675570403
  N   -0.59954448403233      3.03887368682434     -0.40258870949745
  N   1.15723727644099     -1.48034668293786     -0.31864517647660
  H   1.26528317544599     -1.72130518291280      0.65575822170588
  H   0.45930674204250     -2.06633766031048     -0.75529547972935
