13
Coordinates from ORCA-job run
  C   -0.55586639783756      0.21701214293364      0.07209747331930
  C   0.59512550978929     -0.78585100316598     -0.16107149617219
  Cl  -1.04114472526587      0.87996477544299     -1.58623186272915
  H   0.82477581187586     -1.20710032413997      0.82145852001592
  H   0.18983195290076     -1.58843896700084     -0.78610718280789
  N   -1.62278367193254     -0.40724914393683      0.75982872817592
  H   -2.39820010186938      0.22176310915765      0.92551798485078
  H   -1.95002811811125     -1.22227444685243      0.25552376642765
  C   -0.07011453552936      1.37114740536595      0.83142235905508
  N   0.36075540943048      2.26598383146846      1.45835097902429
  N   1.80258326101492     -0.28344463071966     -0.75996032435086
  H   1.61808449480996      0.13346590633294     -1.66236190558937
  H   2.24698111072468      0.40602134511406     -0.16746703921951
