13
Coordinates from ORCA-job run
  C   -0.59683801518163      0.16023280888505     -0.08784963939854
  C   0.62794883183405     -0.77022605738094     -0.19479926808290
  Cl  -1.03944488636572      0.73318444043423     -1.73039508035414
  H   0.32267514864655     -1.59291665775729     -0.84532223126222
  H   0.80219968099948     -1.18287275819849      0.80575615923233
  N   -1.71587898002433     -0.57842936243708      0.43694194295520
  H   -1.48772742630006     -0.93353636981201      1.35943545143623
  H   -2.53740448163536      0.01067574105767      0.50917437509557
  C   -0.23310061775103      1.35566178770410      0.69598031054471
  N   0.07859117086932      2.25299188650081      1.38900075096929
  N   1.85559905421011     -0.19011263933877     -0.67437712142387
  H   1.73878494627353      0.19122154066210     -1.60369400025244
  H   2.18559557442511      0.54312563968062     -0.05985164945921
