13
Coordinates from ORCA-job run
  C   -0.73151626039691      0.23232797772286     -0.25357973630887
  C   0.48107442707251     -0.61360427789642     -0.70813309976033
  Cl  -2.00513713379909      0.03534364417321     -1.51252208353274
  H   0.77270837422641     -0.30082949538198     -1.71350872610829
  H   0.13520641287157     -1.65026653205641     -0.77617833438446
  N   -1.30345373827898     -0.12201391306972      1.01967083430238
  H   -1.46410474740776     -1.12128771877102      1.07098150648730
  H   -0.71387217665675      0.17995506033046      1.78462878374808
  C   -0.33310489647227      1.64410128774902     -0.20861371141358
  N   0.07234425822333      2.74477490165775     -0.14957139224160
  N   1.63406812181714     -0.54827672284093      0.15780363984619
  H   2.03044463726099      0.38183116062741      0.19129371003659
  H   1.42634272153982     -0.86105537224422      1.09572860932933
