15

C	0.0	0.0	0.0
C	-0.458619	-0.312286	-1.422213
F	1.384813	0.0	0.0
H	0.120659	0.326185	-2.093155
H	-0.358151	1.001724	0.235611
C	-0.395042	-0.992124	1.076588
H	-0.046824	-0.605079	2.039121
H	0.103923	-1.946758	0.895149
H	-1.475016	-1.094492	1.070611
C	-1.896379	-0.171686	-1.773376
N	-2.607476	-0.108864	-2.721048
N	0.003745	-1.700557	-1.788207
O	-0.684889	-2.653033	-1.434468
O	1.073746	-1.787976	-2.393681
F	-2.610321	0.0	0.0
