15

C	0.0	0.0	0.0
C	-0.279827	-0.049843	-1.518335
F	1.386891	0.0	0.0
H	0.302511	-0.899359	-1.888819
H	-0.383792	0.917639	0.434262
C	-0.433848	-1.229336	0.761584
H	-0.166163	-2.131999	0.203459
H	-1.517727	-1.13739	0.87096
H	0.101282	-1.23825	1.717272
C	0.255988	1.156101	-2.156751
N	0.760762	2.084833	-2.666588
N	-1.666881	-0.307266	-2.060914
O	-1.962735	-1.491572	-2.170257
O	-2.279436	0.637503	-2.533064
F	-2.576623	0.0	0.0
