15

C	0.0	0.0	0.0
C	-0.53934	-0.158574	-1.42872
F	1.381657	0.0	0.0
H	0.310645	0.005185	-2.106181
H	-0.32902	0.982598	0.335742
C	-0.402723	-1.04535	1.026156
H	-0.051338	-0.699152	2.001993
H	-1.488318	-1.112713	1.012055
H	0.08764	-1.991777	0.799406
C	-1.593201	0.802271	-1.765649
N	-2.0859	1.697921	-2.352079
N	-0.959926	-1.564352	-1.763984
O	-0.117247	-2.429938	-1.521088
O	-2.031655	-1.758364	-2.318477
F	-2.581664	0.0	0.0
