15

C	0.0	0.0	0.0
C	-0.519473	-0.421162	-1.385961
Cl	1.793644	0.0	0.0
H	0.103255	0.10166	-2.124913
H	-0.336094	-0.735202	0.731574
C	-0.409534	1.348346	0.391797
N	-0.656973	2.463771	0.665477
C	-1.972445	-0.014585	-1.569234
H	-2.627833	-0.359159	-0.766482
H	-2.08632	1.069436	-1.609051
H	-2.3621	-0.426788	-2.503519
N	-0.351124	-1.872708	-1.468216
H	-1.164358	-2.282455	-1.907753
H	0.469828	-2.116611	-2.003482
Br	-5.215302	0.0	0.0
