15

C	0.0	0.0	0.0
C	-0.431183	-0.149063	-1.505489
Cl	1.789563	0.0	0.0
H	0.357488	-0.773556	-1.936228
H	-0.304057	-0.876966	0.574025
C	-0.48749	1.208627	0.651521
N	-0.817641	2.208593	1.171343
C	-0.409277	1.210024	-2.194638
H	-1.282806	1.785358	-1.886263
H	0.490037	1.779957	-1.958189
H	-0.463961	1.053968	-3.273094
N	-1.68222	-0.800739	-1.765685
H	-2.479179	-0.356987	-1.304779
H	-1.664789	-1.764996	-1.460804
Br	-4.431519	0.0	0.0
