15

C	0.0	0.0	0.0
C	-0.519772	0.295102	-1.456301
Cl	1.790077	0.0	0.0
H	0.314073	-0.007486	-2.100375
H	-0.304378	-1.008787	0.284142
C	-0.455578	0.936125	1.021582
N	-0.758469	1.724185	1.838879
C	-0.784407	1.780131	-1.645181
H	0.061775	2.391184	-1.322842
H	-0.987823	1.97033	-2.700147
H	-1.667394	2.064763	-1.069897
N	-1.677819	-0.453177	-1.861639
H	-2.517881	-0.204663	-1.329305
H	-1.53444	-1.450864	-1.753844
Br	-4.450527	0.0	0.0
