15

C	0.0	0.0	0.0
C	-0.545253	-0.360095	-1.396844
Cl	1.790242	0.0	0.0
H	-1.629572	-0.386869	-1.238552
H	-0.336395	-0.730234	0.737661
C	-0.408031	1.344323	0.408627
N	-0.631769	2.455918	0.712825
C	-0.069665	-1.73399	-1.840571
H	-0.616847	-2.008687	-2.743342
H	0.998999	-1.737762	-2.072364
H	-0.26418	-2.486511	-1.070591
N	-0.265967	0.631782	-2.421234
H	0.706228	0.918617	-2.388002
H	-0.845164	1.447289	-2.260709
Br	-3.726294	0.0	0.0
