15

C	-0.52542	-0.025182	-1.423202
C	0.0	0.0	0.0
Cl	-0.098721	1.491663	-2.315544
H	1.093903	0.0	0.0
H	0.005351	-0.812208	-1.966421
H	-0.294006	-0.964352	0.442004
C	-2.028187	-0.217497	-1.546579
H	-2.563471	0.626859	-1.106869
H	-2.325302	-1.129882	-1.018884
H	-2.331689	-0.302541	-2.592996
C	-0.517034	1.138315	0.87009
H	-0.261151	2.103868	0.429457
H	-0.024391	1.089214	1.84486
H	-1.600276	1.10878	1.034225
H	3.107763	0.0	0.0
