16

C	-0.602468	0.052946	-1.391487
C	0.0	0.0	0.0
Br	0.127566	-1.391044	-2.50006
H	1.089854	0.0	0.0
H	-1.667836	-0.189599	-1.343775
N	-0.315905	1.334174	-2.020385
H	-0.218466	1.215999	-3.016869
H	-1.094152	1.955941	-1.851462
N	-0.508242	-1.212088	0.708356
O	0.230697	-1.758762	1.513736
O	-1.674181	-1.569858	0.496753
C	-0.437813	1.205741	0.823976
H	-1.52891	1.320318	0.857105
H	-0.052704	1.090079	1.837034
H	0.023371	2.097982	0.395052
H	2.862881	0.0	0.0
