16

C	-0.525704	0.034143	-1.428197
C	0.0	0.0	0.0
Br	0.089429	1.683267	-2.308581
H	1.091656	0.0	0.0
H	-0.047831	-0.762516	-1.993467
N	-1.959749	-0.06266	-1.612631
H	-2.217467	-0.993155	-1.298458
H	-2.414115	0.613163	-1.007748
N	-0.35543	-1.269801	0.588943
O	-0.258016	-1.391935	1.823457
O	-0.601083	-2.238726	-0.1683
C	-0.384372	1.14095	0.917959
H	-0.117311	2.086687	0.446225
H	-1.448122	1.145788	1.174756
H	0.192925	1.0453	1.836646
H	2.501322	0.0	0.0
