16

C	-0.463663	0.015526	-1.442795
C	0.0	0.0	0.0
Br	0.114356	1.672873	-2.33485
H	1.089998	0.0	0.0
H	0.076781	-0.760416	-1.99285
N	-1.91463	-0.054072	-1.561152
H	-2.169628	-0.969584	-1.197208
H	-2.158627	-0.049807	-2.547349
N	-0.346295	-1.28726	0.580369
O	-0.534718	-2.258523	-0.186445
O	-0.300922	-1.407057	1.81463
C	-0.468075	1.138868	0.877387
H	-0.115321	2.078653	0.451922
H	-0.025228	1.025441	1.865962
H	-1.557554	1.169407	0.960243
H	2.542751	0.0	0.0
