16

C	-0.480547	-0.005511	-1.438663
C	0.0	0.0	0.0
Br	0.314322	1.601446	-2.401436
H	1.091594	0.0	0.0
H	-0.017782	-0.837936	-1.963636
N	-1.889136	-0.059009	-1.563188
H	-2.327713	0.768679	-1.182232
H	-2.172744	-0.163407	-2.530318
N	-0.376115	-1.339179	0.531772
O	-1.068949	-1.413963	1.557456
O	0.068432	-2.317636	-0.080151
C	-0.558249	1.096864	0.871378
H	-0.272535	2.062685	0.451159
H	-1.644209	1.038364	0.98097
H	-0.119846	1.016712	1.866945
H	2.731035	0.0	0.0
