16

C	-0.256413	0.037268	-1.49913
C	0.0	0.0	0.0
Br	-2.194469	-0.17985	-1.911877
H	1.095074	0.0	0.0
H	-0.048022	1.062075	-1.810205
N	0.518834	-0.846945	-2.32329
H	1.486995	-0.581306	-2.125126
H	0.417496	-1.776868	-1.931303
N	-0.427984	-1.251029	0.622397
O	-0.923622	-1.213258	1.754944
O	-0.2098	-2.312173	0.019397
C	-0.501983	1.203675	0.757414
H	-1.592676	1.246776	0.787633
H	-0.12077	1.187128	1.77853
H	-0.11611	2.102929	0.269578
H	2.640615	0.0	0.0
