16

C	-0.482321	0.016306	-1.435084
C	0.0	0.0	0.0
Br	0.135724	1.647668	-2.352315
H	1.090935	0.0	0.0
H	0.029541	-0.777589	-1.983841
N	-1.932384	-0.010307	-1.533423
H	-2.216138	-0.898183	-1.127702
H	-2.192731	-0.030221	-2.514003
N	-0.35676	-1.272579	0.594478
O	-0.582535	-2.247299	-0.158916
O	-0.290218	-1.382246	1.82954
C	-0.431496	1.152506	0.879621
H	0.071064	1.062678	1.841988
H	-0.112896	2.086366	0.415741
H	-1.513701	1.176409	1.027548
H	2.524473	0.0	0.0
