16

C	-0.523517	0.050801	-1.41849
C	0.0	0.0	0.0
F	-1.884192	0.228702	-1.422595
H	1.093645	0.0	0.0
H	-0.053508	0.848543	-1.990487
N	-0.253192	-1.227834	-2.165898
O	-1.104524	-2.112818	-2.112708
O	0.822118	-1.288714	-2.752739
C	-0.49675	-1.216388	0.772398
H	-0.106738	-2.148131	0.358683
H	-1.589955	-1.269001	0.775036
H	-0.139334	-1.137919	1.801523
N	-0.394195	1.286224	0.586719
H	0.321223	1.560693	1.24768
H	-1.274525	1.193323	1.077936
Br	3.564729	0.0	0.0
