16

C	-0.51295	0.037063	-1.420592
C	0.0	0.0	0.0
F	-1.888552	0.026226	-1.442654
H	1.098105	0.0	0.0
H	-0.155156	0.919486	-1.94571
N	-0.071647	-1.144044	-2.24605
O	-0.675447	-2.203308	-2.085853
O	0.852508	-0.95082	-3.028782
C	-0.484875	-1.208476	0.790149
H	-0.122586	-2.146264	0.368476
H	-1.578228	-1.246086	0.824475
H	-0.097926	-1.126029	1.808004
N	-0.416662	1.285684	0.578914
H	0.326016	1.610971	1.183853
H	-1.253159	1.16144	1.135509
Br	3.564008	0.0	0.0
