15

C	0.0	0.0	0.0
C	-0.34768	-0.257374	-1.508909
F	1.376236	0.0	0.0
H	0.625859	-0.259197	-2.016809
C	-0.453496	1.33792	0.418751
N	-0.481118	2.451071	0.809094
C	-0.508082	-0.973697	0.972384
N	-0.547585	-1.744701	1.86721
N	-1.202625	0.69602	-2.100371
H	-2.051488	0.667634	-1.515188
H	-1.410177	0.420734	-3.052711
N	-0.781528	-1.725075	-1.705299
O	-0.058572	-2.576493	-1.189524
O	-1.717268	-1.952672	-2.467211
H	-2.232511	0.0	0.0
