15

C	0.0	0.0	0.0
C	-0.370047	0.073373	-1.519926
F	1.370795	0.0	0.0
H	0.592805	0.080322	-2.041555
C	-0.454445	1.209532	0.710624
N	-0.475775	2.204462	1.345585
C	-0.503721	-1.160645	0.747095
N	-0.529544	-2.097842	1.467618
N	-1.117693	1.214455	-1.879721
H	-1.325931	1.18203	-2.870519
H	-1.98337	1.129941	-1.332342
N	-0.962844	-1.256027	-2.010407
O	-1.904007	-1.20868	-2.796824
O	-0.344196	-2.27234	-1.701111
H	-2.210685	0.0	0.0
