15

C	0.0	0.0	0.0
C	-0.361508	-0.012382	-1.526494
F	1.370101	0.0	0.0
H	0.604787	0.01661	-2.039832
C	-0.4521	1.253489	0.631653
N	-0.474473	2.296414	1.183825
C	-0.517434	-1.113558	0.805053
N	-0.532215	-2.03553	1.546179
N	-1.16387	1.066288	-1.951533
H	-1.365231	0.969991	-2.939653
H	-2.024257	0.971265	-1.394305
N	-0.879768	-1.398083	-1.944457
O	-1.837534	-1.448503	-2.70945
O	-0.198455	-2.358372	-1.590806
H	-2.219184	0.0	0.0
