15

C	0.0	0.0	0.0
C	-0.368217	-0.000787	-1.523514
F	1.370343	0.0	0.0
H	0.595631	-0.016364	-2.042682
C	-0.455998	1.243137	0.648918
N	-0.474035	2.273115	1.225619
C	-0.510057	-1.122367	0.799218
N	-0.533065	-2.038491	1.547182
N	-1.118859	1.118134	-1.93963
H	-1.325916	1.038179	-2.928085
H	-1.984335	1.060463	-1.389333
N	-0.954583	-1.354913	-1.949448
O	-1.900582	-1.351586	-2.731052
O	-0.327763	-2.351327	-1.59585
H	-2.20605	0.0	0.0
