15

C	0.0	0.0	0.0
C	-0.363455	0.009573	-1.52658
F	1.370038	0.0	0.0
H	0.601594	0.034898	-2.041271
C	-0.453594	1.24226	0.652683
N	-0.474948	2.265703	1.240565
C	-0.523362	-1.126579	0.783368
N	-0.528685	-2.0555	1.516392
N	-1.155881	1.099435	-1.938262
H	-2.017107	1.009099	-1.38452
H	-1.358603	1.017282	-2.928102
N	-0.890129	-1.366363	-1.958796
O	-0.191962	-2.328496	-1.642359
O	-1.86786	-1.409017	-2.698719
H	-2.208348	0.0	0.0
