12

C	-0.491032	0.045006	-1.447329
C	0.0	0.0	0.0
Br	-0.05342	-1.602784	-2.402669
H	1.092079	0.0	0.0
H	0.024779	0.85094	-1.970139
H	-0.363402	-0.917831	0.477296
C	-1.933026	0.250915	-1.522076
N	-3.095591	0.41996	-1.544053
N	-0.452659	1.23366	0.639214
H	-1.278131	1.077603	1.201173
H	0.28772	1.587341	1.23053
Cl	3.451879	0.0	0.0
