12

C	-0.442932	-0.03235	-1.454393
C	0.0	0.0	0.0
Br	-2.411535	-0.13606	-1.592962
H	1.094689	0.0	0.0
H	-0.080174	-0.945741	-1.924921
H	-0.352328	0.930956	0.463535
C	-0.031811	1.140099	-2.219582
N	0.281193	2.083613	-2.847602
N	-0.437353	-1.2193	0.668684
H	0.250608	-1.460978	1.369126
H	-1.328717	-1.083512	1.126606
Cl	3.446305	0.0	0.0
