12

C	-0.415869	0.028663	-1.48629
C	0.0	0.0	0.0
Br	-0.040365	-1.676568	-2.367057
H	1.092584	0.0	0.0
H	0.185288	0.771163	-2.015384
H	-0.386839	-0.911433	0.461532
C	-1.832727	0.329923	-1.659256
N	-2.975514	0.595175	-1.734858
N	-0.4397	1.171336	0.735435
H	0.15754	1.959451	0.526103
H	-1.405646	1.412991	0.554055
Cl	3.454337	0.0	0.0
