12

C	-0.446156	-0.123213	-1.448905
C	0.0	0.0	0.0
Br	-2.410389	-0.313746	-1.576045
H	1.094687	0.0	0.0
H	-0.046583	-1.045258	-1.871554
H	-0.357496	0.953249	0.4084
C	-0.076867	1.023059	-2.26991
N	0.179592	1.96123	-2.928429
N	-0.429739	-1.17945	0.742658
H	-1.270046	-0.992103	1.27214
H	0.309249	-1.433063	1.385603
Cl	3.415265	0.0	0.0
