12

C	-0.534073	0.003579	-1.440375
C	0.0	0.0	0.0
Br	0.083912	1.566889	-2.44704
H	1.092492	0.0	0.0
H	-1.624367	0.101953	-1.434541
H	-0.344968	-0.940512	0.447725
C	-0.205352	-1.207805	-2.181889
N	-0.008683	-2.212837	-2.757634
N	-0.452631	1.123418	0.801146
H	-1.402619	1.391984	0.573228
H	0.153177	1.914668	0.627771
Cl	3.466555	0.0	0.0
