13

C	0.0	0.0	0.0
C	-0.534541	-0.120002	-1.423168
Br	1.961754	0.0	0.0
H	-0.304152	0.810788	-1.947164
H	-1.644644	-0.176182	-1.239713
N	-0.573546	1.184339	0.548463
H	-0.377514	1.219315	1.543323
H	-1.613946	0.974807	0.45191
C	-0.312903	-1.232204	0.76759
N	-0.4877	-2.185264	1.435252
C	-0.050765	-1.268061	-2.168322
N	0.302548	-2.19196	-2.80276
H	-2.906399	0.0	0.0
