13

C	0.0	0.0	0.0
C	-0.36159	0.061568	-1.486094
Br	2.022735	0.0	0.0
H	0.11592	0.93502	-1.940073
H	0.011421	-0.834418	-1.995626
N	-0.316387	1.298548	0.598207
H	0.345909	1.981966	0.248109
H	-0.180974	1.230108	1.60223
C	-0.811624	-1.027504	0.680445
N	-0.823192	-2.025969	1.346819
C	-1.852342	0.171887	-1.594877
N	-2.748734	0.330403	-2.377374
H	-2.020099	0.0	0.0
