13

C	0.0	0.0	0.0
C	-0.532142	-0.085916	-1.428454
Br	1.955394	0.0	0.0
H	-1.641179	-0.14673	-1.252504
H	-0.299255	0.857093	-1.928955
N	-0.578616	1.168589	0.575715
H	-0.376586	1.183323	1.571991
H	-1.619269	0.955193	0.472315
C	-0.316669	-1.254206	0.729593
N	-0.49706	-2.232471	1.357575
C	-0.046584	-1.216389	-2.199577
N	0.317349	-2.124042	-2.85156
H	-2.907895	0.0	0.0
