12
Coordinates from ORCA-job run
  C   -0.32713709424685      0.36685338309458     -0.14448076077980
  C   0.55030354525255     -0.87339797995030     -0.18239886856008
  F   -0.56128482642010      0.81392534462196     -1.40679763721281
  H   0.65176783285846     -1.27991102762647      0.82788523482680
  H   0.05036283543078     -1.62129506746449     -0.80099683275947
  C   0.23730882753198      1.43721742467330      0.67852657086715
  N   0.74746304825658      2.26004645357586      1.34406812678583
  N   -1.71148824627472     -0.00290405161719      0.41881272851969
  O   -2.32401503803355      0.89232505896227      0.98448244087274
  O   -2.09848823089549     -1.14112380523013      0.18592298437307
  C   1.86407843339042     -0.55176495721377     -0.73075274677052
  N   2.92112891314994     -0.29997077582563     -1.17327124016258
