12
Coordinates from ORCA-job run
  C   -0.37013778351665      0.53441155610761     -0.21326184318796
  C   0.68586517962369     -0.34386391111344     -0.86021435385096
  F   -1.04304390268509      1.20414877971144     -1.19015753970973
  H   1.37186840551626      0.30886170277415     -1.40721138180654
  H   0.18605030103661     -1.00689427606877     -1.56888566231936
  C   0.18400424675882      1.47902809499906      0.75682385551691
  N   0.68701710928300      2.24382124592229      1.49309768432607
  N   -1.43188528740453     -0.33010772404708      0.48584577574493
  O   -1.64818116797089     -1.42171049032753     -0.02406243597664
  O   -2.01717149055020      0.18600131191866      1.42870461871750
  C   1.40979248902375     -1.12015663418295      0.14026700800987
  N   1.98582190088525     -1.73453965569345      0.95705427453591
