17

C	-0.380234	0.137794	-1.482928
C	0.0	0.0	0.0
F	-1.700219	0.614398	-1.578499
H	1.09207	0.0	0.0
N	0.496794	1.027523	-2.142603
H	0.578013	0.831806	-3.130054
H	1.415117	1.050861	-1.703923
C	-0.438872	-1.202525	-2.123056
N	-0.47329	-2.233861	-2.684221
C	-0.579519	-1.208593	0.693685
H	-0.105255	-2.106935	0.296281
H	-0.360761	-1.155283	1.760109
H	-1.660399	-1.269828	0.561684
N	-0.440365	1.266649	0.670979
O	0.213749	2.278976	0.441218
O	-1.432677	1.215991	1.39995
Br	3.438469	0.0	0.0
