17

C	-0.357078	0.087981	-1.502736
C	0.0	0.0	0.0
F	-1.66856	0.552468	-1.608728
H	1.092132	0.0	0.0
N	0.482524	0.927851	-2.302874
H	0.544585	1.821886	-1.824647
H	1.425309	0.539021	-2.272131
C	-0.343772	-1.273131	-2.087369
N	-0.364421	-2.345597	-2.5638
C	-0.567026	-1.190755	0.735961
H	-0.120793	-2.099692	0.330573
H	-0.304292	-1.128784	1.791534
H	-1.654158	-1.243223	0.646885
N	-0.439927	1.282603	0.635577
O	-0.017147	2.332327	0.14819
O	-1.197746	1.229468	1.604025
Br	3.417455	0.0	0.0
