17

C	-0.502543	0.029586	-1.443731
C	0.0	0.0	0.0
F	-0.038261	-1.131115	-2.041923
H	1.107987	0.0	0.0
N	-1.940716	-0.025834	-1.531052
H	-2.309954	0.835311	-1.146535
H	-2.200042	-0.074364	-2.51037
C	0.074422	1.145963	-2.237104
N	0.415901	2.012738	-2.952896
C	-0.471658	-1.231523	0.7531
H	-1.553696	-1.230181	0.896369
H	0.038961	-1.266326	1.714113
H	-0.188032	-2.113062	0.179658
N	-0.422931	1.22133	0.741234
O	-0.120481	1.282566	1.927051
O	-1.047144	2.103632	0.136458
Br	3.407299	0.0	0.0
