17

C	-0.498894	-0.020108	-1.440882
C	0.0	0.0	0.0
F	0.163204	0.89351	-2.217248
H	1.094983	0.0	0.0
N	-0.224983	-1.311622	-2.025673
H	-0.373254	-1.239081	-3.025957
H	-0.851806	-2.014351	-1.656011
C	-1.957255	0.305817	-1.515669
N	-3.126083	0.406327	-1.592496
C	-0.480806	-1.189551	0.80941
H	-0.145464	-1.07057	1.837063
H	-1.572419	-1.284194	0.801592
H	-0.016091	-2.092576	0.413285
N	-0.408487	1.274702	0.676958
O	-0.759966	2.221509	-0.027554
O	-0.322827	1.311964	1.901766
Br	3.436902	0.0	0.0
