17

C	0.0	0.0	0.0
C	-0.330841	-0.070655	-1.495289
Cl	1.792661	0.0	0.0
H	0.368607	0.583263	-2.012953
C	-0.365819	1.371845	0.589622
H	0.057967	2.160658	-0.034539
H	0.07551	1.432544	1.587135
H	-1.452132	1.40707	0.618828
C	-0.484196	-1.073427	0.860813
N	-0.606572	-1.88765	1.70111
N	-1.67437	0.402749	-2.015542
O	-2.375083	-0.40113	-2.607379
O	-1.792806	1.620927	-2.018545
N	-0.085193	-1.416885	-2.102863
O	-0.360822	-2.420981	-1.458968
O	0.364161	-1.394752	-3.249482
F	-2.463176	0.0	0.0
