17

C	0.0	0.0	0.0
C	-0.669199	0.003826	-1.363012
Cl	1.783658	0.0	0.0
H	-1.816717	0.076456	-1.012471
C	-0.442379	1.227978	0.808928
H	-0.056225	1.126343	1.824393
H	-0.037381	2.134802	0.361592
H	-1.533316	1.219631	0.794405
C	-0.428724	-1.202134	0.729647
N	-0.661729	-2.13299	1.407248
N	-0.460603	-1.226323	-2.165809
O	0.275838	-2.114536	-1.740039
O	-1.088158	-1.26814	-3.222298
N	-0.175396	1.132092	-2.192562
O	0.711199	0.904857	-3.016937
O	-0.672668	2.23654	-1.976552
F	-2.803063	0.0	0.0
