17

C	0.0	0.0	0.0
C	-0.640206	0.008072	-1.379122
Cl	1.78348	0.0	0.0
H	-1.77548	0.092445	-1.069015
C	-0.443353	1.234001	0.796508
H	-0.077887	1.130995	1.819099
H	-1.53401	1.234507	0.760379
H	-0.017031	2.133705	0.355151
C	-0.434307	-1.207717	0.713352
N	-0.694627	-2.183244	1.313338
N	-0.420063	-1.222107	-2.183534
O	0.326451	-2.102619	-1.761555
O	-1.042464	-1.262007	-3.243613
N	-0.110684	1.130606	-2.19956
O	0.790983	0.888762	-3.002419
O	-0.598735	2.242089	-1.997936
F	-2.776588	0.0	0.0
