16

C	-0.49276	0.030275	-1.432193
C	0.0	0.0	0.0
Cl	0.144587	1.496776	-2.255981
H	1.091231	0.0	0.0
H	-0.028605	-0.79708	-1.97207
N	-1.945093	0.072757	-1.532246
H	-2.275573	-0.809423	-1.153859
H	-2.203207	0.093884	-2.513161
N	-0.401442	-1.279856	0.610072
O	-0.735755	-2.222781	-0.129129
O	-0.33624	-1.3875	1.835647
C	-0.448483	1.154188	0.87317
H	0.066004	1.08743	1.830164
H	-0.142819	2.082822	0.391626
H	-1.530365	1.17474	1.031121
F	2.53301	0.0	0.0
