16

C	-0.515064	-0.011344	-1.423278
C	0.0	0.0	0.0
Cl	0.246935	1.407172	-2.326235
H	1.091802	0.0	0.0
H	-0.123362	-0.881182	-1.94083
N	-1.939612	0.008637	-1.502075
H	-2.297377	0.866308	-1.100327
H	-2.244001	-0.039261	-2.466503
N	-0.384689	-1.294657	0.607992
O	-0.712025	-1.31391	1.798599
O	-0.294996	-2.312124	-0.083609
C	-0.484632	1.15347	0.849821
H	-0.254849	2.086015	0.331388
H	0.065004	1.151552	1.789781
H	-1.554149	1.107201	1.080947
F	2.5436	0.0	0.0
