16

C	-0.607029	-0.048806	-1.389899
C	0.0	0.0	0.0
Cl	0.462723	-0.899571	-2.561497
H	1.089781	0.0	0.0
H	-1.512363	-0.665243	-1.383798
N	-0.819857	1.292489	-1.919518
H	-1.534317	1.743164	-1.356664
H	-1.176774	1.205811	-2.864233
N	-0.399145	-1.202566	0.751033
O	-0.711557	-2.220629	0.120753
O	-0.345322	-1.168037	1.984263
C	-0.327847	1.247754	0.801459
H	0.060978	2.102312	0.24987
H	-1.398938	1.383807	1.008483
H	0.205312	1.188278	1.747497
F	2.514588	0.0	0.0
