16

C	-0.47645	-0.03132	-1.44923
C	0.0	0.0	0.0
Cl	0.053166	1.488024	-2.254547
H	1.091597	0.0	0.0
H	0.054618	-0.82692	-1.963384
N	-1.896786	-0.194084	-1.696289
H	-2.141791	-1.131082	-1.394434
H	-2.410255	0.4691	-1.126102
N	-0.383868	-1.278692	0.622966
O	-0.503772	-1.330137	1.849732
O	-0.515953	-2.275668	-0.104825
C	-0.481847	1.155127	0.850059
H	-1.567096	1.156545	1.014029
H	-0.186166	2.08857	0.372565
H	0.007925	1.103471	1.820413
F	2.528413	0.0	0.0
