16

C	-0.448677	0.044745	-1.432352
C	0.0	0.0	0.0
Cl	-2.394542	-0.243777	-1.473919
H	1.093686	0.0	0.0
H	-0.438721	1.073023	-1.788594
N	0.220247	-0.803331	-2.301007
H	-0.208843	-0.873528	-3.211414
H	0.412752	-1.700693	-1.878333
N	-0.390211	-1.272727	0.63539
O	-0.880504	-1.254229	1.765924
O	-0.153404	-2.320024	0.021397
C	-0.464738	1.185512	0.810216
H	-0.083145	2.088617	0.326966
H	-1.55193	1.245779	0.899108
H	-0.02677	1.137634	1.806273
F	2.516701	0.0	0.0
