17
Coordinates from ORCA-job run
  C   -0.51091480989079      0.61505566104385     -0.12554151538111
  C   0.85044975635180      0.02027460763328     -0.45609401911569
  H   -0.39787912416577      1.69884428411324     -0.23834883553072
  H   1.28961438410384      0.45139807054170     -1.35184842541853
  C   -1.07466285618303      0.28961340569445      1.24146051332183
  H   -1.19270507635193     -0.78247883974678      1.37856374073237
  H   -2.04525571381060      0.76936835932026      1.35378769549902
  H   -0.41225436157991      0.68498032500250      2.01384389157800
  N   -1.45001300704749      0.22481667982149     -1.24645650341446
  O   -2.63755322528107      0.11015814919837     -0.97973838386411
  O   -0.94374045988719      0.11349412344292     -2.36047074850714
  N   0.85198632060250     -1.46393650647117     -0.66131418360726
  O   -0.15898813785438     -2.09283043639589     -0.36895216115764
  O   1.89831453612805     -1.91333517988601     -1.11336340703225
  N   1.77214112122376      0.33225409768528      0.68894048343384
  O   2.04722609050964     -0.56478226795568      1.47425265502105
  O   2.11423456313255      1.50810546695819      0.74927920344280
