17
Coordinates from ORCA-job run
  C   -0.50958579360334      0.42478979209023     -0.14683262059051
  C   0.65353090112288     -0.53026329064776     -0.03045315095117
  H   -0.16806543558697      1.36935312319470     -0.57002158669696
  H   0.37021298916522     -1.54182989628346      0.24711596472455
  C   -1.24057318558644      0.62286296883434      1.17142320231728
  H   -0.59775815894845      1.13028840585030      1.89186805518774
  H   -1.55569904615242     -0.33431644175368      1.59217638423328
  H   -2.11840386696885      1.24714708553452      1.00150213524136
  N   -1.48020933210848     -0.13501855742751     -1.14988320147832
  O   -1.46663230799571     -1.34900384109060     -1.34145369452618
  O   -2.24601478186325      0.67244438495421     -1.65957081017273
  N   1.58990801950129     -0.00548000840592      1.01256844127691
  O   1.62537383292240     -0.61673350491949      2.07487341693214
  O   2.19822980343072      1.02028636717247      0.72220773552639
  N   1.44839262532195     -0.62927134572389     -1.30392762917241
  O   2.35362069365766     -1.45497632995721     -1.27847037328367
  O   1.14267304369177      0.10972108857872     -2.23212226856769
