17
Coordinates from ORCA-job run
  C   -0.48694159315589      0.44984901865238     -0.14759224678677
  C   0.62100872518473     -0.56852998437271     -0.03043000930775
  H   -0.09803183308950      1.36455929720893     -0.59483869231012
  H   0.28527836097033     -1.55734916981999      0.26959743329676
  C   -1.18248440140033      0.71697645682738      1.17771145800512
  H   -1.54515719170948     -0.21129266697901      1.62423391420067
  H   -2.02547969388091      1.38750097840641      1.00790353560116
  H   -0.49916898231052      1.20098525333483      1.87665824623880
  N   -1.50518435892122     -0.07149487245553     -1.12375989275225
  O   -2.24195065127854      0.76768354878886     -1.62497009182889
  O   -1.55381700047446     -1.28611581382010     -1.30537442357099
  N   1.60200460822240     -0.08030130768394      0.98897149421174
  O   2.26211552920495      0.90477693108449      0.67203459511063
  O   1.62019803411169     -0.67498536988851      2.06110915024340
  N   1.38929228995686     -0.73496095790819     -1.31351647100608
  O   2.24375623538327     -1.61300769122919     -1.28753498823696
  O   1.11456192318662      0.00670634985389     -2.24920301110846
