15
Coordinates from ORCA-job run
  C   -0.23696236155285     -0.13278085442656      0.29177456600368
  C   1.13099195218626     -0.50751688620668     -0.29527043639199
  Br  -0.17796891848626     -0.51056758446270      2.22339710085121
  H   1.07678914696781     -0.39756600287913     -1.38529445242719
  H   1.35411762603100     -1.55639957318517     -0.08131646821647
  C   -1.31174890806759     -1.01518703402960     -0.32531829102055
  H   -2.28579667078263     -0.79986894384255      0.11682089943032
  H   -1.09183466487585     -2.07372008887109     -0.17240726115938
  H   -1.37002726442780     -0.81959537986760     -1.40147302927148
  C   -0.54260257463507      1.34405195841264      0.10481340038446
  H   0.20619186655972      1.97195690212819      0.58970924939225
  H   -1.52120516789469      1.58653756198712      0.52257158031880
  H   -0.55482387181578      1.57805281025337     -0.96550346170806
  C   2.22562072569294      0.32467297775556      0.19786511150726
  N   3.09925908510078      1.00893013723419      0.57963149230713
