15
Coordinates from ORCA-job run
  C   -0.22968509086453     -0.14559834454697      0.29113433742171
  C   1.13827348510191     -0.47343383590860     -0.32338198947674
  Br  -0.13500260033855     -0.56914219561932      2.21178595117825
  H   1.38805425938027     -1.52213882852983     -0.14026614942532
  H   1.06694059227565     -0.33581455547119     -1.40925979457280
  C   -1.29254482941669     -1.03734896655230     -0.33296647038095
  H   -1.04656915693300     -2.09391757749586     -0.20903296528052
  H   -1.37046069697361     -0.81708261057289     -1.40308417769850
  H   -2.26487906846585     -0.85534143747704      0.12750716080135
  C   -0.57168874549173      1.32789202016533      0.14491407145170
  H   -1.55001272614508      1.53723605968130      0.58085003774491
  H   -0.60328449486358      1.58779778264323     -0.91903144273410
  H   0.16883371957522      1.96090990305810      0.63583579900723
  C   2.22006722611667      0.37079113164621      0.17793106056370
  N   3.08195812704289      1.06619145497981      0.56606457140008
