15
Coordinates from ORCA-job run
  C   -0.18559443345392      0.14625749881972      0.32041629454432
  C   1.24135796628292      0.15508000194592     -0.24521225830067
  Br  -0.04544771092039      0.11650499420722      2.28430813079118
  H   1.79232733386323      1.01470223904009      0.14582784785310
  H   1.17729894305073      0.27178895790005     -1.33395206707068
  C   -0.95670161501775     -1.08684963497198     -0.12048242652123
  H   -1.02570289419657     -1.09838816417073     -1.21402731169255
  H   -0.46537716674426     -2.00426377485803      0.20695253188850
  H   -1.96812801400321     -1.07012856719373      0.28916081606463
  C   -0.89696199902130      1.43047389350724     -0.07877900771871
  H   -0.99249202455952      1.47029496174665     -1.16921096674042
  H   -1.89715531585938      1.46604973779047      0.35585856308322
  H   -0.34529049585576      2.31069126968250      0.25757399144538
  C   1.99007788350955     -1.06566592338723      0.04321305921305
  N   2.58078954292563     -2.05654749005817      0.25835280316087
