14

C	0.0	0.0	0.0
C	-0.437408	-0.145072	-1.467911
Br	1.947824	0.0	0.0
H	-1.185539	-0.918073	-1.540201
H	0.424058	-0.35077	-2.110223
C	-0.45809	1.151157	0.760292
N	-0.559483	2.098711	1.451097
N	-0.372896	-1.276556	0.756974
O	-0.495618	-1.187818	1.966477
O	-0.388936	-2.310215	0.101381
N	-1.043428	1.081689	-2.040112
O	-0.573061	2.167542	-1.712083
O	-1.896894	0.912319	-2.904564
F	-2.252586	0.0	0.0
