14

C	0.0	0.0	0.0
C	-0.213375	-0.078159	-1.522708
Br	1.956268	0.0	0.0
H	0.395735	0.701329	-1.978078
H	0.122838	-1.06147	-1.846166
C	-0.45043	1.212648	0.656721
N	-0.529401	2.263622	1.181604
N	-0.403922	-1.246084	0.752571
O	-0.510189	-1.13616	1.964582
O	-0.458181	-2.283771	0.10843
N	-1.561143	0.124028	-2.139729
O	-1.885705	1.286198	-2.360126
O	-2.141423	-0.873362	-2.552064
F	-2.189253	0.0	0.0
