14

C	0.0	0.0	0.0
C	-0.502814	0.082072	-1.4483
Br	1.95703	0.0	0.0
H	-0.107652	1.00282	-1.880865
H	-1.60473	0.065203	-1.298587
C	-0.454679	1.172513	0.73567
N	-0.587553	2.193859	1.303267
N	-0.437266	-1.265875	0.709349
O	-0.560953	-1.202889	1.921812
O	-0.516003	-2.266265	0.013136
N	-0.094261	-1.017959	-2.371929
O	-0.999426	-1.704613	-2.841597
O	1.092246	-1.127331	-2.682195
F	-2.503579	0.0	0.0
