14

C	0.0	0.0	0.0
C	-0.540192	-0.157198	-1.403979
Br	1.954961	0.0	0.0
H	-1.675867	-0.072557	-1.140984
H	-0.267965	-1.121998	-1.817937
C	-0.433329	1.189282	0.723657
N	-0.590008	2.168619	1.356494
N	-0.406662	-1.235657	0.815325
O	-0.494319	-2.290844	0.20239
O	-0.511976	-1.084841	2.021018
N	-0.100595	0.882516	-2.328716
O	0.16605	2.00392	-1.892351
O	-0.090407	0.581001	-3.525882
F	-2.554313	0.0	0.0
