11
Coordinates from ORCA-job run
  C   -1.23056466383751     -0.04514194061059      0.18648245893181
  C   0.21102076641535     -0.09022953292314     -0.30489463922256
  F   -2.05215707841249      0.40242917005041     -0.83007837856119
  H   0.23127756524491     -0.66200836483696     -1.24412582099761
  H   -1.31275847014290      0.62774320171100      1.04052316229405
  H   -1.55005839107482     -1.05100875053950      0.47194710331978
  N   1.02941310074195     -0.65784255781512      0.76668003869368
  H   2.01004405880902     -0.46746878116373      0.60510015444964
  H   0.90979607337263     -1.66361908624306      0.78464579907864
  C   0.68069548437643      1.26408804343498     -0.61635627907777
  N   1.07229155450742      2.34305859893571     -0.85892359890846
