11
Coordinates from ORCA-job run
  C   -1.21240746516964     -0.02179596276802      0.09973114594412
  C   0.25074176521411     -0.05502862820593     -0.31413765114434
  F   -1.59402808392091     -1.32219921172428      0.40289848353400
  H   0.32834772030956     -0.70179469437189     -1.20191358162680
  H   -1.84642454685144      0.34306618502042     -0.71002730500624
  H   -1.32961306278755      0.58915108301371      0.99587125208201
  N   1.04776347605768     -0.50026818166806      0.82224659722304
  H   0.70810175054211     -1.41039530315153      1.11016145817285
  H   2.01965484718298     -0.59813451040994      0.55528752969123
  C   0.65862246727210      1.29729169508891     -0.71387289275845
  N   0.96924113215101      2.37910752917661     -1.04524503611141
