11
Coordinates from ORCA-job run
  C   -1.19917850496014     -0.00067302579654      0.21125787964803
  C   0.21819342271927     -0.04075823145233     -0.33879456504541
  F   -1.58661703591082     -1.30912230922315      0.47015108184476
  H   0.19537547734746     -0.63359882667938     -1.26639484390881
  H   -1.89482411535950      0.42726571669403     -0.51244907772510
  H   -1.21705906540202      0.55572871737958      1.14946214186667
  N   1.10360830427900     -0.57366001196620      0.68949646514755
  H   0.76885128908347     -1.49367344335427      0.94998414531179
  H   2.04441457343813     -0.67243956343689      0.32824576853120
  C   0.62702436162426      1.32354468155934     -0.69398835200151
  N   0.94021129314088      2.41538629627580     -0.98797064366917
