11
Coordinates from ORCA-job run
  C   -1.25600124270977     -0.07922446637508      0.07909885669214
  C   0.20627285201587     -0.13883952027669     -0.34682536886574
  F   -1.78449536160995     -1.35075170783660      0.07394014829033
  H   0.24624942166195     -0.69978286155186     -1.28559623744384
  H   -1.34037565399706      0.32885441332188      1.09066626502703
  H   -1.82945304855402      0.53915294601603     -0.61544202213424
  N   1.00221842729936     -0.85026224815956      0.63869279167274
  H   1.09938783654084     -0.29422939483114      1.48009311960897
  H   1.93074505437780     -1.03282053221200      0.27970925851583
  C   0.66979227453624      1.24003140191748     -0.61801121518647
  N   1.05565944043874      2.33787196998753     -0.77832559617676
