11
Coordinates from ORCA-job run
  C   -1.15786690653180     -0.16577218825486      0.03532194421352
  C   0.29535658400835     -0.06061690960407     -0.41813218590089
  F   -1.27822237395661      0.42474431051127      1.28250344656138
  H   0.38050586412756     -0.56699450978206     -1.38692604596176
  H   -1.83805373462477      0.34138025097176     -0.65320015300957
  H   -1.43610580750961     -1.21915458760715      0.13157721529499
  N   1.26413312864812     -0.65547323207882      0.49240589970267
  H   1.11595529922931     -0.28399481531741      1.42331594482604
  H   1.12796627999843     -1.65852649997735      0.52880995415225
  C   0.64138401513887      1.35390600303858     -0.63265417420441
  N   0.88494765147214      2.48850217810011     -0.80302184567421
