15

C	0.0	0.0	0.0
C	-0.573091	0.042636	-1.419547
Br	1.946224	0.0	0.0
H	-1.674687	-0.033386	-1.286237
H	-0.308162	0.940232	0.460925
C	-0.499137	-1.169544	0.82983
H	-1.590743	-1.188751	0.763352
H	-0.085994	-2.114369	0.477045
H	-0.202899	-1.020265	1.869992
N	-0.132397	-1.141968	-2.232866
O	0.724557	-0.974223	-3.096895
O	-0.66152	-2.211469	-1.951751
C	-0.222846	1.271006	-2.122921
N	7.2e-05	2.280751	-2.680879
Br	-3.756682	0.0	0.0
