13
Coordinates from ORCA-job run
  C   -0.49029765998098     -0.07183023879352     -0.50541392997868
  C   0.45049807201629     -0.78092024444709      0.46830801620863
  Br  -1.70612218266414     -1.50999900437550     -1.26676070788356
  H   -0.17649271163947     -1.20732405761460      1.26782805315806
  H   0.93233021799842     -1.61044322517438     -0.05102513145176
  C   0.23308758565298      0.47319234484578     -1.65262501039059
  N   0.78843147240190      0.91092482157717     -2.59026970791426
  N   -1.20166078837382      0.95725441022757      0.15965168878717
  H   -1.79886291588641      0.57369639198192      0.88292005002247
  H   -1.75688353955698      1.51813194264604     -0.47409316433402
  N   1.45778314583807      0.17153222613426      0.89040564978777
  H   2.21447800630374     -0.29452078235111      1.37216249495029
  H   1.05471129789041      0.87130541534348      1.49791169903848
