13
Coordinates from ORCA-job run
  C   -0.52024192646646     -0.03961565760152     -0.49944011940604
  C   0.36736154665740     -0.71574853211450      0.55585335814281
  Br  -1.63272533184905     -1.57286168400039     -1.28869518270099
  H   -0.29973926404983     -1.11296653860513      1.32680695031525
  H   0.85357125558851     -1.57191603783074      0.07302493862507
  C   0.28818015161345      0.43478780149163     -1.62296518511089
  N   0.98663487923684      0.82091207620703     -2.48555898360317
  N   -1.29412659409839      1.00430157986693      0.01982622394868
  H   -1.92911348605133      1.41221276464253     -0.65213446852973
  H   -1.77353345071095      0.74875982281539      0.87187851163672
  N   1.26568715545067      0.25547033564060      1.15458061631698
  H   2.04021689514942      0.45228877741812      0.53252506963991
  H   1.64682816952972     -0.11462470792994      2.01529827072538
