13
Coordinates from ORCA-job run
  C   -0.57048576241369     -0.02849164158753     -0.48701813130411
  C   0.30832232145691     -0.19329819354255      0.76719364730145
  Br  -1.11710922453129     -1.80957671129230     -1.10138540429416
  H   -0.28105205087080     -0.75586969996111      1.49651805023318
  H   0.44641802644273      0.82544065231986      1.16481998227713
  C   0.23763768030630      0.58652018390686     -1.54374796714409
  N   0.93237204364719      1.12956633658555     -2.32018007418919
  N   -1.77027941833379      0.75266357488543     -0.29697556400955
  H   -2.32657869840630      0.35485889022151      0.45143762687297
  H   -1.52923102322516      1.71075724850817     -0.06569218217014
  N   1.53878618602542     -0.89425284783889      0.47628327982846
  H   2.26745484765460     -0.25646691418915      0.18659275768313
  H   1.86474507224789     -1.42085087801584      1.27315397891492
