15
Coordinates from ORCA-job run
  C   -0.13613305337684      0.60301049037607     -0.53431220710636
  C   -0.44848050212133     -0.81084858590506     -0.01569797254087
  Cl  -0.64644289950297      0.79177146160186     -2.18009900847575
  H   -1.49121236629062     -0.97832773254570     -0.30043025549542
  N   -0.87958958691788      1.61122329623231      0.34959929640995
  O   -0.21014701543589      2.42842355066687      0.96375640375253
  O   -2.09160795550574      1.45898936185875      0.36948531145242
  N   1.34695334252600      0.93209062020158     -0.39455167654287
  O   1.79467340742003      1.82038544817804     -1.09828567824656
  O   1.94218478879473      0.28788153142278      0.46319254299690
  C   -0.39238831759417     -0.86492178304023      1.45649810555612
  N   -0.36939760028095     -0.97287239604283      2.62616377783477
  N   0.38784798339872     -1.76499991486109     -0.70449087608711
  H   1.26904769663194     -1.88316577757489     -0.22194804398378
  H   -0.07630792174503     -2.65963957056846     -0.77687971952397
