15
Coordinates from ORCA-job run
  C   -0.16922487664912      0.73102213478149      0.34706439146028
  C   -0.47651452259484     -0.76783549634824      0.23212246467917
  Cl  -0.88930741289812      1.42384661123290      1.76786341616224
  H   -1.56358252699411     -0.82218196157497      0.34813952287137
  N   1.32682002095438      1.02849374319748      0.32565334267789
  O   2.04934232730510      0.10777930500505     -0.04193399931664
  O   1.66662186321810      2.15656458535811      0.63875023265221
  N   -0.75036248795127      1.37877959211483     -0.91780221281242
  O   0.04183296652136      1.84913807616857     -1.71668439470745
  O   -1.96386352400505      1.30587940324413     -1.00801075567896
  C   0.13404967270740     -1.48796423933472      1.36304381591234
  N   0.61104245917402     -2.11876534788670      2.23170581224951
  N   -0.14664238841891     -1.24988118012979     -1.08725331990983
  H   0.83554957448643     -1.47526834128558     -1.16174408103017
  H   -0.70576114485537     -2.05860688454254     -1.32191423520954
