15
Coordinates from ORCA-job run
  C   -0.12210953254690      0.52420677195185     -0.50054718865311
  C   -0.46567436278831     -0.86244538212991      0.10718094473546
  Cl  -0.56332573026578      0.57084299793329     -2.18361925247890
  H   -1.53570958732150     -0.97579210035543     -0.10233808575325
  N   -0.90956073371504      1.58205931882598      0.28028627533439
  O   -0.27276667883710      2.29017205938935      1.04671568547896
  O   -2.11884807513310      1.54540348469121      0.11237958798558
  N   1.34719375825718      0.89735094655179     -0.35396868475196
  O   2.01680767961647      0.17513301834543      0.37769841333354
  O   1.71687142608815      1.89314553883163     -0.95403701545285
  C   -0.31848515439693     -0.81255055898508      1.56730088836066
  N   -0.24418447571214     -0.77213608995743      2.73815893202887
  N   0.22741839746150     -1.99600650298569     -0.43541348459865
  H   1.22449908346842     -1.92832291842970     -0.28570865783177
  H   0.01887398582508     -2.13006058367729     -1.41508835773698
