15
Coordinates from ORCA-job run
  C   0.20203584313618      0.50001655913677     -0.44246866687122
  C   -0.05773684229462     -0.70905577571312      0.45693123700262
  Cl  0.67254090816677      0.05645613646741     -2.04661066162701
  H   -0.24751784478223     -0.30843859164653      1.45520990141514
  N   -1.09085705872256      1.33381123672752     -0.43325462125429
  O   -1.37188679226288      1.74663267185028      0.68464039321655
  O   -1.69825212036334      1.49587536478881     -1.47189057902485
  N   1.24298177720997      1.44377897345217      0.15799490888516
  O   1.74253403116177      1.10795277548058      1.22433934321370
  O   1.45240369078293      2.46503620556858     -0.47867744678664
  C   1.13259919966716     -1.57192307089037      0.51223697146921
  N   2.02106198371128     -2.34031234952726      0.53316118332106
  N   -1.26333417807715     -1.35362242701318     -0.02268557006411
  H   -1.07223181833429     -1.93166138645614     -0.83206780752334
  H   -1.66234077899900     -1.93554632222550      0.70214141462803
