15
Coordinates from ORCA-job run
  C   -0.17583928566926      0.72021193837882      0.36408398204724
  C   -0.47640536007960     -0.77608108980504      0.20605827658598
  Cl  -0.91479116960419      1.37297859166833      1.79423390284293
  H   -1.56471786285673     -0.83641728718257      0.30655797480572
  N   1.31870365755752      1.02368153028786      0.36760996553800
  O   2.04937839070204      0.11540811902900     -0.01457074453519
  O   1.65014205424777      2.14522904836769      0.71196768748809
  N   -0.74565876193761      1.39961252447581     -0.88992574163083
  O   0.05310191442300      1.89712868438016     -1.66543535378015
  O   -1.95764474309113      1.32319448448200     -0.99645090973194
  C   0.12263903638529     -1.52322352271832      1.32540758101000
  N   0.59325579533763     -2.17176644958308      2.18442781715473
  N   -0.12795334024662     -1.22197332477967     -1.12145689999795
  H   0.85591683971029     -1.44278788726022     -1.18845805850186
  H   -0.68112716487840     -2.02619535974076     -1.38404947929477
