15
Coordinates from ORCA-job run
  C   -0.10933469898004      0.78245872150606      0.22154424765665
  C   -0.45089747413195     -0.71245508506093      0.38079463218901
  Cl  -0.49901850091029      1.70933227311926      1.63828225367771
  H   -1.54771225071801     -0.76258409172807      0.41844350880906
  N   1.37951708402517      0.89287047049216     -0.11921490306029
  O   2.13270150170946      0.65752502178199      0.81101684378183
  O   1.66299507629358      1.13429587757911     -1.28069138674086
  N   -0.86354344333466      1.37203770749919     -0.97077750523773
  O   -0.72443311119312      2.56918645510121     -1.15464761351769
  O   -1.53872029617814      0.59270053839767     -1.63607789732087
  C   0.05765061674619     -1.21224380300037      1.66075861188085
  N   0.41571036062845     -1.69152635496280      2.67082044331239
  N   0.14869103439815     -1.45230020685537     -0.71208448283790
  H   -0.48277495276069     -1.49583618302520     -1.49926321267808
  H   0.41916905440590     -2.38346134084391     -0.42890353991409
