15
Coordinates from ORCA-job run
  C   0.21548126944170      0.64949397929538      0.13798423332299
  C   -0.28359921187358     -0.79384338207094      0.05974157727131
  Cl  1.36179851098980      0.89698672855803      1.40931010265747
  H   -1.06493770683310     -0.80287893494652     -0.70357005313372
  N   0.80956461838747      0.97802962404505     -1.24266425639425
  O   1.99092225427927      1.24355025397210     -1.33080665944290
  O   -0.02524683465208      0.91701242981833     -2.13617545549458
  N   -0.93558208068050      1.64373020142632      0.28086519957801
  O   -2.06422449356862      1.17455281950935      0.35433566243532
  O   -0.61274402009105      2.82183660778145      0.27865395744651
  C   -0.87309945437580     -1.20370902730640      1.34382801982184
  N   -1.28403822261498     -1.61504998339361      2.36470786351971
  N   0.82300249600474     -1.60984585959622     -0.39723777714808
  H   0.48118945953959     -2.48162431051560     -0.77981931934023
  H   1.46151341604714     -1.81824114657673      0.36084690490060
