15
Coordinates from ORCA-job run
  C   0.17890920527198      0.58846740752168      0.20410365879106
  C   -0.35550833656141     -0.85484016079130      0.05661030682310
  Cl  1.20781142304062      0.79103172920707      1.57831563631672
  H   -1.09811365121919     -0.82210854997170     -0.74473081496289
  N   0.90993675438776      0.90548046821151     -1.10556629064043
  O   0.16348653136291      0.89371576337641     -2.07881279716014
  O   2.11493356256909      1.08026166191596     -1.08978166620625
  N   -0.94481614923767      1.62522379095154      0.24533096038557
  O   -2.09051916691766      1.19426605755098      0.25023227473783
  O   -0.58095018253566      2.79139347610905      0.24701756677934
  C   -1.02960567271058     -1.24440597543099      1.29932880884362
  N   -1.53458603322640     -1.58346570876972      2.30313905682801
  N   0.65271519605369     -1.82440715659982     -0.28528434167720
  H   1.43366009868482     -1.81915077348649      0.35729361065217
  H   0.97364642103769     -1.72246202979418     -1.23819596951052
