15
Coordinates from ORCA-job run
  C   -0.12725579012988      0.66342622006953     -0.46026545388321
  C   -0.47146736866924     -0.79123538782139     -0.09869156540055
  Cl  -0.65949690002130      1.05172347137137     -2.06348830418742
  H   -1.52345829918594     -0.89715775551680     -0.37901327129898
  N   -0.82649356017461      1.58407423035863      0.54702152551972
  O   -2.04204770646568      1.46453681001479      0.57249052949674
  O   -0.12336365415764      2.30513137648346      1.23896598043032
  N   1.36673554579081      0.93481556105201     -0.31353121260978
  O   1.82786278651197      1.88549247102815     -0.92042251558366
  O   1.95752923701949      0.18124205433427      0.45333987628013
  C   -0.39228033753939     -1.01377876505760      1.35656563974390
  N   -0.35431518121335     -1.25540575761685      2.50568514010809
  N   0.32504286567617     -1.68297608936963     -0.90758200078733
  H   -0.16622752332101     -2.55033607167945     -1.07289686779503
  H   1.21023588587960     -1.87955236765050     -0.45917750003294
