15
Coordinates from ORCA-job run
  C   -0.13399933384335      0.66747187205948     -0.45228050369018
  C   -0.46572990463115     -0.79370845340244     -0.10591869555260
  Cl  -0.67360773556550      1.06922896665986     -2.04968140091183
  H   -1.51752155178866     -0.90504312040784     -0.38482329506228
  N   -0.83739251003127      1.57184400654900      0.56670854898625
  O   -2.05167375135535      1.44052406606926      0.59636199848927
  O   -0.13809373128065      2.29344944617679      1.26199135513985
  N   1.35851571814343      0.94868030562728     -0.30641751614089
  O   1.81081167490875      1.90886147407327     -0.90494590893117
  O   1.95682033001200      0.19179413761920      0.45123811492403
  C   -0.38081359752479     -1.03219642743929      1.34645533897898
  N   -0.33886560358686     -1.28721231018341      2.49254537588386
  N   0.33590759369454     -1.66995141081322     -0.92667611114399
  H   1.22363383426074     -1.86464305152392     -0.48249506088305
  H   -0.14899143141190     -2.53909950106402     -1.10106224008624
