15
Coordinates from ORCA-job run
  C   -0.21396523720163      0.71020763007520      0.36327601312574
  C   -0.46685848248183     -0.79077724961043      0.16997462825640
  Cl  -1.04849548940040      1.32500794923996      1.75721053310070
  H   -1.55711860074866     -0.87979098180869      0.20935450458522
  N   1.26938155322394      1.05081944463259      0.45397734999623
  O   2.04315127539640      0.16702465361067      0.10014157650099
  O   1.55258865807381      2.17510959264398      0.83114904851755
  N   -0.72999282654586      1.39233022783879     -0.91282340693894
  O   0.09783622089728      1.92043772767430     -1.63576874226868
  O   -1.93169850503549      1.28696016020698     -1.08851698026766
  C   0.08899573570808     -1.53795327433720      1.31135160035526
  N   0.52812765959283     -2.18603198024514      2.18723046421947
  N   -0.03475005978979     -1.20914825853054     -1.14150893267830
  H   -0.55360862836768     -2.02120000498971     -1.44619601519753
  H   0.95640672667901     -1.40499563640075     -1.15785164130644
