15
Coordinates from ORCA-job run
  C   -0.14935057046472      0.73391497662773      0.34982764445246
  C   -0.47296481541667     -0.76302202257880      0.25532373377110
  Cl  -0.80773130704262      1.44035712391702      1.79363902142642
  H   -1.55497727020985     -0.80773896179606      0.41460662956919
  N   1.34656852734460      1.01903598683537      0.26793648250299
  O   2.04665238383696      0.09062100888975     -0.12304995951739
  O   1.70747355812603      2.14627457904306      0.56007106198026
  N   -0.77484074047412      1.37959675972166     -0.89519482235613
  O   -1.99136531289573      1.31498574806845     -0.93785941048816
  O   -0.01096486032037      1.84063442662735     -1.72638935649907
  C   0.17632032510432     -1.48212285396187      1.36505533525676
  N   0.68407155829967     -2.11129130933393      2.21731995826006
  N   -0.19960111241328     -1.25458656155175     -1.07341163567625
  H   0.77680232063699     -1.48966807533802     -1.18528633597181
  H   -0.77509268411120     -2.05899082516993     -1.28158834671042
