15
Coordinates from ORCA-job run
  C   -0.12430416538982      0.78378957701830      0.22952494276975
  C   -0.46909643784455     -0.70171124899937      0.39954234514393
  Cl  -0.70473423563046      1.73143727409231      1.56450365972019
  H   -1.54221040440956     -0.69856939816278      0.61511156529430
  N   1.36973825744533      1.02200746963202      0.03340290525436
  O   1.76141738448382      2.17198684728751      0.13359450675912
  O   2.03522178493109      0.03034666446275     -0.24677415349846
  N   -0.80120998013171      1.22838139387077     -1.07502652487351
  O   -2.01865530769723      1.17364531861318     -1.05424295378611
  O   -0.07266315305565      1.54218579629694     -2.00143180975779
  C   0.22728118990999     -1.23876634612135      1.58157855747518
  N   0.76985991166618     -1.72602746358596      2.50254485088528
  N   -0.26841981600146     -1.41161172285631     -0.84036255575132
  H   0.69921951282360     -1.67734902708510     -0.95997496688498
  H   -0.86044454109958     -2.22974513446288     -0.88299036874993
