15
Coordinates from ORCA-job run
  C   0.26417164803226      0.62846855645222      0.14947905168067
  C   -0.33737890994976     -0.77360652004361      0.04549083893585
  Cl  1.45675937183596      0.75828903515369      1.39555679685773
  H   -1.13583700510478     -0.70566536031068     -0.69678504493116
  N   0.84553202800325      0.95479651926232     -1.23744874750610
  O   2.04015452300189      1.13935843752322     -1.34983861979248
  O   -0.01339544112273      0.97778996967583     -2.10964193661553
  N   -0.81003880765381      1.69605560308387      0.35057619940568
  O   -0.40517722541482      2.84831834076882      0.37210659089789
  O   -1.96685903687713      1.30489294048765      0.44097883624785
  C   -0.92263547856311     -1.17764477534723      1.33337066292039
  N   -1.33563977978634     -1.58735502587364      2.35400927381452
  N   0.69699155869148     -1.65167165438912     -0.46231779741682
  H   0.28516962192238     -2.48578493706801     -0.85936454472778
  H   1.33718293298522     -1.92624112937535      0.27282844022928
