15
Coordinates from ORCA-job run
  C   0.31983254827073      0.53990770532144      0.08347147991719
  C   -0.35578470087316     -0.85543557266347      0.04510283850366
  Cl  1.76361967964933      0.56083769975506      1.03465484077835
  H   -1.19229172921338     -0.75586239008053     -0.65266119127188
  N   0.63862894167459      1.03615239258936     -1.32831703220217
  O   0.42268081848625      0.26584820717500     -2.25649877128842
  O   1.07038922497406      2.17633104616524     -1.39613811341967
  N   -0.71436183653336      1.55667840585271      0.58505874210221
  O   -1.67351296530306      1.65654719212771     -0.17315922503084
  O   -0.53125759311390      2.11826692378102      1.64865153718538
  C   -0.90085805507207     -1.09909705164019      1.38685588570412
  N   -1.31774325307155     -1.28954705841135      2.46774508189158
  N   0.45934037256976     -1.96405550907361     -0.36311133664619
  H   1.25988887244397     -2.09114153870237      0.24125044385235
  H   0.75242967511178     -1.85643045219602     -1.32390518007565
