15
Coordinates from ORCA-job run
  C   -0.11514666472817      0.77636340823689      0.24110755061499
  C   -0.45477236133216     -0.72313320749417      0.35654588762019
  Cl  -0.52712309019357      1.66354864452157      1.67676965370856
  H   -1.55196062160398     -0.77569247248156      0.37859347263293
  N   1.37751531301409      0.90030864576904     -0.07684368464138
  O   2.11962404036352      0.64421507062867      0.85679735498349
  O   1.67449111120500      1.17113899739272     -1.22852060227681
  N   -0.85493467075482      1.39547740957743     -0.94564479382447
  O   -0.72081119734902      2.59820935373004     -1.09332291194939
  O   -1.51455123880759      0.63140054884652     -1.64353251627506
  C   0.03942977900985     -1.25500245762483      1.62926499485674
  N   0.39782123882421     -1.76533406247499      2.62388808594501
  N   0.16171391419033     -1.43410493832633     -0.74576589194943
  H   -0.45517574347485     -1.45253454980343     -1.54532664321635
  H   0.42388019163719     -2.37386039049757     -0.48400995622902
