15
Coordinates from ORCA-job run
  C   -0.21789243083336      0.56375823401421     -0.55496865747630
  C   -0.14328001865631     -0.90824669958564     -0.10294475948669
  Cl  -1.45299430409962      0.83205913163568     -1.74654132134251
  H   0.22362903556650     -1.46656892133816     -0.97520969640727
  N   -0.45047077786080      1.42816286557658      0.68777202934598
  O   0.51114143239041      2.04210775703012      1.11913025479132
  O   -1.57370689231371      1.35231388542445      1.15718132240375
  N   1.12595810825678      1.00746188515903     -1.13528414494902
  O   1.16613524598699      2.13682297063997     -1.59248330091280
  O   2.04234831793746      0.19272660889950     -1.08863692151962
  C   -1.48495526772123     -1.40819785244434      0.20835374442008
  N   -2.52069505266400     -1.89880099891997      0.46258812881650
  N   0.70084635699047     -0.99983291777774      1.07193683775506
  H   1.66675152579950     -1.12628117708945      0.80459037472738
  H   0.40718472122093     -1.74748477122425      1.68451610983416
