15
Coordinates from ORCA-job run
  C   0.30549513527219      0.58933420463932      0.21411949539592
  C   -0.37873088016404     -0.75513842439682     -0.03580144952842
  Cl  1.55188233907023      0.49758152257281      1.40981135113197
  H   -1.19998187054727     -0.55287645521130     -0.72699958688994
  N   0.84906992245350      1.05915023392607     -1.14667584797498
  O   -0.04080853476785      1.23506055702350     -1.96897989809565
  O   2.04654837572538      1.19920849226048     -1.28925142469481
  N   -0.69719183438779      1.67681828381992      0.59623281382408
  O   -0.22552610669716      2.79315973982491      0.74977555158058
  O   -1.87131536385788      1.33957450627669      0.68134891338672
  C   -0.93591581822626     -1.28763157297025      1.21730513170310
  N   -1.33284986785179     -1.79876066024454      2.19785306921198
  N   0.58375577112756     -1.61415704820418     -0.69546174900058
  H   0.10994355356546     -2.36950762277054     -1.17319750893573
  H   1.23562517928573     -2.01181575654606     -0.03007886111423
