15
Coordinates from ORCA-job run
  C   -0.16413356175119      0.57371081037163     -0.44225228792882
  C   -0.50319630859296     -0.85896167547487      0.04885064265765
  Cl  -0.62338769068044      0.76051450943329     -2.11093414770117
  H   -1.56067684240988     -1.00034930100357     -0.19268239595070
  N   -0.88486826698632      1.65358105807143      0.35265676631267
  O   -0.37765749890882      2.76431487449674      0.34419590200778
  O   -1.94233171653390      1.30918328498277      0.86471423589004
  N   1.32734248815277      0.81264427356078     -0.24237832045430
  O   2.05749150804268      0.81740665092845     -1.21989990147200
  O   1.64613815816635      0.90434340735719      0.93726010110806
  C   -0.36795644953595     -0.97254949808005      1.50524487102308
  N   -0.28320978912134     -1.11408297151501      2.66749300959003
  N   0.26693272891621     -1.89823954108497     -0.58610460530734
  H   1.24623815272204     -1.86392855352544     -0.33436619317987
  H   0.16427508852075     -1.88658732851835     -1.59179767659510
