15
Coordinates from ORCA-job run
  C   -0.01530523905030      0.79276775589663      0.23266261211403
  C   -0.48242346790905     -0.65006517886826      0.46568975607499
  Cl  -0.32331256726879      1.79652737285943      1.61644032757582
  H   -1.51465619793673     -0.53863877504407      0.81214185052983
  N   1.45772950475175      0.87947852087210     -0.15421111250766
  O   1.96537482718902      1.98761039368148     -0.13617731565610
  O   1.98680117462734     -0.17713289931353     -0.48360088582166
  N   -0.80474662918632      1.30118404741855     -0.98263995456946
  O   -0.17369937639586      1.53365260345480     -1.99975097473768
  O   -2.00860295061022      1.37508706306474     -0.80509726939614
  C   0.29885298926765     -1.25409070349237      1.55878117645465
  N   0.90427750000996     -1.79379679620049      2.40845885560906
  N   -0.50776003631514     -1.37757351008982     -0.78012687196500
  H   0.40425940445948     -1.74700577616016     -1.00957952217650
  H   -1.18478893563279     -2.12700411807903     -0.74199067152818
