15
Coordinates from ORCA-job run
  C   -0.12019874009539      0.60929048092243     -0.53169482388282
  C   -0.47130180205025     -0.79709554348637     -0.01848293132402
  Cl  -0.62945518864996      0.82029323191440     -2.17487111367146
  H   -1.51931372556057     -0.93375905902316     -0.30060171230005
  N   -0.83152948730969      1.63457300727787      0.35917673880091
  O   -2.04752413429517      1.51835313192374      0.38122621355226
  O   -0.13674911403645      2.42703428234603      0.97759616810987
  N   1.37234537540891      0.89503606187855     -0.39410103240161
  O   1.94914545553762      0.23311788946785      0.46260966555735
  O   1.84474435955240      1.77052391676120     -1.09762123995370
  C   -0.41365541596161     -0.86062350571996      1.45330471385099
  N   -0.39484765342551     -0.97657060883487      2.62229428841366
  N   0.33674410178842     -1.77103117696751     -0.71384493018115
  H   -0.15333393903252     -2.65135202879276     -0.79120628891276
  H   1.21392990812975     -1.91779007966742     -0.23178371565747
