15
Coordinates from ORCA-job run
  C   -0.14943187033363      0.71297880052221      0.25507679358363
  C   -0.52533666255507     -0.79516616426082      0.37586358350686
  Cl  -0.79612405685752      1.62525807588683      1.58330782546660
  H   -1.60221512690231     -0.79475624510520      0.56901636321475
  N   1.36570672753331      0.85726229959271      0.15619552076506
  O   1.97229063153709      1.40113707516428      1.06124974473228
  O   1.82982391806922      0.34091574799228     -0.85629015705535
  N   -0.70722233720488      1.30944530167059     -1.03096519418709
  O   -1.72172170995005      0.78022313908350     -1.46903138619886
  O   -0.13209626336301      2.29405342282878     -1.46802985658205
  C   0.15898001202412     -1.29551552250513      1.57685469384980
  N   0.73308872650076     -1.69563794566375      2.51966267809769
  N   -0.26849301570021     -1.66412394567402     -0.73562861238515
  H   -0.86058363110623     -1.42784470867680     -1.51949100975372
  H   0.70233465830841     -1.64822933085546     -1.01679098705445
