15
Coordinates from ORCA-job run
  C   0.24770345131637      0.57260107989733      0.17246689467874
  C   -0.41112322491069     -0.82479453078919      0.11297715100192
  Cl  1.44755518339556      0.70139013070751      1.41007994412485
  H   -1.23919223428211     -0.73904479717763     -0.59519127230860
  N   0.83889835618207      0.82403239148477     -1.22063477048579
  O   2.04571496226730      0.92019618709439     -1.34895750492353
  O   -0.01697762750606      0.85360069702558     -2.09884494938215
  N   -0.77880296244814      1.69516833468708      0.33028471401949
  O   -0.32711073670999      2.82903801148790      0.27629756589376
  O   -1.94698026149306      1.35634145314719      0.46908272215705
  C   -0.96100679794421     -1.14905754338914      1.43326973369443
  N   -1.36882021057213     -1.43606083135653      2.49582147558224
  N   0.47016425378713     -1.87338504920862     -0.33024615143421
  H   1.32261933480634     -1.92390003013527      0.21173942384514
  H   0.67735851411160     -1.80612550347536     -1.31714497646333
