15
Coordinates from ORCA-job run
  C   0.26315859138564      0.62588375257382      0.16670320872357
  C   -0.33920298762541     -0.77261611137858      0.02569966149820
  Cl  1.42580196739548      0.73159926508025      1.44302616691113
  H   -1.11876221745767     -0.69075511102549     -0.73518851145372
  N   0.87802258989623      0.97183124249692     -1.20021362547806
  O   0.04046188039006      1.01061865866711     -2.09254926996155
  O   2.07576022430843      1.15335286548601     -1.28171494348505
  N   -0.81247628588915      1.69311648913956      0.35933997537444
  O   -0.40517478482815      2.84388380575861      0.40608032146085
  O   -1.97202649123731      1.30409109363792      0.41850600450699
  C   -0.95880993542190     -1.19625160657971      1.29088972211252
  N   -1.40693526586263     -1.62067292651551      2.29042894027356
  N   0.70488736993058     -1.64550733986869     -0.47190759122560
  H   0.29968810862173     -2.47152817974804     -0.89245892192478
  H   1.32560723639407     -1.93504589772421      0.27435886266748
