15
Coordinates from ORCA-job run
  C   -0.16610389363797      0.56307584318893     -0.45762218581134
  C   -0.51516031224679     -0.85314196720784      0.07215579211109
  Cl  -0.72744409751069      0.74416980598296     -2.09557694116696
  H   -1.56963271401302     -0.99420731669380     -0.18215634536891
  N   -0.81662607948129      1.65433703867745      0.38495592946958
  O   -0.17036547628999      2.67322692994170      0.57714286119430
  O   -1.95922900293529      1.40395122931814      0.74262235613949
  N   1.34022982892413      0.78879292964578     -0.36251834492427
  O   1.95524932801929      1.13763061057525     -1.35528841451323
  O   1.78658075050418      0.56411020555771      0.75654585225629
  C   -0.41766856625165     -0.92527063555088      1.53442573626684
  N   -0.37562378716858     -1.02668818821173      2.70307599382554
  N   0.25373021756129     -1.91418762249981     -0.52370076929115
  H   0.15028019251712     -1.94414928721535     -1.52891622109418
  H   1.23078361200924     -1.87264957550850     -0.26514529909309
