15
Coordinates from ORCA-job run
  C   -0.13170326173877      0.67122970726996     -0.44724481547996
  C   -0.48071736087825     -0.78552518306183     -0.09959103027251
  Cl  -0.69627297435997      1.08802132152108     -2.03217158480257
  H   -1.53942407973061     -0.87874581401627     -0.35812472778079
  N   -0.79925010241377      1.58371089714837      0.58856744151932
  O   -0.07427364839278      2.29147084084698      1.27156501419105
  O   -2.01470960760118      1.47255829365390      0.64219522086907
  N   1.36791643968169      0.92697813720692     -0.33025323813955
  O   1.82465190120513      1.88098918566970     -0.93515268416073
  O   1.96811445646744      0.15792842096659      0.41356840085539
  C   -0.37224204684265     -1.03071940486097      1.35017111425771
  N   -0.31328612297135     -1.29039111414972      2.49443358970810
  N   0.29059041070532     -1.67154804459003     -0.93874489344440
  H   1.18287133505994     -1.88337043598507     -0.51172815702287
  H   -0.21226533819020     -2.53158680761961     -1.10748965029727
