15
Coordinates from ORCA-job run
  C   0.36736497478643      0.50705310695493      0.09271648449981
  C   -0.42761569921698     -0.82267661080261      0.02590797288339
  Cl  1.83024263566500      0.36941682566516      1.00426401337133
  H   -1.26939773971240     -0.62680354739612     -0.64463986277697
  N   0.69349572326501      1.02462024281392     -1.30958832253602
  O   0.38738310357786      0.31034137652737     -2.25700475734440
  O   1.22271891981307      2.12424504443679     -1.35068891878150
  N   -0.56207272647645      1.59027834181416      0.65687337160082
  O   -1.52678624498662      1.79996393993280     -0.07125850339835
  O   -0.30547852400468      2.09419385127823      1.73402767359402
  C   -0.95879186583505     -1.06672298360031      1.37317249288086
  N   -1.36486796444285     -1.25927362149272      2.45780607792082
  N   0.27783182079351     -1.98189825629350     -0.44203334901508
  H   1.07894194145920     -2.19900527571514      0.13562554583208
  H   0.55603164531497     -1.86473243412296     -1.40617991873077
