15
Coordinates from ORCA-job run
  C   -0.07139995366382      0.78700488920443      0.22433606354087
  C   -0.44991778072285     -0.69567133724828      0.41171934189445
  Cl  -0.34674521849786      1.72974696998878      1.65749829328147
  H   -1.54315166163776     -0.70957701003180      0.51837054786292
  N   1.39679251043777      0.84964879837665     -0.20571381442390
  O   2.19704780822680      0.59813950214477      0.68009087668857
  O   1.61703942275211      1.07266823873498     -1.38444330702636
  N   -0.87798192638476      1.39623887662913     -0.92295630019692
  O   -1.62365789275549      0.63871977548054     -1.53621396672500
  O   -0.70628611941629      2.58615876128616     -1.12593242894320
  C   0.12304148520923     -1.20875508813792      1.65869942642271
  N   0.54060440123733     -1.70390290687358      2.63774373180295
  N   0.05446433601023     -1.45730467037607     -0.71391506221927
  H   0.32057198402154     -2.39326324335575     -0.44278573644374
  H   -0.63042139481619     -1.48985155582204     -1.45549766551556
