15
Coordinates from ORCA-job run
  C   0.18656821647103      0.47124112693527     -0.47942687455806
  C   -0.05920815295751     -0.69111914668014      0.48322986021017
  Cl  0.41646481268289     -0.04570217488064     -2.11379545446197
  H   -0.08957626228152     -0.25428450149114      1.48395856019378
  N   -1.02293545675439      1.41291789744136     -0.34011214999798
  O   -1.12719335083463      1.87441830923286      0.78902884498262
  O   -1.73982853671822      1.60147825407747     -1.30149391967255
  N   1.36762295099117      1.33486499625185     -0.04005658182811
  O   1.96421631555491      0.98183436322197      0.96938250681258
  O   1.58164539639346      2.31933182219073     -0.73095252835464
  C   1.05356198216025     -1.65163993508598      0.42054813663833
  N   1.87188308822225     -2.49211641667821      0.35635910705561
  N   -1.36424125356918     -1.23978046621643      0.17494011099097
  H   -1.71566345860588     -1.77016700891473      0.96125975390129
  H   -1.32331629075464     -1.84927711940425     -0.63286937191206
