11
Coordinates from ORCA-job run
  C   0.73305202144673     -0.45554466866236     -0.15876416421088
  C   -0.45863616048462      0.48465677106169     -0.11439616250363
  Cl  0.18427740196136     -2.12647989773554     -0.44877999717373
  H   -0.12514686073715      1.51846390808324      0.00379660965092
  H   1.23592925476384     -0.44938237472414      0.80938737061438
  H   -1.09383795480924      0.38320454814206     -0.99177925934823
  C   1.65929523131297     -0.03286293948757     -1.20328424347652
  N   2.41125843249864      0.33054749025355     -2.02863634485176
  N   -1.30701270822376      0.17805630335713      1.08012457718901
  O   -2.52149000176359      0.21396347873442      0.91975848048612
  O   -0.71668865596519     -0.04562261902249      2.13257313362431
