11
Coordinates from ORCA-job run
  C   0.52104522175863     -0.57444504762208     -0.41370634956858
  C   -0.18492053099131      0.61059522501591      0.22168845245322
  Cl  -0.50568217010239     -1.29263152224624     -1.68114992425999
  H   0.46144294527401      1.08562622768905      0.96359880759202
  H   0.68357756470959     -1.34633557133227      0.33995695988592
  H   -0.51908771022057      1.33419301442982     -0.51872303351536
  C   1.79822418430520     -0.14491345494033     -0.97250028567218
  N   2.82725285577306      0.22781016818346     -1.39778236676525
  N   -1.39911136432008      0.14277495322819      0.96140681972636
  O   -2.41237916986931      0.82332975115637      0.85084946615239
  O   -1.26936182631683     -0.86600374356187      1.64836145397145
