11
Coordinates from ORCA-job run
  C   0.47101937260009     -0.06873524738603     -0.73843232280577
  C   -0.14707065691268     -0.12593462328677      0.64762435279855
  Cl  0.96864208537330      1.59991093630390     -1.11913031936641
  H   -0.40800222640320     -1.15506416827594      0.90570938122612
  H   -0.27569592382665     -0.35540523243738     -1.48039360288523
  H   0.50180928470433      0.30964599695841      1.40439595196029
  C   1.61447283116060     -0.97185667159930     -0.80619497316558
  N   2.51944247735399     -1.71949486186515     -0.83521475307312
  N   -1.42794494450730      0.64829526788795      0.66525437318565
  O   -2.18097612795105      0.48580499656160     -0.29022249514994
  O   -1.63769617159143      1.35183360713870      1.64660440727544
