11
Coordinates from ORCA-job run
  C   0.75535003413194     -0.39293811674416     -0.21819686542337
  C   -0.48424687041033      0.46844750721927     -0.05103245514549
  Cl  0.29181360732720     -2.05250608936777     -0.67370180929669
  H   -1.13116977220690      0.43010766398485     -0.92479179482805
  H   1.28183588672198     -0.45943564096185      0.73504784783089
  H   -0.20377388568624      1.49867029155983      0.18029974776233
  C   1.62810976399739      0.19097787576502     -1.23075092027892
  N   2.31776722795566      0.69436471648029     -2.03683646138419
  N   -1.28768441168632     -0.01767827155786      1.11471237690478
  O   -0.66277241855735     -0.30120460559351      2.13229371302526
  O   -2.50422916158702     -0.05780533078411      0.97195662083346
