11
Coordinates from ORCA-job run
  C   0.67295097586413     -0.64657434376413     -0.36464178283192
  C   -0.32876530136615     -0.28195399256785      0.71647672772861
  Cl  -0.16497281372791     -1.29349620132391     -1.79880899131135
  H   0.18250984011272      0.14132192026226      1.58499132647113
  H   1.27967867183855     -1.46718196583224      0.02871427974109
  H   -0.90659081666939     -1.15528567422923      1.01300915100631
  C   1.58224939911274      0.43676812830509     -0.72829749804235
  N   2.38355614462832      1.25632317197627     -0.98196944458768
  N   -1.32369888781461      0.74485626119267      0.27183696672584
  O   -2.44105524273520      0.65817751649754      0.76933567017461
  O   -0.93686196924318      1.60504517948351     -0.51064640507427
