16

C	-0.421889	0.023329	-1.479863
C	0.0	0.0	0.0
Cl	-2.230269	0.134037	-1.588522
H	1.090106	0.0	0.0
C	0.194716	1.224032	-2.178601
H	-0.087274	1.23526	-3.232935
H	-0.158598	2.127952	-1.684214
H	1.28198	1.156032	-2.075001
C	-0.033676	-1.223154	-2.14064
N	0.260089	-2.222507	-2.684087
C	-0.477276	-1.221038	0.662484
N	-0.909871	-2.166638	1.210705
N	-0.417903	1.221381	0.669051
H	-1.310818	1.100778	1.129391
H	0.284944	1.460951	1.357785
Br	3.403213	0.0	0.0
