16

C	-0.356359	0.033468	-1.509931
C	0.0	0.0	0.0
Cl	-2.157795	0.177272	-1.710342
H	1.097428	0.0	0.0
C	0.315876	1.216829	-2.188379
H	-0.066595	2.144733	-1.761671
H	0.108043	1.210108	-3.259142
H	1.393006	1.146358	-2.009366
C	0.034829	-1.21666	-2.158065
N	0.345987	-2.22438	-2.678336
C	-0.518792	-1.22303	0.617582
N	-0.96149	-2.191001	1.113719
N	-0.416038	1.155902	0.761978
H	0.244768	1.91031	0.626622
H	-1.35539	1.451037	0.522822
Br	3.436668	0.0	0.0
