16

C	-0.419373	-0.016063	-1.483865
C	0.0	0.0	0.0
Cl	0.106646	1.540686	-2.220155
H	1.101933	0.0	0.0
C	0.281302	-1.15172	-2.218845
H	1.356606	-1.055941	-2.047733
H	-0.063911	-2.112145	-1.82868
H	0.064038	-1.100753	-3.286921
C	-1.875518	-0.091418	-1.622708
N	-3.036118	-0.207984	-1.764955
C	-0.46683	-1.240428	0.621228
N	-0.84796	-2.2285	1.12999
N	-0.584457	1.145866	0.702291
H	-0.498401	0.978449	1.698904
H	0.010605	1.943093	0.498841
Br	3.465834	0.0	0.0
