16

C	-0.472078	-0.037678	-1.478913
C	0.0	0.0	0.0
Cl	0.316504	-1.417712	-2.308341
H	1.095372	0.0	0.0
C	-1.983042	-0.199826	-1.627722
H	-2.293113	-1.141854	-1.173942
H	-2.25674	-0.203847	-2.683934
H	-2.508166	0.625741	-1.139706
C	-0.05288	1.204384	-2.133278
N	0.232079	2.221106	-2.648425
C	-0.511992	-1.190821	0.687383
N	-0.964406	-2.128796	1.231522
N	-0.391302	1.201194	0.719187
H	-1.293357	1.559253	0.439672
H	0.319484	1.906606	0.576322
Br	3.414864	0.0	0.0
