16

C	-0.411492	0.051159	-1.482896
C	0.0	0.0	0.0
Cl	-2.204302	0.298091	-1.597991
H	1.096436	0.0	0.0
C	0.30544	1.19676	-2.179315
H	0.027533	1.236376	-3.233958
H	1.382965	1.038494	-2.072442
H	0.02993	2.125443	-1.681146
C	-0.120845	-1.223568	-2.141139
N	0.111366	-2.246165	-2.671459
C	-0.504277	-1.2115	0.657015
N	-0.921615	-2.138707	1.246953
N	-0.392783	1.22869	0.673279
H	-1.291708	1.130432	1.12585
H	0.311018	1.446701	1.367238
Br	3.413166	0.0	0.0
