16

C	-0.404057	0.033324	-1.484075
C	0.0	0.0	0.0
Cl	-2.208604	0.200286	-1.610675
H	1.096419	0.0	0.0
C	0.261498	1.208826	-2.181157
H	-0.062113	2.126493	-1.692528
H	-0.009117	1.226343	-3.238223
H	1.34445	1.102084	-2.065635
C	-0.053996	-1.228624	-2.137848
N	0.227532	-2.241974	-2.662909
C	-0.493498	-1.214445	0.661827
N	-0.899997	-2.143965	1.255604
N	-0.411342	1.227266	0.662884
H	0.25949	1.430473	1.39725
H	-1.334876	1.129468	1.070661
Br	3.420244	0.0	0.0
