17
Coordinates from ORCA-job run
  C   -0.70372976187523     -0.32421246116507     -0.16714564657159
  C   0.64627105570733      0.20615745419006     -0.69188421375252
  Cl  -1.63136146369885     -0.87201302775228     -1.67894696077465
  H   0.43009526080055      0.89652450237256     -1.51318251311900
  C   -1.54401349945691      0.76786715854823      0.46850956970736
  H   -2.54632478107001      0.38799331584785      0.67607772127434
  H   -1.08999994088140      1.08367437475770      1.40872512513687
  H   -1.64071356240730      1.62282481586286     -0.20207657878130
  N   -0.49137729715711     -1.38377344009574      0.74972727977729
  H   -0.02136616675764     -2.17077284439856      0.31670135266399
  H   -1.36402800010398     -1.70369975512674      1.15077388085200
  C   1.42389938584265     -0.90667322461482     -1.24340405163664
  N   2.06294972994676     -1.81312538681620     -1.62940539808698
  C   1.46351424874241      0.91938979126479      0.39160148091967
  H   1.58487103341552      0.26982709528188      1.25848115358195
  H   0.96933655445708      1.84119660950204      0.70013351503077
  H   2.44997720449613      1.17881502234144      0.00331428377845
