17
Coordinates from ORCA-job run
  C   -0.71773205099116     -0.29962560597975     -0.16423923151712
  C   0.77026052134106     -0.10936720373172     -0.52929722920160
  Cl  -1.67540642094673      0.52614945510383     -1.52485923628352
  H   0.91747607553952     -0.57854320545538     -1.51035536193239
  C   -1.11639414918585      0.37882267826100      1.13058079757442
  H   -0.51915912753653     -0.02988867211008      1.94908923942902
  H   -2.17174164459765      0.18755588441037      1.33673832804288
  H   -0.97887859286913      1.45734238161017      1.07445785012693
  N   -0.99909334626274     -1.68632913538422     -0.09881367139439
  H   -1.96327035405506     -1.85970604178633      0.15601108413460
  H   -0.79908652472713     -2.15735608282021     -0.97287935309546
  C   1.59065440104997     -0.84572607920613      0.43811004416911
  N   2.27722792470323     -1.42920085991427      1.19101006265712
  C   1.24888192076521      1.34337932196425     -0.60364910540473
  H   2.28642377085395      1.36650629528576     -0.94146247314198
  H   0.64182889382102      1.91227559330689     -1.30659115557373
  H   1.20700870309803      1.82071127644583      0.37614941141084
