17
Coordinates from ORCA-job run
  C   -0.78522379983700     -0.26054956982343     -0.24640283613267
  C   0.73220504700774     -0.08937071020636     -0.54372600154898
  Cl  -1.64974570204231      0.50693401315421     -1.63309505085957
  H   0.90612327904474     -0.54055845275656     -1.52834879855893
  C   -1.21149029142460      0.42818447194301      1.03564860163864
  H   -0.64922652003226      0.02209919541606      1.88244718389144
  H   -2.27329121789828      0.23987721276679      1.19394952947334
  H   -1.04737364238969      1.50375344795808      0.98594788079358
  N   -1.21295363938168     -1.63610094411160     -0.20626353089114
  H   -0.90377722665108     -2.14072080484096     -1.02936413095131
  H   -0.84118174995648     -2.09247507226304      0.61946599145013
  C   1.46898544999775     -0.88626069685339      0.44127410810016
  N   2.02969169915392     -1.51352158086515      1.26108069202207
  C   1.25634418146589      1.34901665404189     -0.55319427699879
  H   1.20704781427346      1.79246044318750      0.44200216658227
  H   0.67355848197272      1.95674464144111     -1.24509031029308
  H   2.29930783669717      1.36148775181186     -0.87533121771716
