17
Coordinates from ORCA-job run
  C   -0.71388010116457     -0.28375469792168     -0.29077798499374
  C   0.78594668116125     -0.05598752763790     -0.58796589785454
  Cl  -1.64329537692343      0.51135952953596     -1.61263360865351
  H   0.95164226436855     -0.46565076293509     -1.58966038547057
  C   -1.15999140375231      0.33382297663555      1.02683241632928
  H   -2.21612436191012      0.11132563644787      1.19114185206007
  H   -0.58153102974128     -0.10146783241525      1.84750634717301
  H   -1.03560035364108      1.41724549532294      1.03889019896019
  N   -0.97134178939833     -1.70589208487491     -0.41519752843730
  H   -0.54230455936401     -2.19513076953093      0.36483638405217
  H   -1.97051508326267     -1.87550005057570     -0.37960734974082
  C   1.56090887916141     -0.86614704164556      0.35605080957091
  N   2.15111957687319     -1.50300336335762      1.14708861557446
  C   1.25302763845986      1.39993999996126     -0.53063919456170
  H   2.29101406382076      1.46532685433055     -0.86154329711012
  H   0.64223047183527      2.01738959751548     -1.18943041264284
  H   1.19869448347751      1.79612404114503      0.48410903574506
