17
Coordinates from ORCA-job run
  C   -0.63592610298406     -0.25371982884379      0.11557046320482
  C   0.71581348456367      0.42467932934695     -0.18463730055318
  Cl  -0.75317213417900     -1.75159751176430     -0.95801399233677
  H   0.69792965732498      1.35193292441832      0.40170084951005
  C   -1.80508498754201      0.63860135929592     -0.25638199456743
  H   -2.74684922714412      0.12204440862726     -0.05853443266139
  H   -1.77757023827537      0.89995139584169     -1.31366422786961
  H   -1.76685812562260      1.54823106159036      0.34827910774347
  N   -0.69213997329885     -0.58029000535011      1.50012900605571
  H   -0.03362386071502     -1.31137000782265      1.73767115724027
  H   -1.61977442452207     -0.90082843715950      1.75058614974325
  C   0.80437840150089      0.80502760033215     -1.59552332121479
  N   0.89929372088691      1.13053316761689     -2.71954341450665
  C   1.94503377062104     -0.38755479394715      0.23016894621467
  H   2.85414677927742      0.14570737865320     -0.05187749274792
  H   1.95081895917750     -1.36114669997293     -0.26085455454882
  H   1.96258430093069     -0.52120134086230      1.31292505129432
