17
Coordinates from ORCA-job run
  C   -0.53666087469814     -0.42833129875178      0.02316172920064
  C   0.68033118004123      0.51921587903214     -0.06121922625938
  Cl  -0.44933436381288     -1.61461909427284     -1.32197837009622
  H   0.60267429659195      1.16900253887612      0.82240733229716
  C   -1.85146877428151      0.32766630900283     -0.11659092198107
  H   -1.93347006823579      0.82911248050083     -1.08145470757123
  H   -2.68668010009509     -0.36777344519083     -0.01302426826268
  H   -1.92305981143234      1.07895147875755      0.67709622997205
  N   -0.41319761694283     -1.18302595178361      1.26014656670929
  H   -0.64393951544710     -0.57249153394520      2.03865329209207
  H   -1.08220835347360     -1.94492001590936      1.25855770431273
  C   0.58417447858150      1.38886443799305     -1.23511664079994
  N   0.53100539368621      2.08489316430782     -2.17905005850651
  C   2.03423862243560     -0.19320141853463     -0.02514620792718
  H   2.05324632391172     -0.88385266817208      0.81634868229137
  H   2.83534123870952      0.54028880315255      0.08378892457904
  H   2.19900794446155     -0.75077966506256     -0.94658006005013
