13

C	0.0	0.0	0.0
C	-0.568174	-0.169477	-1.388942
Br	1.932951	0.0	0.0
H	-1.645573	-0.305176	-1.239913
H	-0.338449	0.918752	0.470266
H	-0.152404	-1.072059	-1.843495
N	-0.393685	-1.124027	0.919732
O	-0.524436	-2.236086	0.418373
O	-0.497776	-0.852041	2.109844
N	-0.298175	1.050713	-2.148655
H	-1.165777	1.396834	-2.535771
H	0.345089	0.868645	-2.905805
Cl	-3.626557	0.0	0.0
