13

C	0.0	0.0	0.0
C	-0.596302	-0.182728	-1.374868
Br	1.932751	0.0	0.0
H	-1.665632	-0.339644	-1.190738
H	-0.33848	0.92169	0.464261
H	-0.177632	-1.078624	-1.83927
N	-0.391201	-1.116421	0.92965
O	-0.565944	-0.822156	2.106334
O	-0.455099	-2.243713	0.449061
N	-0.380098	1.041237	-2.142362
H	0.229516	0.871151	-2.929865
H	-1.27107	1.374417	-2.484696
Cl	-3.684795	0.0	0.0
