13

C	0.0	0.0	0.0
C	-0.590001	-0.237765	-1.380206
Br	1.928691	0.0	0.0
H	0.129082	-0.779043	-1.998241
H	-0.356153	0.921455	0.450134
H	-1.482674	-0.849428	-1.241841
N	-0.364817	-1.104232	0.958699
O	-0.571316	-0.781324	2.123286
O	-0.365523	-2.24779	0.513837
N	-0.889308	1.069668	-1.963259
H	-1.809608	1.314619	-1.598702
H	-0.995012	0.958859	-2.965203
Cl	-3.485151	0.0	0.0
