16

C	-0.573248	-0.01424	-1.425038
C	0.0	0.0	0.0
Br	0.427831	-1.419951	-2.445138
H	1.096623	0.0	0.0
N	-1.966703	-0.143872	-1.478967
H	-2.28178	-0.933825	-0.930878
H	-2.289468	-0.210133	-2.434531
N	-0.228993	1.275521	-2.159223
O	-0.845528	1.473666	-3.201971
O	0.623934	2.006386	-1.675488
C	-0.471636	-1.225125	0.646742
N	-0.925363	-2.170147	1.179962
N	-0.519033	1.16517	0.737354
H	-0.530789	0.933121	1.72449
H	0.176056	1.895326	0.618827
Br	3.452486	0.0	0.0
