17

C	0.0	0.0	0.0
C	-0.609697	-0.068647	-1.404719
Br	1.964782	0.0	0.0
H	-1.71622	-0.123273	-1.086225
C	-0.382917	1.267763	0.630534
N	-0.575846	2.304889	1.148751
C	-0.470713	-1.171603	0.856447
H	-0.120546	-2.10859	0.416537
H	-0.079391	-1.084618	1.872565
H	-1.565803	-1.087539	0.828107
C	-0.197729	-1.285991	-2.083208
N	0.108158	-2.258621	-2.670994
C	-0.358576	1.16384	-2.266702
H	-0.820378	1.030145	-3.247563
H	-0.817663	2.03274	-1.792786
H	0.709185	1.353165	-2.409152
F	-2.831145	0.0	0.0
