17

C	0.0	0.0	0.0
C	-0.259684	0.199026	-1.553918
Br	1.966184	0.0	0.0
H	0.493458	-0.440213	-2.027789
C	-0.437856	1.143821	0.793192
N	-0.684331	2.086388	1.450652
C	-0.604762	-1.29083	0.504739
H	-0.272396	-2.127466	-0.116329
H	-0.308786	-1.470474	1.541438
H	-1.700736	-1.101598	0.421958
C	0.093192	1.571681	-1.932253
N	0.352902	2.665273	-2.275717
C	-1.616163	-0.18212	-2.154338
H	-2.440221	0.208501	-1.535111
H	-1.618886	0.147629	-3.198728
H	-1.716536	-1.270372	-2.134068
F	-3.045252	0.0	0.0
