17

C	0.0	0.0	0.0
C	-0.26052	0.188065	-1.557812
Br	1.966366	0.0	0.0
H	0.506773	-0.436664	-2.027028
C	-0.437761	1.148043	0.786933
N	-0.684883	2.088377	1.447383
C	-0.597985	-1.289553	0.514152
H	-0.301722	-1.460268	1.551928
H	-1.694161	-1.105395	0.429604
H	-0.261523	-2.129299	-0.100458
C	0.06732	1.565504	-1.939982
N	0.308295	2.661745	-2.28825
C	-1.606305	-0.225149	-2.161542
H	-2.438405	0.153371	-1.546288
H	-1.614325	0.09775	-3.20822
H	-1.681514	-1.315605	-2.135942
F	-3.028798	0.0	0.0
