17

C	0.0	0.0	0.0
C	-0.258393	0.108353	-1.564869
Br	1.966245	0.0	0.0
H	0.496967	-0.554352	-2.000457
C	-0.440028	1.187497	0.725105
N	-0.679099	2.160554	1.339377
C	-0.601361	-1.259756	0.579011
H	-0.270333	-2.131096	0.006812
H	-1.697602	-1.079319	0.487021
H	-0.30479	-1.380035	1.623561
C	0.090498	1.458226	-2.020224
N	0.352793	2.528644	-2.428105
C	-1.614259	-0.310623	-2.140625
H	-2.438961	0.112752	-1.544358
H	-1.620291	-0.0442	-3.202824
H	-1.712057	-1.396414	-2.054178
F	-3.043766	0.0	0.0
