17

C	0.0	0.0	0.0
C	-0.628343	3.6e-05	-1.400003
Cl	1.792829	0.0	0.0
H	-1.752375	0.000259	-1.073961
C	-0.453796	1.25444	0.735655
H	-0.068788	2.154121	0.248727
H	-1.547328	1.224414	0.720821
H	-0.077152	1.229698	1.76132
C	-0.453835	-1.254397	0.735691
H	-1.547369	-1.224435	0.720683
H	-0.077377	-1.229519	1.761422
H	-0.068678	-2.154098	0.248918
C	-0.28766	-1.191677	-2.169154
N	-0.004242	-2.146939	-2.793153
C	-0.286952	1.191415	-2.16936
N	-0.003374	2.146488	-2.793581
F	-2.907919	0.0	0.0
