17

C	0.0	0.0	0.0
C	-0.415725	-0.171688	-1.490279
Cl	1.797172	0.0	0.0
H	0.194476	0.540889	-2.056422
C	-0.48526	1.346636	0.499041
H	-0.099884	1.53106	1.503446
H	-1.578944	1.264867	0.506476
H	-0.143151	2.150732	-0.157278
C	-0.491143	-1.130886	0.872917
H	-0.094351	-2.091478	0.543249
H	-0.170934	-0.955703	1.902858
H	-1.583049	-1.086495	0.793593
C	-1.828735	0.089039	-1.916543
N	-2.569296	0.244944	-2.825451
C	-0.052072	-1.50831	-1.969431
N	0.23986	-2.587544	-2.321266
F	-2.861307	0.0	0.0
