17

C	0.0	0.0	0.0
C	-0.68866	-0.135292	-1.361046
Cl	1.792742	0.0	0.0
H	-1.828806	-0.097648	-0.952607
C	-0.441376	1.319852	0.62564
H	-1.533611	1.292669	0.643987
H	-0.080196	2.170579	0.041953
H	-0.03802	1.397844	1.638379
C	-0.439617	-1.170882	0.875294
H	-0.030291	-1.04959	1.881485
H	-0.0823	-2.120031	0.467445
H	-1.531608	-1.139468	0.894741
C	-0.423725	-1.399468	-2.028785
N	-0.223436	-2.431586	-2.55684
C	-0.432411	0.981654	-2.256378
N	-0.241258	1.898087	-2.969276
F	-2.92178	0.0	0.0
