17

C	0.0	0.0	0.0
C	-0.445823	-0.259805	-1.462958
Cl	1.797071	0.0	0.0
H	0.27551	0.268479	-2.099096
C	-0.455413	1.390353	0.418243
H	-0.129097	2.144518	-0.306441
H	-1.548911	1.32652	0.461859
H	-0.026446	1.63771	1.394111
C	-0.466548	-1.064139	0.975313
H	-0.061246	-2.044164	0.71447
H	-0.124824	-0.803007	1.981068
H	-1.560984	-1.041066	0.916103
C	-1.768935	0.262646	-1.898205
N	-2.441205	0.745268	-2.742546
C	-0.330773	-1.679327	-1.820992
N	-0.208146	-2.808484	-2.119436
F	-2.806109	0.0	0.0
