17

C	0.0	0.0	0.0
C	-0.362466	0.094109	-1.50545
Cl	1.797041	0.0	0.0
H	0.269191	-0.647089	-2.010241
C	-0.448849	1.196383	0.832935
H	-0.044608	2.127064	0.423754
H	-0.068708	1.075906	1.852314
H	-1.54472	1.185739	0.829527
C	-0.45957	-1.333945	0.586634
H	-0.037701	-1.445461	1.590877
H	-1.557859	-1.288973	0.616574
H	-0.10257	-2.168177	-0.034112
C	0.039558	1.394239	-2.073489
N	0.380308	2.40978	-2.556012
C	-1.731526	-0.190134	-1.990107
N	-2.543707	-0.286439	-2.843149
F	-2.828155	0.0	0.0
