17

C	0.0	0.0	0.0
C	-0.386531	0.074444	-1.504827
Cl	1.797112	0.0	0.0
H	0.218705	-0.694687	-2.003325
C	-0.487264	1.196316	0.791682
H	-0.147929	1.108724	1.828011
H	-1.581508	1.136421	0.731479
H	-0.101402	2.129862	0.375368
C	-0.487677	-1.312303	0.585197
H	-0.105191	-1.425059	1.603429
H	-1.582458	-1.225363	0.576363
H	-0.14239	-2.160906	-0.014031
C	0.028781	1.357761	-2.09134
N	0.366614	2.376923	-2.567944
C	-1.782748	-0.199041	-1.941519
N	-2.539687	-0.476418	-2.805219
F	-2.841446	0.0	0.0
