14
Coordinates from ORCA-job run
  C   0.54969577468457     -0.83113732242923      0.22277704927809
  C   -0.39113014301622      0.16204418881646     -0.44231995163011
  Br  0.53392023928419     -0.42389685571943      2.22201411789002
  H   -0.47038990507627     -0.13020443838364     -1.49307499396590
  H   0.13914523212292     -1.83677441688715      0.19114100084708
  N   1.80759857765602     -0.75411983080905     -0.38408474419521
  H   2.16161790062399      0.19355617261082     -0.39076537783220
  H   2.48000513272533     -1.39741217888028      0.00811216213164
  N   0.07495684005395      1.49155287081136     -0.32870408400842
  H   -0.45280889465014      2.12195926610390     -0.91621622093856
  H   0.01391537562780      1.80946697452435      0.63088970087867
  N   -1.80572073027657     -0.07343149211850      0.10545656582435
  O   -2.23665410179407     -1.21688073676341     -0.00343965922701
  O   -2.40315129796552      0.88627779912381      0.57821443494756
