14
Coordinates from ORCA-job run
  C   0.54682284101959     -0.69543811035745      0.23953742735739
  C   -0.51268895746931      0.23564077958642     -0.37569492709465
  Br  0.75547813716345     -0.32863310805577      2.13681455886548
  H   -0.58991234528687     -0.04757244788436     -1.43129414941534
  H   0.20225695091292     -1.73270543594492      0.18383439757477
  N   1.80160551246265     -0.41608300769684     -0.43286533039628
  H   1.78160033862270     -0.84671811339549     -1.35266350104604
  H   2.57485314608897     -0.82058662820610      0.08051665931089
  N   -0.30813937113445      1.64222898978501     -0.26500815662575
  H   -0.40096318054356      1.92804168614669      0.70229870821217
  H   0.63815218642445      1.83855541849422     -0.57181737964645
  N   -1.84326255540019     -0.14346537715721      0.21050576935473
  O   -2.38169540099755      0.64066249376896      0.98264841262273
  O   -2.26410730186280     -1.25392713908315     -0.10781248907367
