14
Coordinates from ORCA-job run
  C   0.88893396391833     -0.20415354406173      0.05188449092157
  C   -0.56073737600526      0.03306724497997     -0.38175612822388
  Br  1.84654245257331     -0.87511421250148     -1.60445363758402
  H   -1.02872103795966     -0.91225219038466     -0.66034143226027
  H   1.37795206998813      0.74823423248188      0.25635724219731
  N   0.96591035225978     -1.04922142775987      1.16641996651397
  H   1.89814029842002     -1.13030502438356      1.54617440280779
  H   0.57116938230463     -1.96632646286688      1.00414071720549
  N   -0.80802374385848      1.01589580778334     -1.38888594278160
  H   -0.57030387320119      0.65430877459936     -2.30167254212964
  H   -0.27667391818157      1.85847497991266     -1.20936812750861
  N   -1.26991080100316      0.49167499166398      0.86761073411881
  O   -0.95942614274228      1.60961998207003      1.26837837289951
  O   -2.07385162651261     -0.27290315153303      1.38651188382357
