16

C	0.0	0.0	0.0
C	-0.504846	-0.314974	-1.396087
Br	1.954109	0.0	0.0
H	-1.555741	-0.008448	-1.405666
H	0.041743	0.297529	-2.111497
N	-0.276992	1.526542	0.287753
O	-0.424702	1.83406	1.465245
O	-0.282382	2.300613	-0.659373
N	-0.545359	-0.816388	0.986305
H	-1.568214	-0.794774	0.850161
H	-0.332506	-0.447886	1.905551
C	-0.398788	-1.798481	-1.725796
H	-0.674584	-1.961523	-2.771229
H	0.616229	-2.175251	-1.574188
H	-1.081829	-2.372193	-1.101637
Cl	-3.593516	0.0	0.0
