16

C	0.0	0.0	0.0
C	-0.262543	0.265364	-1.488252
Br	2.026762	0.0	0.0
H	0.148495	-0.614551	-1.991271
H	0.370503	1.107398	-1.760273
N	-0.25568	1.289295	0.848479
O	-0.205537	2.372769	0.281848
O	-0.460001	1.111909	2.044735
N	-0.618472	-1.118131	0.533429
H	-1.617874	-1.066507	0.29514
H	-0.535253	-1.121567	1.542725
C	-1.674016	0.537482	-1.983452
H	-2.155443	1.348419	-1.443658
H	-2.338227	-0.316771	-1.903316
H	-1.586328	0.816359	-3.040361
Cl	-4.092774	0.0	0.0
