16

C	-0.569361	-0.095684	-1.414547
C	0.0	0.0	0.0
F	-1.958427	-0.199837	-1.307424
H	1.089416	0.0	0.0
N	-0.373755	1.230131	-2.157229
O	0.363397	2.076935	-1.667311
O	-0.948861	1.291585	-3.240283
N	0.013357	-1.058241	-2.228337
H	-0.488677	-1.139165	-3.10293
H	0.123016	-1.938136	-1.747895
N	-0.370949	-1.232239	0.79947
O	-0.574843	-1.082546	1.997021
O	-0.361936	-2.312212	0.215355
C	-0.542933	1.154817	0.701076
N	-1.013443	2.07283	1.262106
Cl	3.119893	0.0	0.0
