16

C	-0.395958	-0.099519	-1.495058
C	0.0	0.0	0.0
F	-1.646103	-0.615164	-1.600376
H	1.091413	0.0	0.0
N	-0.458775	1.33779	-2.026096
O	0.627072	1.874156	-2.208094
O	-1.56636	1.824797	-2.209362
N	0.494555	-0.805588	-2.331507
H	0.526291	-1.761121	-1.991505
H	1.426861	-0.416412	-2.195115
N	-0.390485	-1.277783	0.688526
O	-0.117415	-2.318171	0.098547
O	-0.910886	-1.205171	1.795698
C	-0.576095	1.133176	0.696353
N	-1.026636	2.082027	1.22285
Cl	3.12981	0.0	0.0
