16

C	-0.59997	-0.034632	-1.403814
C	0.0	0.0	0.0
F	-0.006502	1.013539	-2.094633
H	1.089467	0.0	0.0
N	-0.16986	-1.256608	-2.211923
O	-0.882523	-1.518051	-3.181389
O	0.873942	-1.804189	-1.902388
N	-1.997516	0.02081	-1.404177
H	-2.353775	-0.106599	-2.342452
H	-2.31588	0.893065	-1.00284
N	-0.446571	-1.16261	0.841516
O	-0.818297	-2.178509	0.265751
O	-0.350295	-1.015172	2.055291
C	-0.45948	1.228546	0.638419
N	-0.868767	2.233427	1.088665
Cl	3.139684	0.0	0.0
