16

C	-0.411397	-0.160479	-1.482579
C	0.0	0.0	0.0
F	-1.680549	-0.629413	-1.552352
H	1.090327	0.0	0.0
N	-0.419503	1.250616	-2.084855
O	0.685388	1.72573	-2.318637
O	-1.508664	1.778374	-2.272348
N	0.441975	-0.942478	-2.291946
H	0.437035	-1.878986	-1.903228
H	1.389426	-0.581141	-2.187722
N	-0.38293	-1.240023	0.761002
O	-0.19488	-2.311915	0.191593
O	-0.798661	-1.107963	1.906643
C	-0.566324	1.165985	0.650649
N	-1.041563	2.110905	1.161591
Cl	3.12459	0.0	0.0
