16

C	-0.354804	-0.219957	-1.477866
C	0.0	0.0	0.0
F	-1.64248	-0.660796	-1.631705
H	1.090535	0.0	0.0
N	-0.385992	1.19177	-2.175864
O	0.638162	1.521454	-2.76643
O	-1.417891	1.843431	-2.07684
N	0.556724	-1.085146	-2.057394
H	1.492766	-0.960151	-1.674801
H	0.56678	-1.01892	-3.065453
N	-0.467643	-1.214079	0.766096
O	-1.466499	-1.09051	1.471673
O	0.185897	-2.235936	0.610164
C	-0.553877	1.198366	0.601286
N	-0.939589	2.184456	1.110213
Cl	3.157674	0.0	0.0
