16

C	-0.292432	0.017017	-1.499918
C	0.0	0.0	0.0
F	0.017602	-1.182418	-2.098418
H	1.095861	0.0	0.0
N	-1.785188	0.158325	-1.795922
O	-2.080538	0.505162	-2.935106
O	-2.568735	-0.14045	-0.900619
N	0.379353	1.110739	-2.046668
H	0.254532	1.145236	-3.049894
H	1.365769	1.067493	-1.790352
N	-0.475935	-1.193002	0.772565
O	-0.452111	-2.282125	0.216504
O	-0.794242	-0.990099	1.940187
C	-0.486458	1.221176	0.621324
N	-0.854222	2.228665	1.099921
Cl	3.134357	0.0	0.0
