16

C	-0.538766	0.003288	-1.454213
C	0.0	0.0	0.0
F	0.033902	1.064648	-2.055182
H	1.089779	0.0	0.0
N	-0.053058	-1.264721	-2.151886
O	-0.682862	-2.278768	-1.858214
O	0.875629	-1.168086	-2.933575
N	-1.940142	0.059214	-1.669299
H	-2.306514	0.893878	-1.225771
H	-2.383681	-0.753899	-1.262207
N	-0.515414	-1.2142	0.720154
O	0.250641	-2.159584	0.833259
O	-1.685941	-1.179665	1.106831
C	-0.516949	1.192058	0.655307
N	-0.963607	2.160693	1.147219
Cl	3.1593	0.0	0.0
