16

C	-0.303783	0.01883	-1.496556
C	0.0	0.0	0.0
F	0.020275	-1.171805	-2.10316
H	1.096277	0.0	0.0
N	-1.801156	0.140636	-1.780404
O	-2.109456	0.474518	-2.920203
O	-2.574394	-0.156423	-0.875188
N	0.346336	1.125417	-2.044945
H	1.334637	1.096034	-1.795651
H	0.215852	1.157486	-3.047519
N	-0.468684	-1.196702	0.773008
O	-0.47504	-2.280284	0.204785
O	-0.748709	-1.002166	1.951535
C	-0.486557	1.217168	0.629025
N	-0.859084	2.213797	1.126032
Cl	3.13164	0.0	0.0
