13
Coordinates from ORCA-job run
  C   0.49024639388354     -0.84753300477790      0.13945830079645
  C   -0.51747260527874      0.28522607492022      0.34112525417956
  Cl  0.12256339874210     -1.81974324327832     -1.26796786661605
  H   -0.20174735083052      0.80895712900561      1.24800371306605
  H   0.54376740766420     -1.49406985214677      1.01530704917754
  N   1.85628516060379     -0.18549178540040      0.03493487959487
  O   2.48999076926144     -0.25516388942286     -1.00215595875763
  O   2.18443727016468      0.38750490420970      1.06895495736810
  C   -1.85549675542979     -0.28601657427811      0.58592858016318
  N   -2.94141796031521     -0.70152727132212      0.75366929634719
  N   -0.42663640368285      1.21088218444807     -0.76758743356283
  H   -0.84353526637144      0.81965817520073     -1.60344510443197
  H   -0.89998405841120      2.07731715284215     -0.54722566732447
