13
Coordinates from ORCA-job run
  C   0.50149164460249     -0.85184922994624      0.00257967220584
  C   -0.55252516836128      0.20196723765012      0.34578680801611
  Cl  0.28199483673738     -1.51099735071964     -1.60334339214292
  H   -0.32884912984339      0.52775027924378      1.36568382474663
  H   0.49973764508089     -1.66735654054058      0.72571650366265
  N   1.85148148944084     -0.16798643540215      0.15948102305852
  O   2.07468376522172      0.17827483457975      1.31515687057688
  O   2.57244237770217     -0.01179623548717     -0.80897143676528
  C   -1.88880590502123     -0.42352492782546      0.34906433714439
  N   -2.97268373508359     -0.87627454425827      0.33250599755383
  N   -0.39729184738282      1.33994275303903     -0.53455725645522
  H   -0.91534418010333      2.13460584864578     -0.18299413694792
  H   -0.72933179298986      1.12624431102104     -1.46710881465350
