13
Coordinates from ORCA-job run
  C   0.82922326502792      0.09739025631029      0.19223793329436
  C   -0.70859340658938      0.00233529491532      0.19677980608244
  Cl  1.45135314431293      0.15638230051503      1.83790415351111
  H   -0.96344089448167     -0.91574861757652      0.73474670800808
  H   1.18948761720943      0.96714992389592     -0.35534437397273
  N   1.39704963827651     -1.10809008492578     -0.50956003040497
  O   1.03950040903750     -2.20205610217506     -0.08738426599810
  O   2.14305905791225     -0.88686992920095     -1.45794814460988
  C   -1.15029355282850     -0.14475584584248     -1.19710713125977
  N   -1.46735709133788     -0.23353369564050     -2.32390892379329
  N   -1.40326600420678      1.11092013880392      0.80928498663863
  H   -1.16969437091123      1.98930205516416      0.36317184533884
  H   -1.18902781142111      1.16757430575666      1.79612743716525
