19

C	-0.425623	-0.012026	-1.461499
C	0.0	0.0	0.0
Cl	-2.169704	-0.397484	-1.665295
H	1.096905	0.0	0.0
N	-0.1988	1.385781	-2.049063
O	-0.982952	1.827594	-2.882826
O	0.836514	1.932691	-1.689291
C	0.422757	-0.949968	-2.296436
H	1.474716	-0.737967	-2.067307
H	0.204343	-1.982599	-2.022819
H	0.205053	-0.817688	-3.359102
C	-0.447133	-1.246163	0.741672
H	-1.525637	-1.236876	0.92767
H	-0.196511	-2.159557	0.198933
H	0.087235	-1.277543	1.695548
N	-0.509199	1.214513	0.649695
H	0.284561	1.838279	0.758175
H	-0.835572	0.983992	1.580044
H	2.91682	0.0	0.0
