19

C	-0.357733	-0.026689	-1.486685
C	0.0	0.0	0.0
Cl	-2.1488	-0.183432	-1.764762
H	1.095067	0.0	0.0
N	0.03061	1.320322	-2.094016
O	-0.698004	2.287437	-1.880125
O	1.092951	1.362353	-2.707487
C	0.37214	-1.119192	-2.230643
H	1.427411	-1.068696	-1.939108
H	-0.043176	-2.085971	-1.949424
H	0.270126	-0.992504	-3.309508
C	-0.439524	-1.272126	0.710333
H	-0.02196	-1.223201	1.717253
H	-1.529129	-1.340133	0.786193
H	-0.051882	-2.173441	0.231011
N	-0.455636	1.161885	0.743931
H	0.232067	1.898704	0.639539
H	-1.337958	1.504932	0.384558
H	2.850244	0.0	0.0
