19

C	-0.444319	-0.110449	-1.454149
C	0.0	0.0	0.0
Cl	-2.17072	-0.622719	-1.610987
H	1.09429	0.0	0.0
N	-0.33466	1.283002	-2.069359
O	0.814841	1.626701	-2.326608
O	-1.336785	1.966339	-2.231972
C	0.440249	-1.051361	-2.244861
H	0.233747	-0.972281	-3.314983
H	1.48309	-0.798997	-2.021295
H	0.24817	-2.077831	-1.92823
C	-0.38854	-1.221372	0.822952
H	-0.141187	-2.158413	0.317581
H	-1.456372	-1.230825	1.064308
H	0.191823	-1.188567	1.749141
N	-0.424455	1.261723	0.585811
H	0.34043	1.606559	1.155999
H	-1.245241	1.14357	1.167287
H	2.852409	0.0	0.0
