19

C	-0.388336	0.031987	-1.475722
C	0.0	0.0	0.0
Cl	-0.353447	-1.598179	-2.230194
H	1.096227	0.0	0.0
N	-1.84348	0.485349	-1.646261
O	-2.12355	1.1683	-2.628098
O	-2.656069	0.120245	-0.799066
C	0.529359	0.949562	-2.243679
H	0.32227	0.921279	-3.312421
H	1.554707	0.6357	-2.019601
H	0.390831	1.962543	-1.865064
C	-0.455301	-1.17839	0.843652
H	-0.062534	-2.119393	0.455617
H	-1.543034	-1.245183	0.918238
H	-0.031042	-1.039859	1.842886
N	-0.387005	1.310199	0.535392
H	-1.210326	1.222743	1.119955
H	0.387012	1.646673	1.099403
H	2.887711	0.0	0.0
