19

C	-0.396735	0.045284	-1.475274
C	0.0	0.0	0.0
Cl	-0.118144	-1.531896	-2.280263
H	1.100434	0.0	0.0
N	-1.898806	0.305499	-1.593421
O	-2.264371	1.362873	-2.104677
O	-2.657365	-0.538051	-1.113814
C	0.390231	1.102964	-2.207855
H	0.170034	2.072351	-1.765293
H	0.144813	1.114705	-3.270977
H	1.448226	0.869167	-2.050186
C	-0.480023	-1.180129	0.824065
H	0.044343	-1.133586	1.783904
H	-1.560076	-1.150931	1.001333
H	-0.232141	-2.133549	0.356352
N	-0.393669	1.291795	0.573327
H	-1.153347	1.173789	1.228779
H	0.41019	1.654561	1.074216
H	2.852196	0.0	0.0
