19

C	-0.336726	0.067146	-1.501492
C	0.0	0.0	0.0
Cl	0.207298	-1.407222	-2.345919
H	1.095443	0.0	0.0
N	-1.854855	0.132323	-1.641431
O	-2.510686	-0.906323	-1.686596
O	-2.350166	1.266055	-1.571847
C	0.31408	1.257489	-2.168493
H	0.118152	1.254022	-3.242564
H	-0.0537	2.186142	-1.738834
H	1.386879	1.163664	-1.975306
C	-0.56948	-1.2082	0.717768
H	-0.335031	-2.142672	0.207245
H	-1.656503	-1.134685	0.836944
H	-0.118068	-1.229219	1.711309
N	-0.360815	1.220361	0.716048
H	0.405389	1.87883	0.630966
H	-1.212769	1.646435	0.365948
H	2.836341	0.0	0.0
