16

C	-0.464972	-0.033855	-1.445369
C	0.0	0.0	0.0
Cl	-2.217083	-0.256646	-1.601416
H	1.093223	0.0	0.0
H	0.031086	-0.833274	-1.986096
N	-0.060615	1.244358	-2.138882
O	-0.754638	2.242437	-1.972209
O	0.962836	1.170808	-2.813047
N	-0.362014	-1.339623	0.582406
O	-0.165566	-2.32523	-0.12483
O	-0.790655	-1.377336	1.733104
C	-0.523317	1.136188	0.842945
H	-1.61344	1.16978	0.864796
H	-0.147849	1.019319	1.857737
H	-0.141195	2.076618	0.447214
Br	3.38279	0.0	0.0
