16

C	-0.469908	-0.055868	-1.444973
C	0.0	0.0	0.0
Cl	-2.226739	-0.257696	-1.591367
H	1.093291	0.0	0.0
H	0.010656	-0.871983	-1.973575
N	-0.05608	1.20385	-2.166182
O	-0.729247	2.21691	-1.999562
O	0.955571	1.102476	-2.85192
N	-0.358758	-1.33095	0.603498
O	-0.161884	-2.325282	-0.089639
O	-0.782686	-1.353598	1.754913
C	-0.51772	1.147569	0.831909
H	-1.607484	1.177669	0.862842
H	-0.133351	1.050371	1.845179
H	-0.142825	2.082608	0.417329
Br	3.385934	0.0	0.0
