16

C	-0.38743	-0.041258	-1.470255
C	0.0	0.0	0.0
Cl	0.042185	-1.53876	-2.275439
H	1.091624	0.0	0.0
H	0.128739	0.778049	-1.967771
N	-1.860941	0.24493	-1.66061
O	-2.66007	-0.678662	-1.578883
O	-2.140457	1.432361	-1.832669
N	-0.506445	-1.210348	0.71806
O	0.244636	-2.174904	0.814201
O	-1.658314	-1.159507	1.160961
C	-0.481432	1.258232	0.696735
H	-0.079723	1.263872	1.711551
H	-0.081337	2.129442	0.17483
H	-1.567513	1.325954	0.741933
Br	3.455203	0.0	0.0
