20

C	0.0	0.0	0.0
C	-0.483464	-0.144115	-1.455757
Cl	1.810321	0.0	0.0
H	-1.57394	-0.17141	-1.304787
C	-0.432434	1.334482	0.602515
H	-0.12856	1.367868	1.654645
H	-1.526266	1.317829	0.524009
H	0.007327	2.195719	0.094803
N	-0.540205	-1.115879	0.739046
H	-1.564974	-0.938379	0.605763
H	-0.338269	-0.961996	1.723867
C	-0.009648	-1.447257	-2.092422
H	1.051046	-1.397988	-2.362444
H	-0.15314	-2.278863	-1.402546
H	-0.583148	-1.642059	-3.005555
C	-0.137724	1.043877	-2.346733
H	-0.465774	0.836645	-3.371195
H	0.941278	1.231735	-2.373239
H	-0.644158	1.955193	-2.022252
F	-2.934678	0.0	0.0
