20

C	0.0	0.0	0.0
C	-0.258246	0.011179	-1.541175
Cl	1.871442	0.0	0.0
H	0.384087	-0.795249	-1.919912
C	-0.665652	1.125985	0.739635
H	-0.417237	1.091633	1.806125
H	-0.376312	2.101334	0.34805
H	-1.751581	0.929306	0.595649
N	-0.430504	-1.23581	0.539045
H	0.092965	-2.014457	0.165296
H	-0.405383	-1.242728	1.549071
C	0.206985	1.304463	-2.215893
H	-0.448128	2.132307	-1.929352
H	1.240498	1.575237	-1.98957
H	0.112074	1.185765	-3.300514
C	-1.705292	-0.289166	-1.95337
H	-1.692512	-0.99661	-2.793268
H	-2.356211	-0.614772	-1.120254
H	-2.201483	0.625763	-2.289473
F	-3.501798	0.0	0.0
