20

C	0.0	0.0	0.0
C	-0.545808	0.000592	-1.426352
Cl	1.868471	0.0	0.0
H	-1.633541	0.060203	-1.183731
C	-0.541964	1.159271	0.799883
H	-0.241159	2.12333	0.382543
H	-1.640431	0.993379	0.727478
H	-0.185969	1.105787	1.83551
N	-0.38304	-1.223751	0.642905
H	0.23736	-1.977686	0.377654
H	-0.363673	-1.115748	1.648144
C	-0.281044	-1.310659	-2.155878
H	-0.660501	-1.250268	-3.181545
H	0.790018	-1.544548	-2.209934
H	-0.807643	-2.126012	-1.658368
C	-0.085282	1.188147	-2.260757
H	-0.60044	1.176448	-3.227111
H	0.99352	1.157015	-2.451935
H	-0.320547	2.142424	-1.783892
F	-3.028581	0.0	0.0
