15
Coordinates from ORCA-job run
  C   -0.63036760586508     -0.00330675123685     -0.37275667470334
  C   0.82765862154486     -0.38926139736229     -0.27352378297261
  Br  -0.98394353085654      1.29552353067552     -1.73116409055135
  H   0.87792624205881     -1.26094157129873      0.38361167529154
  H   1.15164142542880     -0.70738263612345     -1.26544488965727
  N   -1.52721893500030     -1.20650900245564     -0.66758912043056
  O   -2.71310876089420     -1.06632350694765     -0.40716017093523
  O   -0.98432634424026     -2.18381190428050     -1.16423858512385
  N   -1.08927457197553      0.47913482495624      1.00427790942685
  O   -1.37701625284578      1.65189447189773      1.16866975663091
  O   -1.05044883909855     -0.40625633493954      1.85157777722571
  C   1.69983987014688      0.74038176359169      0.26465624790735
  H   1.61617505174969      1.64220927792482     -0.34299396070901
  H   1.43972052931898      0.99093240815677      1.29498264245630
  H   2.74374310052822      0.42271682744187      0.25709526614455
