15
Coordinates from ORCA-job run
  C   -0.65151258365711      0.12553664672064     -0.24256431430688
  C   0.76893650170305     -0.40033882591085     -0.24964304950522
  Br  -0.89485677555749      1.71046528734211     -1.27722840307097
  H   0.93577205876599     -0.79843606137330     -1.25636669791391
  H   0.78452305671863     -1.24224753366783      0.44699020908180
  N   -1.55852579818553     -1.00959900696048     -0.75072005785597
  O   -1.98744159689841     -0.96123860579273     -1.88991910386131
  O   -1.69478077971096     -1.91665198876477      0.06232067793640
  N   -1.19114980304453      0.38760007808377      1.16790382518098
  O   -2.36424809943754      0.72356563643572      1.23180428019718
  O   -0.41926254250677      0.21208802497371      2.10184963266392
  C   1.85446154329526      0.61132729168186      0.09864053156521
  H   2.81536585876587      0.09478868198028      0.14395933170603
  H   1.67339811042234      1.06974118795644      1.06935943607193
  H   1.92932084932719      1.39339918729545     -0.65638629788919
