15
Coordinates from ORCA-job run
  C   -0.67345014803162      0.20915725495639     -0.19707938506841
  C   0.74487872178378      0.56843381595646      0.18196928799884
  Br  -1.09513368878086      0.59496249262198     -2.02216028164262
  H   0.89991698221962      1.61569364855406     -0.08119056707704
  H   0.80900724965443      0.49032295163881      1.27009328662069
  N   -0.89487717284306     -1.26778643946715      0.13446747541653
  O   -1.05662910937506     -2.07196273596349     -0.76685495075029
  O   -0.81620600778897     -1.49838894843140      1.33616602114640
  N   -1.70430204055551      0.94555336300082      0.65984882744424
  O   -1.32307807775139      1.96729202069046      1.21417429630407
  O   -2.82559501418176      0.45974858321616      0.68330887904647
  C   1.77853885095181     -0.33498836404127     -0.48265725816869
  H   2.77943053083614      0.00782449582666     -0.21543389745821
  H   1.68369304842702     -1.36851924918934     -0.14379565285251
  H   1.69380587543544     -0.31734288936915     -1.56985608095946
