15
Coordinates from ORCA-job run
  C   -0.66907633864437      0.21236564402471     -0.20857503880576
  C   0.74374887159151      0.56510908883416      0.19673707279292
  Br  -1.05647645722175      0.60457947715148     -2.03985743737402
  H   0.90773848837050      1.61236329697040     -0.06094321222436
  H   0.78757027413431      0.48406814917922      1.28564855861516
  N   -0.90215740309471     -1.26443828241917      0.11522734906584
  O   -1.05052219274580     -2.06555606026736     -0.79110229038036
  O   -0.84540865862702     -1.49857785769759      1.31742769273518
  N   -1.71192059149260      0.95060222846961      0.63160860581555
  O   -1.33660176521511      1.96847730783194      1.19697083470414
  O   -2.83557871305528      0.46964060133945      0.63344390290890
  C   1.78544190554095     -0.34067055712815     -0.45191199710254
  H   1.68134283498167     -1.37465634817798     -0.11718953660456
  H   2.78283006427506     -0.00182099951709     -0.16712990948512
  H   1.71906968120258     -0.32048568859360     -1.54035459466099
