14

C	-0.43708	0.144457	-1.459819
C	0.0	0.0	0.0
Cl	0.016935	-1.43192	-2.3294
H	1.094494	0.0	0.0
H	-1.525022	0.159782	-1.55844
N	0.146711	1.294789	-2.031915
H	1.137104	1.340778	-1.809023
H	0.022106	1.306011	-3.035071
C	-0.505318	-1.251029	0.591132
N	-1.015334	-2.139934	1.167268
N	-0.422781	1.154027	0.786333
H	0.250902	1.292548	1.527536
H	-1.331596	0.995448	1.200436
Cl	3.299872	0.0	0.0
