14

C	-0.589346	-0.038958	-1.412102
C	0.0	0.0	0.0
Cl	-0.181231	-1.611189	-2.196738
H	1.093863	0.0	0.0
H	-1.684257	-0.070296	-1.328467
N	-0.090707	1.05709	-2.177722
H	0.087462	1.825441	-1.539224
H	-0.762364	1.344659	-2.876504
C	-0.484337	-1.139563	0.78939
N	-0.927801	-1.972627	1.488847
N	-0.372701	1.280564	0.622604
H	0.375095	1.544297	1.252903
H	-1.228716	1.19613	1.156663
Cl	3.315417	0.0	0.0
