14

C	-0.538662	-0.004611	-1.428929
C	0.0	0.0	0.0
Cl	0.173283	1.463897	-2.288546
H	1.098048	0.0	0.0
H	-0.13056	-0.848155	-1.984121
N	-1.954085	-0.013316	-1.419018
H	-2.336844	0.111873	-2.345491
H	-2.270435	0.727766	-0.803703
C	-0.460869	-1.221535	0.665748
N	-0.807465	-2.201839	1.211258
N	-0.549246	1.175387	0.708562
H	0.072183	1.946484	0.484436
H	-0.446194	1.015551	1.704332
Cl	3.356513	0.0	0.0
