14

C	-0.503579	0.017134	-1.442589
C	0.0	0.0	0.0
Cl	-0.067948	1.543118	-2.244816
H	1.094458	0.0	0.0
H	0.027758	-0.763517	-1.998081
N	-1.956053	-0.10999	-1.457779
H	-2.294375	0.040006	-2.401031
H	-2.193225	-1.061019	-1.189568
C	-0.439894	-1.298315	0.562795
N	-0.870588	-2.296818	1.010543
N	-0.49038	1.136022	0.751643
H	-1.484463	1.043449	0.922931
H	0.01245	1.203491	1.628826
Cl	3.361863	0.0	0.0
