14

C	-0.309291	-0.072775	-1.484199
C	0.0	0.0	0.0
Cl	-2.097995	-0.18281	-1.777939
H	1.097438	0.0	0.0
H	-0.036925	0.900676	-1.902728
N	0.347346	-1.21663	-2.046204
H	1.31198	-1.214623	-1.713685
H	0.357709	-1.154571	-3.056983
C	-0.474216	-1.197457	0.709947
N	-0.874597	-2.092791	1.357057
N	-0.467601	1.249227	0.579403
H	0.112697	1.467599	1.379754
H	-1.427086	1.156275	0.889589
Cl	3.305997	0.0	0.0
