14

C	-0.307847	-0.072531	-1.490067
C	0.0	0.0	0.0
Cl	-2.060143	-0.286459	-1.826264
H	1.10398	0.0	0.0
H	-0.076212	0.91593	-1.906625
N	0.431732	-1.170585	-2.049901
H	1.402154	-1.087185	-1.746739
H	0.395963	-1.135885	-3.06008
C	-0.490363	-1.180165	0.704347
N	-0.871546	-2.09884	1.328631
N	-0.540944	1.229093	0.592611
H	0.18272	1.937794	0.507505
H	-0.670272	1.084233	1.587277
Cl	3.331534	0.0	0.0
