14

C	-0.327196	0.208835	-1.490838
C	0.0	0.0	0.0
Cl	-0.13183	-1.378371	-2.412439
H	1.094873	0.0	0.0
H	-1.381707	0.457232	-1.640705
N	0.514521	1.247388	-1.959854
H	0.413704	1.396317	-2.953734
H	1.48724	1.027749	-1.743894
C	-0.570304	-1.232181	0.539568
N	-1.08109	-2.192842	0.980214
N	-0.422246	1.128524	0.823494
H	-1.362498	1.41557	0.569014
H	0.203905	1.898639	0.622553
Cl	3.334146	0.0	0.0
