16
Coordinates from ORCA-job run
  C   0.65448430437532      0.61392412329568      0.30644478419048
  C   -0.29838489747877     -0.47757719334201     -0.21152870980662
  F   -0.01600131613084      1.82854650153051      0.30707653132452
  H   0.27768588535971     -1.39366644367311     -0.35712185324559
  N   1.10330797615752      0.33589408851490      1.61630710021113
  H   1.10696662580424     -0.64209410315604      1.86480896403395
  H   1.96735064173073      0.79699917029109      1.85796167302350
  C   1.75001810643699      0.75787672048107     -0.68644468240982
  N   2.64367516365223      0.82643046843030     -1.44615391203749
  C   -1.04378059482936     -0.06732245941079     -1.46209915238249
  H   -0.33409604512940      0.11747043737834     -2.27066595479979
  H   -1.71793349561802     -0.86724619596273     -1.77191975923877
  H   -1.62476816735186      0.83322989474432     -1.27878081066262
  N   -1.25917490591703     -0.80468034301245      0.89808400264947
  O   -0.92670386408363     -1.72396133909039      1.64773648918992
  O   -2.28064541697784     -0.13482332701871      0.98829528996024
