16
Coordinates from ORCA-job run
  C   0.66277463569760      0.66483570908310      0.36105345196598
  C   -0.21220936320546     -0.43088629866248     -0.29686565178689
  F   -0.10737040194430      1.79758756984223      0.51696516100896
  H   0.45068422883367     -1.20968897761352     -0.67982080458055
  N   1.26103098648102      0.36937672811611      1.62020406716027
  H   0.57071759344896      0.06522245900939      2.29419536414726
  H   2.02571411783995     -0.28695522390376      1.54974603254979
  C   1.73581187270685      0.97365108896042     -0.61263482298827
  N   2.57203005228965      1.18170977427616     -1.40980239107227
  C   -1.13574184523276      0.09282943907366     -1.38184727169575
  H   -0.55236250830194      0.59887903002140     -2.15327725107957
  H   -1.67400477932722     -0.73679461908721     -1.84349000269436
  H   -1.84725024835355      0.79959459800961     -0.95708658202944
  N   -1.03669313533109     -1.12058718905923      0.74458705175523
  O   -1.10664152662265     -2.34516704691090      0.67490204749838
  O   -1.60548967897872     -0.41260704115497      1.57417160184123
