16
Coordinates from ORCA-job run
  C   0.79170725082832      0.22695696899471      0.54753589355465
  C   -0.55835493543065     -0.43007470993292      0.20194062823202
  F   1.64592397821114     -0.85719154785406      0.85041996563756
  H   -0.95812150906784     -0.86356204479307      1.11978297517753
  N   1.26064157988182      1.03891637034534     -0.49645751435130
  H   2.13334152728254      1.49632725977986     -0.26992772872324
  H   1.32832168755153      0.54764752420502     -1.37679860340927
  C   0.71612033923678      1.02435399436417      1.78654383616142
  N   0.70481164177933      1.64142561228204      2.78505774284688
  C   -0.46451323585169     -1.46746320811007     -0.89725517269236
  H   -0.12051678537930     -1.03974383952866     -1.83779703746914
  H   0.21151826209253     -2.26281925005797     -0.58616390658704
  H   -1.45169460203432     -1.89558711962293     -1.07685832383759
  N   -1.51405794711253      0.67018655454805     -0.16520711222604
  O   -1.68442285264542      0.90560947728856     -1.35721186752083
  O   -2.03770439934225      1.26601795809196      0.77339622520676
