16
Coordinates from ORCA-job run
  C   0.69296255589540      0.20730305561102      0.69062575293662
  C   -0.47741165797311     -0.57948117021543      0.10123175450133
  F   0.60839698619944      0.12615526630580      2.06383918128069
  H   -0.35833761894785     -1.60252080298317      0.45799142174037
  N   1.92365693136393     -0.43773359459727      0.31299474705567
  H   2.67762729449599     -0.03532373033823      0.86055630377913
  H   2.12909095231337     -0.27285910675260     -0.66554424724834
  C   0.66166454881674      1.64743694618435      0.33247962182882
  N   0.76280015854710      2.76725400604470     -0.00861955614829
  C   -0.58230365634389     -0.48961981310719     -1.40788396669978
  H   -1.47061527902814     -1.02420901473465     -1.74888555327496
  H   0.28407342464246     -0.96166821472435     -1.87461182963365
  H   -0.65744112102808      0.54894691152435     -1.73250436566635
  N   -1.74833932305465     -0.08596886886959      0.72310518668943
  O   -2.34676477038247     -0.86320976548912      1.46156217355245
  O   -2.09805942551624      1.05649789614140      0.43466337530685
