16
Coordinates from ORCA-job run
  C   0.73091265457241      0.31482342306318      0.57175174676564
  C   -0.43138564092458     -0.55156321489826      0.07853552794392
  F   0.63119264941751      0.36466812585672      1.97090703064387
  H   -0.23619346142393     -1.57603846604197      0.40346229511997
  N   1.94642328164094     -0.26199149589922      0.13343787829201
  H   2.07503505969316     -1.18053333902874      0.54091488287875
  H   2.74038900106037      0.32533813850743      0.35532151200932
  C   0.66461588114892      1.70551058476392      0.08565864090792
  N   0.68061615008206      2.80436473684640     -0.32646904754092
  C   -0.66587082026205     -0.45741281826907     -1.41519606979934
  H   -0.93950168682833      0.56126678878454     -1.69242893563855
  H   -1.47280939585005     -1.13170197325164     -1.70813622556235
  H   0.24388493655659     -0.74024455074425     -1.94441496308502
  N   -1.67781519433531     -0.15568018084578      0.80934826955242
  O   -2.23877349557681     -1.02590127521326      1.46911689859061
  O   -2.05171991897089      1.00509551637008      0.66919055892176
