16
Coordinates from ORCA-job run
  C   0.79310885617006      0.06168325683984      0.72925063085416
  C   -0.55403705817005     -0.42324630410681      0.13859180368945
  F   1.36790672283555     -1.10470050606365      1.21195185788537
  H   -1.06652240745410     -0.99718920679053      0.91203119215246
  N   1.75203064950900      0.67463794077784     -0.12632325621065
  H   1.39664098233984      1.55206266769428     -0.48424370422598
  H   1.97716398818047      0.05897618266405     -0.89828927522116
  C   0.52013570747357      0.95557535896562      1.87489576554552
  N   0.26519391119589      1.65239171704188      2.78450735278027
  C   -0.38799338102649     -1.22939547663015     -1.13524894903117
  H   0.30111922946449     -2.05602414467806     -0.95617995570329
  H   -1.35056174247628     -1.64242271376698     -1.44109957437173
  H   -0.00679462013175     -0.60393193807128     -1.94377446801326
  N   -1.44427985138383      0.74660088519459     -0.14018292537264
  O   -0.94090886374956      1.70944765920567     -0.72042653332743
  O   -2.62020212277684      0.64653462172368      0.19454003857009
