16
Coordinates from ORCA-job run
  C   0.86356350770068      0.20171099807473      0.60795709737434
  C   -0.50876670723829     -0.42872259857258      0.26096967355940
  F   1.57057950774151     -0.85162644941393      1.16556068238744
  H   -0.88934692952971     -0.90834223057219      1.16384389250931
  N   1.66875816571199      0.73758726510333     -0.43717413695548
  H   1.21136358359359      1.53223953552241     -0.86604893913842
  H   1.84496013356970      0.02998386561279     -1.14010092168375
  C   0.66721309246617      1.23457003622273      1.64795809211941
  N   0.50066224172828      2.03636020014821      2.48894545025751
  C   -0.43752332500129     -1.39993069457417     -0.90114519487412
  H   -0.19027937920980     -0.88012744446483     -1.82749526099499
  H   0.31754068723205     -2.15976968969358     -0.69420832763671
  H   -1.40033087838603     -1.89728829169678     -1.02988800733208
  N   -1.49268473171410      0.65184649675144     -0.05808781020165
  O   -1.15573759001845      1.47870832103175     -0.90658186645507
  O   -2.57097137864631      0.62280068052065      0.52649557706485
