16
Coordinates from ORCA-job run
  C   0.74745358783762      0.20175899229808      0.60120844413008
  C   -0.45372784061010     -0.53860703783757      0.00635975524432
  F   0.65872810230276      0.05998549100582      1.99479718830598
  H   -0.30037273928297     -1.60551847431030      0.18362167836223
  N   1.93469249706097     -0.35792149291441      0.07220217485495
  H   2.02552601110365     -1.32916846542423      0.34586041437882
  H   2.75406657968937      0.15828829662246      0.36686569714056
  C   0.73700618523235      1.64816294611032      0.31389889444563
  N   0.79468052542814      2.79124136799855      0.05382599713089
  C   -0.69322378134832     -0.22771835153096     -1.45683776765141
  H   0.20007037488885     -0.47221072923804     -2.03128605051417
  H   -1.53050188982585     -0.82006937585836     -1.83062372329352
  H   -0.92412185426892      0.83021339568873     -1.58669190240977
  N   -1.67735839114678     -0.19706986558243      0.80045541277117
  O   -2.26866108366483     -1.12626952038769      1.34284535355628
  O   -2.00425628339595      0.98590282336007      0.82449843354798
