16
Coordinates from ORCA-job run
  C   0.79827860315557      0.40185192301659      0.26445165000621
  C   -0.41408448557386     -0.49469783136611     -0.06289441185563
  F   0.30980834222291      1.72604345179027      0.25928518237862
  H   -0.15266434758589     -1.52306569992982      0.19401455791742
  N   1.42823348052408      0.04134720888972      1.46799960436081
  H   0.76720791867001     -0.03399772350073      2.23052899142530
  H   2.18704321221044      0.67027605509220      1.69637016222233
  C   1.78533137440887      0.33199778674930     -0.83194733315992
  N   2.57358197506253      0.27051872727391     -1.69964601108121
  C   -0.90514770181588     -0.35739318764079     -1.48644714937088
  H   -1.09420576839092      0.68676613811795     -1.73151392587498
  H   -0.15713234651568     -0.75983511958215     -2.17070559470953
  H   -1.83129304848460     -0.91604171218108     -1.61978253625642
  N   -1.50173200456425     -0.10890682996424      0.91340125095794
  O   -2.48047786715009      0.49065860942939      0.48883398912284
  O   -1.31274733617322     -0.42552179619440      2.08905157391710
