16
Coordinates from ORCA-job run
  C   0.76655840582888      0.45290549837248      0.27619715940537
  C   -0.38108180098257     -0.51988782097842     -0.06670674777795
  F   0.19712886613667      1.74426204006890      0.25073524128313
  H   -0.06050689331177     -1.52770769177936      0.20415510226843
  N   1.39378557573404      0.14056468419201      1.49442778896061
  H   2.10751172607769      0.81668895515911      1.73285333823248
  H   0.72358032353583      0.02829427820308      2.24427040249881
  C   1.77704504486671      0.43687667930607     -0.80071606600809
  N   2.58515786190229      0.41904587753662     -1.65195958437291
  C   -0.85192581079109     -0.42359890879033     -1.50041616536202
  H   -0.06747800940524     -0.78381100299996     -2.16717920079034
  H   -1.10008521624207      0.60529344130714     -1.75725063021647
  H   -1.73931682128717     -1.03901903885351     -1.64638876477524
  N   -1.50967001514630     -0.19616298376205      0.88546111067937
  O   -2.51509659477699      0.33871351537516      0.43748111957642
  O   -1.32460664213877     -0.49245752235704      2.06703589639832
