16
Coordinates from ORCA-job run
  C   0.70358434557599      0.48725628548552      0.36993553796654
  C   -0.29871694853834     -0.54035653893883     -0.19608673413676
  F   -0.06156797801576      1.62283737553581      0.71220897488547
  H   0.19387087289851     -1.51436681704633     -0.21846617928042
  N   1.45669639859811     -0.02503176771008      1.44031868890968
  H   0.86705763744753     -0.44145778928214      2.14950677787486
  H   2.07246995085885      0.67453276070650      1.83382787388988
  C   1.62589088092486      0.92831427823354     -0.69588440372694
  N   2.36427273634362      1.27045227205075     -1.54188553826046
  C   -0.87854173058993     -0.14975935281782     -1.53691579344433
  H   -1.30347250068539      0.85223041924521     -1.49694211215350
  H   -0.09601351729045     -0.18092331839919     -2.29608230489105
  H   -1.66568565294548     -0.84694523845213     -1.82300149121957
  N   -1.39453857761053     -0.67673765860273      0.83636559480169
  O   -1.08276909595473     -1.23812172207150      1.88791151299784
  O   -2.50053682101689     -0.22192318793666      0.57618959578711
