16
Coordinates from ORCA-job run
  C   0.69369691006846      0.21841840215569      0.68513309687421
  C   -0.47542745317542     -0.58101120111557      0.11021181490269
  F   0.61583182294246      0.15399544578319      2.05945003020848
  H   -0.35492967752941     -1.59698550505541      0.48626860561466
  N   1.92597690231069     -0.42361207595105      0.30944896764065
  H   2.12297449360522     -0.27461122072232     -0.67328657790809
  H   2.68143154042231     -0.00737906055979      0.84447911164413
  C   0.65093344749778      1.65474503191633      0.31196366925963
  N   0.74312748285357      2.77750174793929     -0.02181984527346
  C   -0.58015824914761     -0.51871910797381     -1.40015447659014
  H   -1.47023643148553     -1.05635514791141     -1.73154526981276
  H   -0.65290849809409      0.51381575319060     -1.74392035711011
  H   0.28468145679269     -1.00194247609427     -1.85812390776073
  N   -1.74682021607124     -0.07775178811595      0.72436917101848
  O   -2.32630760410035     -0.83024568994232      1.50234996635669
  O   -2.11286592688949      1.04813689245687      0.39417600093570
