16
Coordinates from ORCA-job run
  C   0.72832423137839      0.33101939601346      0.56190392827631
  C   -0.42990133599138     -0.55332883388385      0.09216014766607
  F   0.63304021268987      0.41207663090047      1.95956545800620
  H   -0.22956753715738     -1.56878320828289      0.44129804474774
  N   1.94644578985843     -0.24819043240304      0.13272817008294
  H   2.73638975764698      0.35124643773492      0.33606158570798
  H   2.08375740673433     -1.15365381523220      0.56603858776915
  C   0.65304724816898      1.71012766732801      0.04469924561045
  N   0.68481348184798      2.80380244478694     -0.38016783426551
  C   -0.66676165012620     -0.49591412226378     -1.40310257664485
  H   -1.46976813353332     -1.18188720788544     -1.67921814414021
  H   -0.94713418165459      0.51427426707364     -1.70382635276887
  H   0.24423882407045     -0.78532476729249     -1.92655119939937
  N   -1.67699470434751     -0.14510451230472      0.81501178028744
  O   -2.05462776101361      1.01107870633798      0.64871869316024
  O   -2.23430164857147     -1.00143865062707      1.49568046590432
