16
Coordinates from ORCA-job run
  C   0.71625406852949      0.21874996467737      0.66397398486065
  C   -0.47599702950651     -0.57360872626100      0.12867437956322
  F   0.67109360259410      0.17179046430023      2.04066857696693
  H   -0.34936276024253     -1.59035003906597      0.50050520896618
  N   1.93074919167130     -0.44481501839802      0.26686040455472
  H   2.10405080346861     -0.31207322598848     -0.72272008998629
  H   2.70460049994092     -0.02957532719256      0.77573210667767
  C   0.68544811686394      1.64990399264682      0.27132477120471
  N   0.78707074318012      2.75931003539496     -0.10200095203685
  C   -0.63257919266004     -0.51146860495030     -1.37750678092572
  H   -1.53175449826470     -1.05242646438272     -1.67757914538405
  H   -0.71925574427991      0.52137863292797     -1.71733920365368
  H   0.21722050956298     -0.99133155783236     -1.86624153082243
  N   -1.72462330583904     -0.06377295706890      0.78173604012007
  O   -2.31791069293369     -0.83569186862302      1.52967000019095
  O   -2.06500431208508      1.08398069981599      0.50424222970391
