16
Coordinates from ORCA-job run
  C   0.74848393323047      0.32777243076396      0.54208694253812
  C   -0.43050722472057     -0.54676628868930      0.10660011372378
  F   0.68967985905124      0.41601135937845      1.94159608392053
  H   -0.22915680896107     -1.56295739451342      0.45309247137564
  N   1.94871923042221     -0.26646610529128      0.08483224429841
  H   2.75072887249470      0.32360494525429      0.26686311123273
  H   2.08607732638069     -1.17340788038902      0.51488612757491
  C   0.67340419065400      1.70470139036917      0.01958115664840
  N   0.68030664622576      2.78965010261206     -0.42810728137519
  C   -0.70841699442874     -0.49209020773094     -1.38171224161822
  H   0.18487183636581     -0.79164631557355     -1.92945574468688
  H   -1.52499440506475     -1.17171232066813     -1.63255716311102
  H   -0.98777513577447      0.51964062985253     -1.67814233565047
  N   -1.65424470330247     -0.12673861942320      0.86172199591597
  O   -2.02408126925455      1.03350067144365      0.70733093621147
  O   -2.20509535331827     -0.98009639739528      1.55138358300177
