16
Coordinates from ORCA-job run
  C   0.81025001959097      0.10725510656945      0.55643482436340
  C   -0.57039328780862     -0.43776629065284      0.14456796592196
  F   1.62644193683233     -1.04133201772084      0.66413495383651
  H   -0.96662847611770     -1.00210136574038      0.98995470921589
  N   1.29221891637190      1.05684017565404     -0.35742801143068
  H   1.32573753795972      0.70842305893196     -1.30526653956134
  H   2.18588052988573      1.44118644699461     -0.08202419572464
  C   0.78842343924696      0.70066741752366      1.90716102008896
  N   0.81998965879347      1.15260517718112      2.99009064003920
  C   -0.53865108902797     -1.28362871162429     -1.11118167979920
  H   0.11857230843387     -2.13805834565516     -0.95429203094188
  H   -1.54340342519837     -1.64874089743592     -1.32840784209016
  H   -0.20474501403088     -0.71705997182513     -1.97920065953773
  N   -1.49228668584425      0.73885905411478     -0.01284849147663
  O   -1.97704571392975      1.18754103489310      1.02349889908388
  O   -1.67536065515737      1.17431012879181     -1.14519356198748
