16
Coordinates from ORCA-job run
  C   0.75230049834304      0.45596819342860      0.30838165596589
  C   -0.32837142817727     -0.52279649585079     -0.19676179267185
  F   0.05298649941294      1.56000162608266      0.84142075664717
  H   0.14654224291923     -1.49140825048659     -0.36430276822178
  N   1.63769626511939     -0.14126697934467      1.22203449402369
  H   2.30783300435650      0.52448483040686      1.58413004997375
  H   1.14487947603572     -0.61479087454172      1.96833104634227
  C   1.52626440126222      0.98217806446366     -0.83405124412445
  N   2.14609154308837      1.39426598596996     -1.74177637837612
  C   -1.08074108719748     -0.02475054138471     -1.41018091415949
  H   -0.40921519118471      0.00502080472672     -2.26915555738319
  H   -1.90771376390128     -0.69588160401101     -1.64085574239296
  H   -1.48441798983739      0.97107082686343     -1.23254740713238
  N   -1.27496773980918     -0.74300384513200      0.96112867455399
  O   -0.82932063944886     -1.38879342297711      1.91112739308070
  O   -2.40084609098124     -0.26829831821329      0.89207773387476
