16
Coordinates from ORCA-job run
  C   0.74301356192693      0.33385007817432      0.54336389198384
  C   -0.42108698536502     -0.55667954651605      0.10005162040787
  F   0.68629608523075      0.40417131015642      1.94392445341598
  H   -0.20131967561392     -1.57300146985779      0.43473594847778
  N   1.95275467370242     -0.23240604033275      0.07587781201844
  H   2.10795309549640     -1.14186665492146      0.49439399672014
  H   2.74420206161301      0.37006680449311      0.26356880982509
  C   0.64137027521171      1.71585805624806      0.03888910340128
  N   0.63395061745431      2.81192178588173     -0.38084061502939
  C   -0.70208153613246     -0.48975257832137     -1.38717746364936
  H   -0.99984530364932      0.52021109290232     -1.67150699328839
  H   -1.50681303605866     -1.18073292898112     -1.64520664870128
  H   0.19571030861116     -0.76695298260317     -1.93929871483862
  N   -1.65031970345965     -0.16648293680324      0.86214401459859
  O   -2.04274961997345      0.98771405161399      0.71829669393890
  O   -2.18103481899419     -1.03491804113300      1.54878409071915
