16
Coordinates from ORCA-job run
  C   0.89794864475995      0.17009469594516      0.46519267511825
  C   -0.40201158906086     -0.59433425660457      0.14588227207920
  F   1.89110782744712     -0.81912266459523      0.44729284974302
  H   -0.58900646255050     -1.29184886327256      0.96247605851951
  N   1.18066793091720      1.17503196264755     -0.47769073609168
  H   0.42551900788976      1.37952001928464     -1.11453227576535
  H   1.59381176327264      2.01138785846156     -0.09725087100393
  C   0.89081878954905      0.68788233475480      1.85084312877797
  N   0.92027741636112      1.16357621514881      2.92438446390817
  C   -0.34953961414565     -1.30472391921494     -1.19175429467838
  H   0.42792301597578     -2.06661144464595     -1.15168745813375
  H   -0.13088753284895     -0.62419631836319     -2.01204870462947
  H   -1.30768558078574     -1.78830287174705     -1.38921879407468
  N   -1.53828048644453      0.38386092929330      0.19809284280142
  O   -1.78548293872039      1.01631651865717     -0.82972440236129
  O   -2.12318019161600      0.50246980425043      1.27174324579096
