16
Coordinates from ORCA-job run
  C   0.82586534329774      0.08704156748442      0.59909488989017
  C   -0.53628945374890     -0.48119069283607      0.16652667608864
  F   1.53887338241069     -1.00024144252911      1.08756376089698
  H   -0.94278105302220     -1.01539523588171      1.02587495429226
  N   1.55184491466875      0.64075237970071     -0.48595033497338
  H   2.37107591672225      1.14107139696447     -0.16473877928760
  H   0.96150478255096      1.25345537767952     -1.03526691540286
  C   0.64472669365134      1.00388937881951      1.75506441001200
  N   0.50218957394670      1.77752270488796      2.62810483717479
  C   -0.44362550444207     -1.37026514428748     -1.05788901644713
  H   -0.12561487050460     -0.80441352109990     -1.93128078530774
  H   -1.41584738786473     -1.82682616750719     -1.25397790785531
  H   0.28524772573861     -2.15813965417208     -0.86789809508075
  N   -1.49790898205480      0.64035765913071     -0.08525170184729
  O   -1.20266288604200      1.43818472561281     -0.97696283402413
  O   -2.51759819530773      0.67519666803344      0.59598684187129
