16
Coordinates from ORCA-job run
  C   0.71433518742199      0.21924108766811      0.66716311235859
  C   -0.46761841762554     -0.58181149053407      0.12158388910257
  F   0.67093089444568      0.15243428747770      2.04319368380569
  H   -0.32778988191857     -1.60136025560926      0.48086774283828
  N   1.93737140414773     -0.42093411352198      0.25988224475064
  H   2.10307665036101     -0.28045026275292     -0.72987637217712
  H   2.70741432832571      0.00327404090807      0.76707075049164
  C   0.66179813380240      1.65529048984458      0.29500427574728
  N   0.74521820384756      2.77093679320198     -0.06401182432137
  C   -0.62576410417085     -0.50255717437285     -1.38355612548743
  H   -1.51931326080715     -1.04919126932717     -1.69008544821050
  H   0.22869068699607     -0.96721073133759     -1.87885635656684
  H   -0.72397578986178      0.53333094100414     -1.71066522587994
  N   -1.72228888341524     -0.09621065697903      0.78212458531519
  O   -2.08435209320026      1.04602144597829      0.50947284153332
  O   -2.29773305834876     -0.88080313164799      1.53068822670002
