14

C	0.0	0.0	0.0
C	-0.520291	-0.0275	-1.428796
Cl	1.790499	0.0	0.0
H	-1.614254	0.050696	-1.381659
H	-0.328273	-0.932654	0.461006
H	-0.191502	-0.925915	-1.946759
C	-0.47744	1.185013	0.81855
H	-0.06875	2.11469	0.422919
H	-1.567915	1.208015	0.774787
H	-0.151776	1.071026	1.854431
N	0.005918	1.106873	-2.2328
O	0.86575	0.857338	-3.080717
O	-0.438979	2.230643	-1.998967
Cl	-3.67529	0.0	0.0
