15

C	-0.460781	0.016108	-1.43478
C	0.0	0.0	0.0
Br	-2.620929	-0.281485	-1.33744
H	1.093219	0.0	0.0
H	-0.366933	-0.897306	0.497848
N	-0.11897	1.135126	-2.097948
H	-0.373582	1.207551	-3.068508
H	-0.174051	1.956422	-1.511873
N	-0.10177	-1.214672	-2.227322
O	-0.054668	-1.084825	-3.446819
O	0.09651	-2.245787	-1.601392
N	-0.411708	1.265637	0.609903
H	0.296203	1.533715	1.279489
H	-1.298368	1.163546	1.083657
Br	3.525234	0.0	0.0
