15

C	-0.61232	0.018799	-1.387737
C	0.0	0.0	0.0
Br	0.265573	-1.426506	-2.4856
H	1.091456	0.0	0.0
H	-0.354907	0.904258	0.501956
N	-2.006589	-0.086972	-1.325043
H	-2.22139	-0.825554	-0.662948
H	-2.421201	-0.243376	-2.23329
N	-0.297157	1.295005	-2.147402
O	-0.897765	1.45136	-3.206832
O	0.492328	2.08267	-1.639184
N	-0.545998	-1.181946	0.695876
H	0.097009	-1.948732	0.524136
H	-0.500214	-0.999301	1.690883
Br	3.648002	0.0	0.0
