15

C	-0.611218	-0.084742	-1.398222
C	0.0	0.0	0.0
Br	0.042009	-1.674047	-2.299318
H	1.092748	0.0	0.0
H	-0.354699	0.948347	0.416656
N	-2.050749	-0.102869	-1.427747
H	-2.308118	-0.803982	-0.73677
H	-2.353797	0.799273	-1.071091
N	-0.194443	1.166231	-2.17538
O	-0.704816	2.198987	-1.736584
O	0.573931	1.097868	-3.119111
N	-0.558927	-1.104657	0.795323
H	0.079383	-1.888525	0.708691
H	-0.533895	-0.829665	1.769868
Br	3.60698	0.0	0.0
