15

C	-0.475013	-0.104488	-1.426592
C	0.0	0.0	0.0
Br	-2.614211	-0.436437	-1.289624
H	1.093969	0.0	0.0
H	-0.359236	-0.856154	0.571408
N	-0.156677	0.969815	-2.180376
H	-0.454154	0.96296	-3.142041
H	-0.254028	1.829892	-1.654951
N	-0.088433	-1.387845	-2.121834
O	0.138926	-2.358851	-1.41447
O	-0.05599	-1.357858	-3.348676
N	-0.420349	1.306953	0.508677
H	0.296956	1.642046	1.138957
H	-1.294554	1.229638	1.012142
Br	3.542856	0.0	0.0
