13

C	-0.472686	0.021953	-1.433817
C	0.0	0.0	0.0
Br	0.468748	1.42759	-2.404005
H	1.091094	0.0	0.0
H	-0.299982	0.950603	0.453502
N	-0.141802	-1.303751	-2.151813
O	-0.757238	-1.514575	-3.19238
O	0.709991	-2.013604	-1.643903
C	-1.904572	0.25534	-1.604505
N	-3.058483	0.478873	-1.658589
C	-0.600432	-1.097432	0.730265
N	-1.081502	-1.984419	1.334769
F	2.493813	0.0	0.0
