13

C	-0.381698	0.008763	-1.466202
C	0.0	0.0	0.0
Br	0.398244	1.541662	-2.361981
H	1.0911	0.0	0.0
H	-0.351831	-0.932035	0.449943
N	0.151242	-1.289772	-2.1379
O	0.311201	-2.246809	-1.394579
O	0.281392	-1.279764	-3.353177
C	-1.813962	0.005321	-1.744045
N	-2.975273	-0.045382	-1.921133
C	-0.567295	1.134775	0.69007
N	-1.011579	2.052326	1.277576
F	2.494879	0.0	0.0
