13

C	-0.210186	0.054211	-1.481848
C	0.0	0.0	0.0
Br	-2.085332	0.324195	-2.091087
H	1.093505	0.0	0.0
H	-0.324878	-0.976707	0.366271
N	0.55636	1.236746	-2.097867
O	1.057496	1.055812	-3.199755
O	0.545286	2.273086	-1.458061
C	0.263324	-1.175112	-2.105974
N	0.589444	-2.201823	-2.576558
C	-0.62193	1.051428	0.767091
N	-1.12908	1.859389	1.45457
F	2.463934	0.0	0.0
