13

C	-0.293762	0.066625	-1.462985
C	0.0	0.0	0.0
Br	-2.226729	0.23744	-1.924076
H	1.091878	0.0	0.0
H	-0.355218	0.90852	0.487733
N	0.338003	1.347543	-2.031281
O	0.876963	1.267547	-3.126643
O	0.196789	2.355232	-1.357547
C	0.211802	-1.081169	-2.201317
N	0.578867	-2.02167	-2.803232
C	-0.554132	-1.182497	0.612871
N	-0.987758	-2.142878	1.135193
F	2.464342	0.0	0.0
