13

C	-0.516687	0.019031	-1.420287
C	0.0	0.0	0.0
Br	0.420314	1.394294	-2.437348
H	1.091447	0.0	0.0
H	-0.297475	0.945213	0.467228
N	-0.220138	-1.313178	-2.134344
O	0.778535	-1.912492	-1.775602
O	-0.998516	-1.636853	-3.027695
C	-1.949499	0.271626	-1.546825
N	-3.101686	0.506849	-1.574848
C	-0.577841	-1.105475	0.737063
N	-1.035002	-2.00434	1.344058
F	2.493053	0.0	0.0
