13

C	-0.325396	-0.038705	-1.489344
C	0.0	0.0	0.0
Br	0.05869	1.68701	-2.275983
H	1.093552	0.0	0.0
H	-0.352433	0.948381	0.409946
N	0.569535	-1.127296	-2.145943
O	0.32983	-2.247314	-1.714403
O	1.375404	-0.820525	-3.002885
C	-1.700697	-0.388457	-1.829221
N	-2.812649	-0.668796	-2.089563
C	-0.578042	-1.096684	0.746263
N	-1.042397	-1.947019	1.413413
F	2.489205	0.0	0.0
