13

C	-0.463104	0.021039	-1.437693
C	0.0	0.0	0.0
Br	0.452269	1.453522	-2.392911
H	1.091149	0.0	0.0
H	-0.30205	0.951111	0.451217
N	-0.095623	-1.288236	-2.166207
O	-0.651745	-1.472508	-3.244334
O	0.720163	-2.015129	-1.62468
C	-1.899392	0.208574	-1.62057
N	-3.060094	0.388215	-1.688416
C	-0.607145	-1.09416	0.73201
N	-1.101884	-1.968217	1.344517
F	2.495485	0.0	0.0
