12
Coordinates from ORCA-job run
  C   0.59169781143390     -0.79102676464601     -0.07383700407337
  C   -0.28401804962105      0.23797559995899      0.05964681778191
  H   0.20664261136436     -1.80699247318891     -0.11643377846290
  N   1.96258246407926     -0.69631246853063     -0.07512883544548
  H   2.45597396427071     -1.42775719431971     -0.55850662284637
  H   2.34464827553874      0.22562384475957     -0.22987812173770
  C   0.24767272860239      1.56108026643438      0.09725557945883
  N   0.72478973724384      2.63851570909607      0.11271946521348
  C   -1.77318786252679      0.05290432327727      0.17360059525753
  H   -2.14771578392696      0.42375177989259      1.13156169192992
  H   -2.02742109467709     -1.00656334259845      0.09898945011292
  H   -2.30166480178130      0.58880071986485     -0.61898923718878
