12
Coordinates from ORCA-job run
  C   0.59081449481391     -0.79260890397169     -0.04584848933363
  C   -0.28467805049448      0.24066349618795      0.05189641541581
  H   0.20478840086744     -1.80922973079484     -0.05280497319305
  N   1.96135738361233     -0.69847627701618     -0.04888117413835
  H   2.34475579393761      0.21762481815081     -0.23166819003338
  H   2.45627728250884     -1.44663831453119     -0.50428945869409
  C   0.24851867499898      1.56348114778791      0.04362010794276
  N   0.73196945026288      2.63801796593084      0.02157034385130
  C   -1.77415502304493      0.05916649214953      0.16885387026679
  H   -2.30076056299799      0.57321752103825     -0.63950259499233
  H   -2.02888810421320     -1.00199084646739      0.12245092533958
  H   -2.14999974025139      0.45677263153601      1.11560321756859
