12
Coordinates from ORCA-job run
  C   1.09332827106995     -0.05154686824087     -0.12206274904702
  C   -0.08960770599664      0.60164539708388     -0.00345799645787
  H   2.02146108187035      0.50780285838338     -0.19779076541398
  N   1.21855161127408     -1.41622423216940     -0.24519493998215
  H   0.45334501267760     -1.97361143279123      0.09967427823431
  H   2.12295775761939     -1.79762725249762     -0.02524409070237
  C   -0.07500670268702      2.02451345874286      0.05491615346024
  N   -0.09141968475323      3.20071490721779      0.10943975946670
  C   -1.40621756944283     -0.13108170898525      0.06917643486906
  H   -2.24301888813071      0.56600200937655      0.03708796987886
  H   -1.51197876040409     -0.82153243869623     -0.77370370234421
  H   -1.49339442309683     -0.70905469742386      0.99615964803843
