12
Coordinates from ORCA-job run
  C   1.08165282106717     -0.04142374277580     -0.20266128557799
  C   -0.09701693148695      0.59823782791310      0.00149752432317
  H   1.99309719010158      0.53069851699132     -0.34942304731386
  N   1.21488905392974     -1.40505555705246     -0.33850637379317
  H   2.13770894175273     -1.77166540251107     -0.17592220513571
  H   0.48545895918827     -1.96790141443365      0.06982572600270
  C   -0.08971867265564      2.02132904400295      0.06353909818277
  N   -0.11279274119566      3.19724066838761      0.12107436293974
  C   -1.39822970029000     -0.14522593695258      0.17149770726862
  H   -1.42454491383960     -0.70252986530404      1.11446476076517
  H   -2.24308819264761      0.54287650683808      0.17271479107915
  H   -1.54641581392405     -0.85558064510346     -0.64810105874059
