12
Coordinates from ORCA-job run
  C   0.59408861629293     -0.78874908760330     -0.07950471590164
  C   -0.28676798791995      0.23553294341369      0.05534800082834
  H   0.21117365937500     -1.80110431466214     -0.18558145241963
  N   1.96326986510910     -0.69814854951914     -0.00545888251720
  H   2.48053041037327     -1.40737879784041     -0.49685968448734
  H   2.35366211246036      0.22875963570539     -0.09569065531332
  C   0.24310405048300      1.55408822131792      0.17969583091425
  N   0.72044343773873      2.62765250693605      0.26994000497496
  C   -1.78001070943533      0.05047940353400      0.08377669964880
  H   -2.03209010465969     -1.00342351409943     -0.05296085736111
  H   -2.26552077884963      0.62356993321128     -0.71042812055579
  H   -2.20288257096780      0.37972161960609      1.03672383218968
