12
Coordinates from ORCA-job run
  C   0.56359505117519     -0.78954366003505     -0.19995166495122
  C   -0.28217266404827      0.24333643511529      0.04739424091629
  H   0.16287126164960     -1.79973230188634     -0.24029081046811
  N   1.89996274275267     -0.69005795079900     -0.50447481363413
  H   2.46602731283348     -1.48964284072303     -0.27613914660883
  H   2.33893249187083      0.19486253819789     -0.29459202949147
  C   0.27442434381904      1.55548663651348      0.10726484551866
  N   0.77539675502060      2.62084246254668      0.15809191046299
  C   -1.76222754932499      0.07390406749129      0.25984031996614
  H   -2.06986923261461      0.46133202599493      1.23464475487349
  H   -2.33698156174580      0.60388100881276     -0.50444139864246
  H   -2.03095895138774     -0.98366842122889      0.21265379205865
