12
Coordinates from ORCA-job run
  C   0.95712304308713     -0.28784321315453     -0.46204171786648
  C   -0.13179754080993      0.50666957755658     -0.30937265633052
  H   1.73285937944990     -0.02124641264090     -1.17416669494468
  N   1.13299347937631     -1.49627634835276      0.17201803119815
  H   0.61247199478642     -1.63975905244372      1.02264662462070
  H   2.07861141384099     -1.83660758594287      0.21839540183582
  C   -0.20854464770157      1.70423976049046     -1.07641637604625
  N   -0.29506864166117      2.70149728092986     -1.69675415110525
  C   -1.25033296533378      0.16110711322630      0.64164683477773
  H   -0.91968494950101      0.21138970782140      1.68545721843389
  H   -2.08731924711970      0.84914428880068      0.52721524149189
  H   -1.62131131841360     -0.85131511629050      0.45237224393499
