12
Coordinates from ORCA-job run
  C   0.57527257503143     -0.77389087726453     -0.22726812919395
  C   -0.28444081983086      0.23943546467765      0.05208408724317
  H   0.17737775413305     -1.77447656031273     -0.37938793226901
  N   1.92868963473304     -0.65671218822589     -0.43405504982789
  H   2.47911678124394     -1.47614663795319     -0.24032007190447
  H   2.35330859231641      0.20456268360729     -0.12162075398080
  C   0.26784013929304      1.53822577614303      0.25973496596814
  N   0.76597544618093      2.59205796428829      0.43273876168798
  C   -1.77584787388558      0.06294276114749      0.14740399009767
  H   -2.04203772971499     -0.98504898175774     -0.00662680664732
  H   -2.15026174154543      0.37016900680291      1.12729711328602
  H   -2.29499275795496      0.65888158884742     -0.60798017445954
