12
Coordinates from ORCA-job run
  C   0.91620155832973     -0.26823703886264     -0.54882840888976
  C   -0.15992581088659      0.51390065491864     -0.28384776239514
  H   1.62780449896404      0.02293627441293     -1.31611702032785
  N   1.15218769752204     -1.49090314535639      0.03636379253706
  H   0.70620219928151     -1.66112189479505      0.92386340340531
  H   2.10050158686503     -1.82367453107733     -0.00523178680271
  C   -0.30916297926745      1.72952111354270     -1.01068328748274
  N   -0.45472266170189      2.74189837455218     -1.59434218807606
  C   -1.19222326721129      0.13408229436095      0.74830819122025
  H   -0.77117105275796      0.14746675339881      1.76000119291255
  H   -2.03347223218218      0.82628445668873      0.73296548703162
  H   -1.58121953695501     -0.87115331178353      0.55654838686747
