12
Coordinates from ORCA-job run
  C   1.07914795380505     -0.17129001059557      0.13964220814168
  C   -0.03847925604458      0.59673488942186      0.11120336133237
  H   2.03329946438416      0.26242326426427      0.42521707392230
  N   1.12796158000752     -1.48797948000284     -0.25860310757860
  H   0.25789775553518     -1.99600629097402     -0.24013152988158
  H   1.90728576747451     -2.02185424115029      0.08770347133147
  C   0.06745723119547      1.96302111794457      0.49899811496954
  N   0.12443419933057      3.09478416063239      0.81920863403358
  C   -1.37794014331076      0.04714017644128     -0.31180878605597
  H   -1.30446902566705     -0.44514129775222     -1.28676070295726
  H   -2.11822018604753      0.84234002830781     -0.39489480622455
  H   -1.75837534066253     -0.68417231653725      0.41022606896701
