12
Coordinates from ORCA-job run
  C   1.07393310739580     -0.04567169301021     -0.23868259294392
  C   -0.10532919884717      0.59718568191051     -0.04808018231908
  H   1.97298361130606      0.51951323331111     -0.46763957658571
  N   1.22137075642594     -1.41325629169179     -0.24911602477418
  H   2.15454279550587     -1.75816347800209     -0.10177214509339
  H   0.51425110867593     -1.94902955596387      0.22839984902367
  C   -0.12043257303858      2.01930908413062     -0.11998972894024
  N   -0.16005001418471      3.19517066156269     -0.17090719391657
  C   -1.38640355190647     -0.14583639103494      0.23765806372332
  H   -1.56318330496711     -0.91811483007336     -0.51799191935958
  H   -2.24057931183804      0.53079288051763      0.22969164032485
  H   -1.35910342452755     -0.63189930165629      1.21942981086079
