12
Coordinates from ORCA-job run
  C   1.09404119054184     -0.11559479625225     -0.00575668670517
  C   -0.05650413153721      0.60143261320105      0.03563456588826
  H   2.05312331103851      0.38742808757988      0.07936869983658
  N   1.16230541519546     -1.47028033346954     -0.24050616008988
  H   0.34272302002759     -2.01027467350792     -0.01355990134027
  H   2.02207878813812     -1.91860604140062      0.02667499576627
  C   0.03032671314306      2.00532055826654      0.26007384539571
  N   0.07127534992410      3.16615869399036      0.45394450898961
  C   -1.41392601508511     -0.03773880597175     -0.11677334946025
  H   -2.17591186968581      0.71464956587741     -0.32016225336010
  H   -1.41458538103575     -0.74622360137094     -0.95106160479677
  H   -1.71294639066482     -0.57527126694221      0.79012333987600
