12
Coordinates from ORCA-job run
  C   1.03576167466115     -0.12380073358368     -0.35327848598737
  C   -0.13777622448461      0.54543858227965     -0.23126622634506
  H   1.84287700482678      0.29221411715070     -0.94964926379319
  N   1.33653480770742     -1.29271588408332      0.30778852080178
  H   2.08368113788634     -1.84020459954036     -0.08444066555953
  H   0.55565457421801     -1.84702953669413      0.62131603240351
  C   -0.29050806780896      1.77779695633570     -0.92857220822054
  N   -0.44503173587750      2.79659426337587     -1.49859095557120
  C   -1.27362556180629      0.02426663350132      0.61336006828534
  H   -2.07790598392310      0.75598900549219      0.68123796240171
  H   -0.93198428505849     -0.19523845313752      1.62994074776768
  H   -1.69767734034075     -0.89431035109641      0.19215447381688
