12
Coordinates from ORCA-job run
  C   0.99384216304164     -0.24839123186572     -0.40366559110599
  C   -0.12574361528659      0.51117914449033     -0.30566535236690
  H   1.80704300788572      0.05820564043829     -1.05542616972604
  N   1.16238162962270     -1.46708979584284      0.21240631833710
  H   0.59252336430759     -1.64626229155320      1.02380438801848
  H   2.11218754660594     -1.78280834065203      0.31223581823330
  C   -0.18745592369092      1.72676975824695     -1.04500664660319
  N   -0.26327230287705      2.73850927973889     -1.64276627335642
  C   -1.29420877831706      0.10739507971102      0.55842957005311
  H   -1.61928757118994     -0.91010857732887      0.31867468992225
  H   -2.14243546673764      0.77387847443148      0.40575304176726
  H   -1.03657405336436      0.13872286018571      1.62322620682703
