12
Coordinates from ORCA-job run
  C   0.57541702461759     -0.77758305166700     -0.21819981666441
  C   -0.28314994051437      0.23957288332458      0.04946797937387
  H   0.17682423489822     -1.78038122300400     -0.35285979157921
  N   1.92792078940921     -0.66362178185893     -0.43506390817651
  H   2.35343192365701      0.20268529571256     -0.13798223350587
  H   2.47846196539575     -1.47918346933597     -0.22556096831390
  C   0.26772697290480      1.54249315842611      0.23355490294515
  N   0.76103703824999      2.60144883234046      0.38841341990249
  C   -1.77414158230034      0.06430484813732      0.15521664204260
  H   -2.14379192119756      0.38750151885624      1.13172809150108
  H   -2.29694163216645      0.64787297909762     -0.60720086364222
  H   -2.04079487295385     -0.98610999002898      0.01948654611693
