12
Coordinates from ORCA-job run
  C   0.57593970802243     -0.79735017925132     -0.12160665418767
  C   -0.28088601298688      0.23793379615996      0.07138602531095
  H   0.16991044160405     -1.79542550057560     -0.26874661235429
  N   1.94807633965693     -0.73927920433927     -0.05972007469184
  H   2.44223555231980     -1.43209704666720     -0.59621439059223
  H   2.35453683106534      0.18370943874689     -0.11422618166286
  C   0.28020932868617      1.53770003287180      0.24722991873630
  N   0.78404253808649      2.59498391553449      0.37752519360841
  C   -1.77733168013288      0.08418845952468      0.10912213023914
  H   -2.25857635372407      0.70333670327518     -0.65245062357626
  H   -2.18325992497138      0.37804171983266      1.08087849555650
  H   -2.05389676762599     -0.95674213511226     -0.07217722638616
