15

C	0.0	0.0	0.0
C	-0.53729	0.36447	-1.373444
F	1.350635	0.0	0.0
H	-1.581141	0.677196	-1.191446
H	-0.561795	-0.532405	-1.99116
N	-0.353273	1.123386	1.011218
O	0.014075	0.916926	2.162208
O	-0.902498	2.139921	0.610017
N	-0.558493	-1.183834	0.517705
H	-1.596412	-0.957779	0.440891
H	-0.338779	-1.936732	-0.125327
N	0.252742	1.35603	-2.144443
O	0.889711	2.22268	-1.551227
O	0.202241	1.248548	-3.37365
F	-2.77179	0.0	0.0
