15

C	0.0	0.0	0.0
C	-0.279769	0.333771	-1.473437
F	1.35867	0.0	0.0
H	0.397298	-0.320877	-2.022026
H	-0.027966	1.376308	-1.64092
N	-0.304954	1.251892	0.906199
O	-0.397791	1.022147	2.108345
O	-0.335942	2.368317	0.399622
N	-0.557304	-1.161064	0.470136
H	-0.321084	-1.25116	1.453084
H	-1.62188	-0.90558	0.353111
N	-1.607823	0.110543	-2.110164
O	-2.223002	1.10895	-2.469114
O	-1.895915	-1.046452	-2.394323
F	-2.659281	0.0	0.0
