15

C	0.0	0.0	0.0
C	-0.506701	-0.035663	-1.445312
F	1.355819	0.0	0.0
H	-0.221466	-1.012478	-1.846375
H	-1.595541	0.071581	-1.360464
N	-0.398556	1.347652	0.626479
O	-0.388669	2.307946	-0.140566
O	-0.595558	1.402153	1.82979
N	-0.543564	-1.014388	0.800319
H	-0.262587	-1.908831	0.414955
H	-1.584639	-0.845651	0.663806
N	0.050113	0.950403	-2.415671
O	-0.75444	1.530968	-3.141592
O	1.27094	1.072555	-2.493636
F	-2.752784	0.0	0.0
