15

C	0.0	0.0	0.0
C	-0.565027	0.113083	-1.406065
F	1.369832	0.0	0.0
H	-0.341716	-0.82683	-1.912729
H	-1.646704	0.252298	-1.268549
N	-0.278585	1.34179	0.763172
O	-0.242954	1.276569	1.988029
O	-0.437266	2.367266	0.112506
N	-0.582185	-1.083956	0.633823
H	-1.623931	-0.871127	0.503438
H	-0.345278	-1.04408	1.619189
N	-0.013805	1.184812	-2.277216
O	-0.828783	1.788719	-2.973413
O	1.203079	1.362491	-2.323445
F	-2.823514	0.0	0.0
