15

C	0.0	0.0	0.0
C	-0.56142	0.179298	-1.38991
F	1.375812	0.0	0.0
H	-0.27386	1.138478	-1.808973
H	-1.663334	0.115006	-1.250888
N	-0.242221	1.403619	0.738266
O	-0.394067	1.348253	1.953943
O	-0.168933	2.442365	0.087365
N	-0.573607	-1.03542	0.694369
H	-1.611689	-0.847441	0.563725
H	-0.317193	-0.976399	1.672566
N	-0.107526	-0.845648	-2.363109
O	-0.421652	-0.620427	-3.534725
O	0.517987	-1.83433	-1.991689
F	-2.821364	0.0	0.0
