15

C	0.0	0.0	0.0
C	-0.564588	-0.031478	-1.415159
F	1.345425	0.0	0.0
H	-0.346707	-1.025838	-1.807711
H	-1.645208	0.136215	-1.307189
N	-0.28544	1.417254	0.619299
O	-0.305842	1.476931	1.845519
O	-0.382293	2.375725	-0.138367
N	-0.589361	-1.011322	0.74053
H	-1.63078	-0.80788	0.58479
H	-0.358649	-0.868871	1.717892
N	0.0287	0.924875	-2.386917
O	-0.752451	1.606377	-3.048875
O	1.25105	0.930369	-2.532223
F	-2.823479	0.0	0.0
