14
Coordinates from ORCA-job run
  C   -0.34542535013876     -0.56408510900765     -0.07373630990506
  C   1.01459940640790      0.19255835627494     -0.09379027208224
  Br  0.01462443340981     -2.40287692840849     -0.64477178492637
  H   1.40778221299285      0.12284565600910     -1.11580500289504
  C   -1.34529365894664      0.07438865988079     -1.03235582698879
  H   -0.92987909024994      0.09458149433975     -2.04217814047336
  H   -2.26796150709585     -0.50592857378291     -1.04408731862446
  H   -1.57324435324261      1.09312737170189     -0.70986076592667
  C   -0.86697287969051     -0.59987791906387      1.28861820441527
  N   -1.30087883066621     -0.58902589239011      2.38153030612002
  C   1.99176288610737     -0.39998067615182      0.82384940965188
  N   2.78333115185505     -0.86429242759075      1.55668758824063
  C   0.80503014634933      1.60812794627666      0.23316313277565
  N   0.61152543290821      2.74143804191246      0.47373678061854
