14
Coordinates from ORCA-job run
  C   -0.38144660485800     -0.61683943718532      0.12092366645164
  C   0.95287025005333      0.07317993020315      0.53844073170511
  Br  0.02210123285920     -2.50516960294993     -0.20834365699322
  H   1.35406112285108     -0.45454622036815      1.41188330650988
  C   -0.99081993392443      0.00691749023119     -1.12823531498615
  H   -1.91704560747742     -0.50779267520235     -1.38441061354516
  H   -0.29572937213719     -0.07788590258985     -1.96519107569853
  H   -1.21279764677798      1.06115802726275     -0.94187825260049
  C   -1.30202410319196     -0.54940003853876      1.25212475773977
  N   -2.04688305836317     -0.46576466440638      2.15829802605460
  C   0.69492251142381      1.47028275711785      0.90724138341755
  N   0.46187223324690      2.58388840518143      1.19960490589854
  C   1.93933251346141      0.01097667428553     -0.54414049661892
  N   2.72358646283442     -0.02900474304117     -1.41731736733463
