14
Coordinates from ORCA-job run
  C   -0.37955493379373     -0.61998543846932      0.11421121418109
  C   0.93862107648173      0.08189077063623      0.56211111752570
  Br  0.04745177015580     -2.50519228453455     -0.20315072724142
  H   1.32210077055993     -0.43882510498211      1.44751016551513
  C   -0.96466981887424     -0.00254662988565     -1.14969976650316
  H   -1.87981561597949     -0.52604946665270     -1.42735569771412
  H   -0.24912624863268     -0.08118571714341     -1.97008333857819
  H   -1.20085482586575      1.04978935012186     -0.96943036571808
  C   -1.32714241254380     -0.55952167459084      1.22335004046413
  N   -2.09212986610719     -0.48407798749273      2.11331866260798
  C   0.66132121980020      1.47936724391628      0.91513962728048
  N   0.41469760998776      2.59526423025384      1.18654942742554
  C   1.95174303490411      0.02276983829439     -0.49587914572760
  N   2.75835823990735     -0.01269712947131     -1.34859121351747
