14
Coordinates from ORCA-job run
  C   -0.45052018902577     -0.40824082920957      0.09207210300746
  C   0.74505415243193      0.55721344229243      0.33857788592498
  Br  0.15120182213043     -2.24752000857300      0.36835459666726
  H   0.35787584913026      1.57762489103643      0.20608925177877
  C   -0.99509658465465     -0.25563295436584     -1.32473414456522
  H   -1.85150797752205     -0.91539715491763     -1.46477521425819
  H   -0.22601338472138     -0.51637438280462     -2.05321788071609
  H   -1.31681372299506      0.77760132776195     -1.48596856615323
  C   -1.48265297084586     -0.11189483064764      1.08149165266953
  N   -2.32696547253823      0.16298411853670      1.85239540100543
  C   1.80619466494421      0.34491804337600     -0.64970261342264
  N   2.64024747910780      0.19908417786768     -1.46345745861715
  C   1.26995603628149      0.44905940517598      1.70219552754183
  N   1.67804029827689      0.38657475447112      2.80167945913726
