16

C	0.0	0.0	0.0
C	-0.530932	-0.018061	-1.429986
F	1.3928	0.0	0.0
H	-1.628905	0.017835	-1.31917
C	-0.380149	1.276733	0.639267
N	-0.558817	2.277672	1.225062
C	-0.474485	-1.18115	0.819374
H	-1.566456	-1.17722	0.847255
H	-0.107947	-2.104502	0.365389
H	-0.073604	-1.097587	1.831026
C	-0.157758	-1.285048	-2.086867
N	0.157223	-2.25395	-2.673
N	-0.069261	1.155496	-2.154036
H	-0.645658	1.300028	-2.972962
H	0.891817	1.031549	-2.447633
Br	-3.81337	0.0	0.0
