16

C	0.0	0.0	0.0
C	-0.382848	-0.125737	-1.51067
F	1.386958	0.0	0.0
H	-0.062588	-1.13967	-1.787668
C	-0.407794	1.321198	0.512649
N	-0.6519	2.396809	0.91588
C	-0.564055	-1.121323	0.835204
H	-0.189077	-1.048224	1.858041
H	-1.65636	-1.046026	0.846716
H	-0.261087	-2.081097	0.409188
C	0.462454	0.808996	-2.277787
N	1.111103	1.556773	-2.908314
N	-1.749964	0.060372	-1.909977
H	-2.058676	1.006429	-1.71721
H	-2.407252	-0.520442	-1.390849
Br	-4.398991	0.0	0.0
