16

C	0.0	0.0	0.0
C	-0.374774	0.27642	-1.489252
F	1.383789	0.0	0.0
H	0.019497	-0.599161	-2.026784
C	-0.409421	1.133389	0.849356
N	-0.692505	2.043349	1.535307
C	-0.574469	-1.298031	0.505393
H	-0.207171	-1.500836	1.512969
H	-1.664953	-1.218366	0.532661
H	-0.272103	-2.115402	-0.15414
C	0.410065	1.43974	-1.950376
N	1.029499	2.365216	-2.321578
N	-1.750536	0.461003	-1.848619
H	-2.327259	-0.341244	-1.62143
H	-2.17927	1.222032	-1.331031
Br	-4.398145	0.0	0.0
