16

C	0.0	0.0	0.0
C	-0.228198	0.161868	-1.530499
F	1.402254	0.0	0.0
H	0.39862	1.036943	-1.766608
C	-0.393643	1.224362	0.716635
N	-0.59926	2.204122	1.330313
C	-0.531891	-1.253073	0.634089
H	-0.186292	-2.11225	0.060999
H	-0.172022	-1.312582	1.664192
H	-1.625484	-1.203567	0.621493
C	-1.532056	0.492869	-2.121096
N	-2.268406	0.825066	-2.97784
N	0.267959	-1.056315	-2.182185
H	0.039497	-1.017234	-3.167529
H	1.276059	-1.077314	-2.086584
Br	-3.833065	0.0	0.0
