18

C	-0.461841	-0.069836	-1.453581
C	0.0	0.0	0.0
Cl	0.12753	1.35377	-2.358044
H	1.099869	0.0	0.0
C	0.047413	-1.31861	-2.126465
H	1.137967	-1.286851	-2.062376
H	-0.270758	-1.353381	-3.170809
H	-0.321503	-2.184504	-1.585188
N	-1.987039	-0.018028	-1.485243
O	-2.544436	1.074751	-1.419021
O	-2.568585	-1.104636	-1.478969
N	-0.396928	-1.21547	0.689921
H	-1.203474	-1.004886	1.266716
H	0.378223	-1.490069	1.285151
N	-0.528736	1.17987	0.698164
H	0.178405	1.403523	1.39545
H	-0.541844	1.972244	0.063171
H	2.82907	0.0	0.0
