18

C	-0.467848	-0.0469	-1.453211
C	0.0	0.0	0.0
Cl	0.14599	1.376521	-2.340743
H	1.09987	0.0	0.0
C	0.016889	-1.297009	-2.142941
H	-0.373081	-2.163142	-1.616277
H	-0.296852	-1.307098	-3.189457
H	1.10799	-1.29092	-2.075571
N	-1.992977	0.025934	-1.476749
O	-2.543545	1.122725	-1.50801
O	-2.580858	-1.052284	-1.367601
N	-0.38426	-1.223084	0.679481
H	0.398849	-1.504872	1.25948
H	-1.191018	-1.036184	1.262158
N	-0.549105	1.167019	0.70283
H	-0.454571	1.986144	0.11047
H	0.087901	1.323849	1.481491
H	2.837958	0.0	0.0
