14
Coordinates from ORCA-job run
  C   0.96158557126957     -0.00356393655847     -0.45652095831447
  C   -0.57881842672624     -0.12248078350582     -0.36520791178983
  F   1.34304004104780      0.66659540258200     -1.58891669106582
  H   -0.94006483566929     -0.43120814450889     -1.35010753678604
  C   1.46882337036344      0.69126884883576      0.73963355368135
  N   1.81161319219234      1.22333644651577      1.72949103496830
  C   1.53192121064136     -1.36036247700715     -0.52093147971263
  N   2.02849990067454     -2.41926328067972     -0.62736516060499
  N   -1.18113965966421      1.28509035819803     -0.14617676350543
  O   -0.67516763133294      2.21608614819369     -0.75922291864361
  O   -2.14687628075747      1.34063587855699      0.60632905506003
  N   -0.93474054679517     -1.05201477439982      0.63216695800829
  H   -0.79498443827392     -0.68190363642785      1.56485266923478
  H   -1.89469146696981     -1.35221604979452      0.54397614947006
