14
Coordinates from ORCA-job run
  C   0.92803564523451      0.03151285414910     -0.52023664764691
  C   -0.58815283441514     -0.19519705147893     -0.31310180130606
  F   1.18130331752108      0.63091962278390     -1.72595096324765
  H   -0.98430819838443     -0.61361261253612     -1.24261178568187
  C   1.45425040759792      0.85895218807764      0.57958289747242
  N   1.81866445969042      1.49083613893850      1.50058521887314
  C   1.60090387358085     -1.27933384733039     -0.51788663613400
  N   2.17255494756222     -2.30362112122551     -0.57759966846136
  N   -1.29052265454084      1.17512786770533     -0.16665220950450
  O   -2.22886332708953      1.20987412996407      0.62093434996495
  O   -0.88504725027318      2.09573126636391     -0.86447762499047
  N   -0.80480606621865     -1.06099940713280      0.77748815630600
  H   -0.63062191438813     -0.60583287642669      1.66564283543038
  H   -1.74339040587707     -1.43335715185201      0.78328387892591
