14
Coordinates from ORCA-job run
  C   0.87006760851990     -0.39409159972423     -0.14344908432413
  C   -0.69017749332404     -0.27831084059187     -0.15349375701513
  F   1.12615632654721     -1.68835693702873      0.28504752337166
  H   -1.04980063441534     -0.84268791567049     -1.01940690799044
  C   1.49326932946978     -0.24152787374338     -1.46122639605348
  N   2.00159736563996     -0.22199638504657     -2.52039446755239
  C   1.43131745662338      0.53777367224004      0.84329200460790
  N   1.81438143032224      1.26217721855830      1.68533085342316
  N   -1.04043948948593      1.18190870143092     -0.42234193489518
  O   -0.26762424923217      1.77245792185767     -1.17389361680449
  O   -2.04605994950646      1.63825249549446      0.09559628815253
  N   -1.33491429143189     -0.72212373392762      1.01733603646063
  H   -1.30804862122420     -1.72687126361606      1.10778706424020
  H   -0.99872478850241     -0.27360346023241      1.85981639437916
