14
Coordinates from ORCA-job run
  C   0.94286692306505     -0.08192077681913     -0.00286648599438
  C   -0.58438324591829     -0.09044577408251     -0.21755232614600
  F   1.17805198406591     -0.27180782954078      1.34448974610509
  H   -0.80484983058689      0.05582617597449     -1.27629400526695
  C   1.52630983409874     -1.20215006402270     -0.75678693573341
  N   2.00761806461518     -2.07417445311874     -1.37890142400638
  C   1.58358561681483      1.17348651780063     -0.42228984256960
  N   2.13229834700508      2.15651316187615     -0.75798091114231
  N   -1.13059740179835      1.17189511379178      0.47268320892751
  O   -1.10685219059753      2.20377098544017     -0.19124131300759
  O   -1.53481779878456      1.04070474268964      1.62263279609240
  N   -1.10824483511153     -1.30003160853913      0.27650743354451
  H   -2.07080866899701     -1.43666543093844      0.00116751206373
  H   -1.03017679787065     -1.34700076051146      1.28443254713334
