14
Coordinates from ORCA-job run
  C   0.87937005298018      0.09574496148551     -0.41822960371592
  C   -0.65153341963927     -0.15496896964469     -0.30974759022617
  F   1.12750864739940      0.90789674192919     -1.49920079107013
  H   -0.96522004083995     -0.66936619157215     -1.21874034982654
  C   1.42389992504972      0.70965689722527      0.80248728135730
  N   1.87270059668581      1.15342678125696      1.79346005377203
  C   1.51889034818861     -1.21350207338412     -0.62585493331508
  N   1.97127505576788     -2.28506769138874     -0.79206834264226
  N   -1.31006798163618      1.20033487959849     -0.35727850720088
  O   -1.18694201180672      1.88008222817075      0.65738058168594
  O   -1.90240422362772      1.50315936419551     -1.38570673136881
  N   -1.09095283248715     -0.83866156244192      0.84928879892230
  H   -0.72756188478328     -0.45108268755363      1.70969794308253
  H   -0.95896223125136     -1.83765267787641      0.79651219054568
