14
Coordinates from ORCA-job run
  C   0.87063257755199     -0.10722635698105      0.20725963722431
  C   -0.59318105308313      0.01529021803148     -0.31486908906325
  F   0.82736114648750     -0.29194856556797      1.57223386953301
  H   -0.57149729236185      0.13260340000905     -1.39903503355532
  C   1.45603567238203     -1.30375501845122     -0.41727701952160
  N   1.87335374985451     -2.26630271503842     -0.94607570042115
  C   1.69218420718120      1.07126027049021     -0.09570638277236
  N   2.35605289946612      2.00881828341636     -0.34329274941923
  N   -1.12895471639281      1.31924330873403      0.23429430331878
  O   -1.62006898613284      1.27713268799102      1.35563686780315
  O   -0.99402409277539      2.30750229444000     -0.48169235069297
  N   -1.45002433887317     -1.04101814804999      0.07361604643048
  H   -1.37568320443298     -1.26026669696927      1.05724318022329
  H   -1.34218656887116     -1.86333296205427     -0.50233557908720
