14
Coordinates from ORCA-job run
  C   0.88702843480218     -0.08001749108438      0.13756277761006
  C   -0.61499460491885      0.00625923991960     -0.27104479739055
  F   0.95197134137193     -0.33257685743771      1.49056846501480
  H   -0.67739708343901      0.17556137118097     -1.34669116286733
  C   1.46976569912267     -1.21964545741603     -0.58785666016340
  N   1.87718314955207     -2.14515941716724     -1.18590821167120
  C   1.63798384521300      1.14538834927461     -0.16257101859516
  N   2.24454576922113      2.12220419470755     -0.40511848944190
  N   -1.15774760666257      1.25889692717307      0.38042642840956
  O   -1.56556236906799      1.14245232464786      1.52957001490505
  O   -1.10975071116351      2.28566421904006     -0.29112429457665
  N   -1.39998869117324     -1.10238176642019      0.12406234906718
  H   -1.30342367386873     -1.89053600949591     -0.49972876544259
  H   -1.24261349898907     -1.36610962692222      1.08685336514211
