14
Coordinates from ORCA-job run
  C   0.94330544282408     -0.06371786583855      0.03277142435645
  C   -0.57296465069345     -0.08883141515864     -0.24661549861951
  F   1.12606186450434     -0.31585572824479      1.37769400708238
  H   -0.75327958278544      0.10695118593543     -1.30496932640204
  C   1.58106534382147     -1.13434038463364     -0.74878961206690
  N   2.10481686276551     -1.97420055491024     -1.38076630548542
  C   1.57480252379080      1.22277874226814     -0.29829039055121
  N   2.11838161080312      2.22906262755678     -0.56669903534819
  N   -1.17167365174922      1.12684668380322      0.48275980745139
  O   -1.62364661614020      0.92896509345575      1.60515244434962
  O   -1.13890807760624      2.19226942297967     -0.12550678867938
  N   -1.09311810634063     -1.33116464316000      0.16318221916403
  H   -1.05493119845926     -1.42935373336200      1.16969260920860
  H   -2.04091176473489     -1.46940943069115     -0.15861555445985
