14
Coordinates from ORCA-job run
  C   0.93251090119119     -0.37696354650343     -0.05126643334246
  C   -0.60177171924870     -0.28948708619650     -0.11941566481167
  F   1.19784949525552     -1.66927588868485      0.38679477068087
  H   -0.93988047998353     -0.95780548769176     -0.92612214643231
  C   1.55100128076799     -0.21910646413633     -1.37407381618054
  N   2.04286052924646     -0.17231727073152     -2.43968345847199
  C   1.49360263594221      0.56628586820584      0.92353830645464
  N   1.97566984431343      1.28490468747112      1.71731144414392
  N   -1.03642924255944      1.08925891515373     -0.54314125720772
  O   -0.17662909356630      1.87886109099763     -0.92216647851031
  O   -2.24318581224203      1.29008739881151     -0.48813884878187
  N   -1.14566085917157     -0.52528633060661      1.18400516664360
  H   -0.89409313591071     -1.45281169907761      1.50149742496350
  H   -2.15484434403452     -0.44534418701122      1.15186099085235
