14
Coordinates from ORCA-job run
  C   0.94355728044284     -0.06247026806906      0.02695915877007
  C   -0.57556425686941     -0.10319519267600     -0.23549945076019
  F   1.14065282142968     -0.24748315182979      1.38104330548725
  H   -0.76565682272339      0.03781268354329     -1.30082362205410
  C   1.57413336092766     -1.16965500918691     -0.70810581539865
  N   2.09322737486016     -2.03017177728794     -1.31569106558111
  C   1.56971641635401      1.20663002903942     -0.37285679806054
  N   2.10746870284836      2.20173449539532     -0.69021590108713
  N   -1.16899871070223      1.14780413109493      0.43572718249072
  O   -1.60307899779467      1.00953439932958      1.57397355680983
  O   -1.14482169740482      2.18003729300999     -0.22768411210602
  N   -1.08957279832164     -1.32320776990241      0.24321417766132
  H   -1.04214333025612     -1.36836528404955      1.25313223033036
  H   -2.03991934279049     -1.48000457841089     -0.06217284650181
