14
Coordinates from ORCA-job run
  C   0.89808945752749      0.00712362440012      0.07516836411323
  C   -0.64094414052031     -0.18036126526847     -0.08950849443510
  F   1.11378225985800      1.07706041405373      0.91643857065848
  H   -0.82300946687097     -1.04274607314732     -0.73192683689257
  C   1.41829175165747     -1.21263680079914      0.71242043575864
  N   1.77556512687245     -2.20893066460933      1.22231582187823
  C   1.59043568796506      0.24411349276102     -1.19751690624224
  N   2.14903024188650      0.42125649076777     -2.21610278093131
  N   -1.13180132342164      1.02532286724549     -0.85977632618186
  O   -1.17099702901351      0.91039872967867     -2.08165031527741
  O   -1.41433761674410      2.01689250927153     -0.19855897266860
  N   -1.35762919227029     -0.28102859450389      1.12601793751426
  H   -1.31582169161064     -1.20652793221309      1.52762810081406
  H   -1.09165406531547      0.42906320236286      1.79405140189216
