14
Coordinates from ORCA-job run
  C   0.94296450287834     -0.48107020073876     -0.06048734707388
  C   -0.59258174612981     -0.37504209490920     -0.19684651387162
  F   1.23065991205729     -1.82698089501930     -0.00033984007454
  H   -0.89712838269911     -1.04854901184787     -0.99924902652609
  C   1.61868591037524      0.08449995113745     -1.23855566513399
  N   2.14123171048851      0.49676728142037     -2.20643141723727
  C   1.42598066638969      0.15120671086119      1.17532071951116
  N   1.79260182429257      0.60039336295062      2.19678450973570
  N   -0.94717757359883      1.02175990205032     -0.68324301528317
  O   -1.86887638378600      1.10623243346493     -1.48816487894272
  O   -0.33320082758596      1.95315029343377     -0.16362768420695
  N   -1.22204825332778     -0.72294282417504      1.01922004009230
  H   -1.08874348497248     -0.02945119455143      1.74542074906057
  H   -2.20336787438163     -0.93197371407704      0.89819936995053
