14
Coordinates from ORCA-job run
  C   0.91622566243108     -0.49047582443594     -0.17331443205449
  C   -0.62833704859585     -0.38263033974567     -0.14680515303741
  F   1.22135612277638     -1.82978614968401     -0.14153626908723
  H   -1.00905622728600     -0.98977698872750     -0.96923553299170
  C   1.49350788451496      0.09095430799254     -1.39525447274520
  N   1.97270669775481      0.53155641211232     -2.37323926075616
  C   1.49228723136590      0.16147429101354      1.01332979467141
  N   1.92741229918498      0.67299390744325      1.97711018512525
  N   -0.98640462610442      1.06211415352676     -0.50849472340276
  O   -1.19854996976429      1.30183421185607     -1.69307089585569
  O   -1.01870821689635      1.86037370335633      0.42514268316541
  N   -1.11955348198471     -0.81176457191081      1.10062910991235
  H   -2.09871089738310     -1.05722861980560      1.05957931264884
  H   -0.96417543001339     -0.12063849299128      1.82515965440738
