14
Coordinates from ORCA-job run
  C   0.96734283355736     -0.43835665443042     -0.03826776052181
  C   -0.56990078307662     -0.40240907694496     -0.18636032321926
  F   1.30691692833532     -1.76712795499807      0.09386561863268
  H   -0.84075388903415     -1.11144572541747     -0.97026018691073
  C   1.62917718811628      0.08796759736678     -1.24179074042279
  N   2.13645198273733      0.46290623542877     -2.23263477483877
  C   1.41309172269100      0.27614940805524      1.16630645365386
  N   1.75000913346956      0.79100045661370      2.16675091351470
  N   -0.99156335068275      0.96192344470710     -0.71182037595665
  O   -2.00633489637790      0.98404453939078     -1.40028072228126
  O   -0.33780365355559      1.93250547711989     -0.33057261929929
  N   -1.19383490328835     -0.74622287636689      1.03412549806736
  H   -2.16327368353446     -1.00267388963721      0.90941862908728
  H   -1.10052462935703     -0.02926098088723      1.74352039049466
