16

C	-0.453978	0.061832	-1.462498
C	0.0	0.0	0.0
F	-0.210347	-1.187679	-2.043369
H	1.096741	0.0	0.0
H	-1.541321	0.209263	-1.516198
C	0.296922	1.109941	-2.249922
H	0.013068	1.06059	-3.304006
H	0.068199	2.108615	-1.87004
H	1.369558	0.933472	-2.145241
C	-0.506228	-1.247971	0.7225
H	-0.165194	-1.242694	1.759093
H	-1.5995	-1.303559	0.708621
H	-0.097133	-2.129608	0.230873
C	-0.473884	1.210485	0.666885
N	-0.914766	2.168006	1.18624
Br	3.557294	0.0	0.0
