16

C	-0.46158	-0.009773	-1.45432
C	0.0	0.0	0.0
F	-0.041882	1.171656	-2.062404
H	1.095839	0.0	0.0
H	0.062663	-0.828131	-1.960353
C	-1.959681	-0.110058	-1.653409
H	-2.462483	0.703902	-1.124889
H	-2.347985	-1.063996	-1.290711
H	-2.189514	-0.025696	-2.717918
C	-0.428352	-1.269299	0.745905
H	-1.508727	-1.321168	0.901223
H	0.0683	-1.300167	1.716687
H	-0.102558	-2.148083	0.182702
C	-0.51158	1.185193	0.683276
N	-0.986203	2.096535	1.252429
Br	3.535375	0.0	0.0
