15

C	-0.450469	-0.006976	-1.445147
C	0.0	0.0	0.0
Cl	0.144437	1.449422	-2.258182
H	1.099983	0.0	0.0
H	-0.34669	-0.94901	0.422341
N	-0.080478	-1.139244	-2.247298
H	0.921308	-1.136018	-2.393378
H	-0.346925	-1.98307	-1.756003
N	-1.986698	-0.001302	-1.475261
O	-2.611409	0.984134	-1.83306
O	-2.467229	-1.019741	-0.980199
N	-0.649287	1.094288	0.715956
H	-0.612086	0.914294	1.709856
H	-0.142043	1.955281	0.546778
Cl	2.708107	0.0	0.0
