15

C	-0.360337	-0.030112	-1.474947
C	0.0	0.0	0.0
Cl	-0.009794	1.532627	-2.225787
H	1.099936	0.0	0.0
H	-0.336221	-0.958155	0.408099
N	0.324073	-1.055934	-2.215373
H	0.132403	-1.939536	-1.753323
H	1.320546	-0.870807	-2.106983
N	-1.860987	-0.324822	-1.603402
O	-2.643838	0.532868	-1.980997
O	-2.165537	-1.466578	-1.259496
N	-0.664191	1.081113	0.719475
H	-0.575643	0.892171	1.710631
H	-0.144659	1.934637	0.548468
Cl	3.451935	0.0	0.0
