15

C	-0.623115	0.103781	-1.379823
C	0.0	0.0	0.0
Cl	0.06561	-1.110309	-2.484541
H	1.091415	0.0	0.0
H	-0.340788	-0.961742	0.393136
N	-2.030531	-0.022508	-1.318474
H	-2.437851	0.260838	-2.201985
H	-2.333256	0.602314	-0.575449
N	-0.247923	1.468874	-2.035136
O	0.690776	2.104055	-1.577208
O	-0.953682	1.818772	-2.980416
N	-0.568619	1.094958	0.813587
H	0.117447	1.842306	0.827052
H	-0.668365	0.777023	1.769759
Cl	3.473899	0.0	0.0
