15

C	-0.589709	0.018483	-1.398379
C	0.0	0.0	0.0
Cl	0.245195	-1.252688	-2.402402
H	1.091916	0.0	0.0
H	-0.367069	0.89131	0.511201
N	-1.990403	-0.119769	-1.35944
H	-2.367066	-0.321494	-2.275699
H	-2.189419	-0.858772	-0.692113
N	-0.320649	1.331361	-2.122543
O	0.284876	2.207804	-1.518954
O	-0.797634	1.427933	-3.249735
N	-0.533958	-1.201443	0.673635
H	0.134187	-1.949023	0.517359
H	-0.523742	-1.025157	1.670427
Cl	3.483725	0.0	0.0
