15

C	-0.583168	-0.039697	-1.398379
C	0.0	0.0	0.0
Cl	0.209304	-1.393949	-2.328655
H	1.091843	0.0	0.0
H	-0.362117	0.917202	0.468783
N	-1.984946	-0.125185	-1.357997
H	-2.36773	-0.339862	-2.265842
H	-2.215644	-0.83051	-0.668562
N	-0.263522	1.223171	-2.183146
O	-0.768954	1.302773	-3.298308
O	0.41268	2.083255	-1.634167
N	-0.548733	-1.163205	0.726413
H	0.096981	-1.932793	0.582569
H	-0.511746	-0.953117	1.715901
Cl	3.523705	0.0	0.0
