15

C	-0.596306	-0.016086	-1.395047
C	0.0	0.0	0.0
Cl	0.241076	-1.309014	-2.373336
H	1.091887	0.0	0.0
H	-0.3666	0.903018	0.490926
N	-1.995187	-0.158914	-1.34624
H	-2.188764	-0.889373	-0.667941
H	-2.376422	-0.370213	-2.258706
N	-0.331212	1.277444	-2.152079
O	-0.841518	1.359	-3.26616
O	0.310118	2.154344	-1.586682
N	-0.530658	-1.185688	0.705412
H	-0.510742	-0.9857	1.698042
H	0.1368	-1.937023	0.560405
Cl	3.490386	0.0	0.0
