14

C	0.0	0.0	0.0
C	-0.363812	-0.134513	-1.500963
F	1.399074	0.0	0.0
H	0.431147	0.444516	-1.989308
N	-0.439657	1.264878	0.47792
H	-0.120057	1.361351	1.436894
H	-1.476308	1.112419	0.467522
C	-0.39483	-1.167506	0.821782
N	-0.52945	-2.071239	1.560998
C	-1.629321	0.447111	-1.9798
N	-2.354419	0.964956	-2.751317
C	-0.222386	-1.518624	-1.964333
N	-0.062534	-2.613192	-2.357096
F	-2.530629	0.0	0.0
