14

C	0.0	0.0	0.0
C	-0.601529	-0.053425	-1.408267
F	1.369027	0.0	0.0
H	-1.735352	-0.065463	-1.088291
N	-0.492797	1.174154	0.635094
H	-1.521001	1.036747	0.595804
H	-0.193345	1.171408	1.604308
C	-0.361253	-1.26884	0.708895
N	-0.583113	-2.262427	1.294599
C	-0.222066	-1.25643	-2.131274
N	0.061659	-2.232247	-2.721344
C	-0.264299	1.138198	-2.171561
N	-0.01886	2.076652	-2.834055
F	-2.751153	0.0	0.0
