14

C	0.0	0.0	0.0
C	-0.601668	0.033246	-1.409027
F	1.372077	0.0	0.0
H	-1.735503	-0.00055	-1.089918
N	-0.488085	1.135439	0.706718
H	-0.18546	1.070764	1.672732
H	-1.516437	0.99937	0.661679
C	-0.360898	-1.305309	0.638169
N	-0.532447	-2.309441	1.222771
C	-0.21634	-1.122412	-2.203845
N	0.078987	-2.057563	-2.851885
C	-0.270488	1.272474	-2.096853
N	-0.030793	2.253969	-2.697801
F	-2.746144	0.0	0.0
