14

C	0.0	0.0	0.0
C	-0.338259	-0.056585	-1.52965
F	1.37875	0.0	0.0
H	0.418525	0.606277	-1.973166
N	-0.453175	1.165329	0.672239
H	-0.18762	1.976962	0.121795
H	-1.488632	1.022966	0.619197
C	-0.446953	-1.213368	0.71097
N	-0.579602	-2.22366	1.294896
C	-1.64144	0.471682	-1.973677
N	-2.378899	1.001475	-2.725173
C	-0.092025	-1.386235	-2.09465
N	0.15479	-2.437652	-2.556783
F	-2.550276	0.0	0.0
