14
Coordinates from ORCA-job run
  C   1.00566472134203     -0.06376526526953     -0.03491214634743
  C   -0.48610493856354     -0.40315413954139     -0.22359714076520
  Br  1.95380283726142     -1.78827565905539      0.15161484625265
  H   -0.58970463657245     -0.97945117762214     -1.15457002037989
  C   1.55342396407879      0.58296079778055     -1.22402272658896
  N   1.97895560798965      1.05792447455968     -2.21157652023043
  C   1.24569728871566      0.71539425592713      1.17466148429820
  N   1.47448070058898      1.33923592707618      2.14411733769557
  N   -1.27329158853254      0.86978475462965     -0.46524920239548
  O   -2.47023696421255      0.69291155010860     -0.66025384955355
  O   -0.68301187781813      1.94386971738194     -0.44561406810196
  N   -1.04206077941888     -0.98113931052412      0.96483235839222
  H   -0.62768019070228     -1.88660562732935      1.14553416833429
  H   -2.04093414415614     -1.09869029812181      0.83903547938996
