14
Coordinates from ORCA-job run
  C   0.93822735243186      0.20533918958981      0.00082747125160
  C   -0.54216519600482     -0.18792721531054     -0.25028721551339
  Br  1.40136625619588     -0.09455339390208      1.88784822837986
  H   -0.77902221087210      0.08037240326911     -1.28328416752420
  C   1.78000911761674     -0.66363141066399     -0.81965478979982
  N   2.46398993678928     -1.33113646634118     -1.50423671278209
  C   1.22936354828053      1.60046181079060     -0.32205085297041
  N   1.51669988061626      2.70438813471400     -0.60821735061469
  N   -1.42851111794198      0.74489140046036      0.59422366738129
  O   -1.51371458994659      1.90459342631499      0.20328776790814
  O   -1.97671815321629      0.25448364956419      1.57461202336043
  N   -0.74426826297945     -1.55938623451104     -0.01788704167672
  H   -0.73512485353839     -1.77639776286935      0.97079083227575
  H   -1.61113170743095     -1.88249753110486     -0.42497185967575
