14
Coordinates from ORCA-job run
  C   1.00339618356928     -0.08860961268070      0.00659519749498
  C   -0.48735608391367     -0.38969444716071     -0.24550861364321
  Br  1.89883116207630     -1.83602858826075      0.22959141080138
  H   -0.56582441016062     -0.96128567517131     -1.18187168043002
  C   1.61697457440904      0.54623753578142     -1.15669505887790
  N   2.11177023933939      1.00557418596040     -2.11903208461950
  C   1.21090954152512      0.68365194943043      1.22683142204450
  N   1.41303767744768      1.28861585113811      2.21394852636441
  N   -1.23040122310049      0.90356961928494     -0.51739068930335
  O   -2.42269688081665      0.75839345380073     -0.76079611718615
  O   -0.61336024909608      1.96180214853550     -0.47360273503418
  N   -1.10821562112098     -0.95472249446462      0.91634213791989
  H   -2.10324727789678     -1.04797519370547      0.74762449625845
  H   -0.72381763226153     -1.86952873248797      1.11496378821070
