13
Coordinates from ORCA-job run
  C   0.39753540775387     -0.07215362405767     -0.55791657121563
  C   -0.70259703230491     -0.16214932128848      0.48944004096795
  H   0.03349085025957      0.51826794238017     -1.40774815537604
  H   -0.34767401505960     -0.77314988604841      1.32592938915103
  H   0.58862336413628     -1.08050790951423     -0.93578742631490
  H   -0.89886939735855      0.84574338883931      0.89047135476881
  C   1.67687435259438      0.55176935524087     -0.01019202557869
  H   2.07425839232675     -0.03796446486051      0.82034797312678
  H   2.45274490936071      0.60952591034835     -0.77687297879494
  H   1.49705645634671      1.56569905680972      0.35758400055795
  N   -1.88789318522551     -0.81514053979682     -0.06878149724937
  H   -2.58842690985093     -0.93467367722431      0.65295456559551
  H   -2.29512319297876     -0.21726623082800     -0.77842866963847
