13
Coordinates from ORCA-job run
  C   0.49912731311736     -0.34195331238565     -0.63987142595550
  C   -0.69038584786505     -0.72488039839287      0.23328695405655
  H   1.06492221316956     -1.24982700936181     -0.87712292509528
  H   -1.23925148536328     -1.55094597994838     -0.24554818354825
  H   0.12630826716580      0.04531599281044     -1.59674718814768
  H   -0.32080569477875     -1.10177090422918      1.19296067640251
  C   1.40779344849965      0.68924245707006      0.01957815754990
  H   1.82301480518291      0.29389440834293      0.95118495058052
  H   0.84845852199225      1.59197992503972      0.26299928345025
  H   2.24355177969546      0.95726364001654     -0.63152284207215
  N   -1.52363917707071      0.44813500597052      0.50637144382851
  H   -1.98950805200262      0.73109613709846     -0.34823339931067
  H   -2.24758609174256      0.21145003796922      1.17366449826131
