13
Coordinates from ORCA-job run
  C   0.54061939115982     -0.35718928925085     -0.66530838215604
  C   -0.73801977498394     -0.75797526426879      0.05940458941861
  H   1.15742418978621     -1.25137219323716     -0.81077080800046
  H   -0.47365140117682     -1.24355251501506      1.01339213624512
  H   0.26868502802427      0.01871845909130     -1.65621791192197
  H   -1.26724697320749     -1.50456125019661     -0.54029207414546
  C   1.33934152815777      0.70332435486193      0.08595415315367
  H   1.57027963184533      0.37483956899066      1.10440349274084
  H   2.28634927945276      0.91630972741590     -0.41519162533604
  H   0.78488327004156      1.64234463840168      0.14456241216036
  N   -1.62651950696730      0.39596127762280      0.22030273401962
  H   -1.29255588549398      0.98138557273553      0.97578008084295
  H   -2.55158877663820      0.08076691284865      0.48498120297882
