13
Coordinates from ORCA-job run
  C   0.56398627340816     -0.41057273490295     -0.61303289874875
  C   -0.93628146557695     -0.34349982226803     -0.35721379421547
  H   0.73789869695955     -0.38206631858593     -1.69475004912029
  H   -1.33984681586632      0.57138875243137     -0.82184222665779
  H   0.93066828182475     -1.37425671815611     -0.24695220333697
  H   -1.41954295471861     -1.19056836949862     -0.85323971118770
  C   1.33091702817468      0.72199356969220      0.06236427602150
  H   1.26295082987030      0.64671923735802      1.14971495280522
  H   2.39118470437454      0.69489019741964     -0.19922485366723
  H   0.93992287401522      1.69850325724450     -0.24099543342368
  N   -1.22302708064501     -0.44343460285435      1.07620801183591
  H   -2.20816681668955     -0.63127206758545      1.21540190747519
  H   -1.03066355513074      0.44317561970571      1.52556202222005
