17

C	-0.218843	-0.031893	-1.527559
C	0.0	0.0	0.0
Cl	-1.960923	-0.26389	-1.978409
H	1.093569	0.0	0.0
N	0.193816	1.233099	-2.076479
H	0.261381	1.158299	-3.085318
H	1.115804	1.453284	-1.702365
N	0.472164	-1.232336	-1.961343
H	0.422226	-1.300355	-2.971765
H	1.451893	-1.12334	-1.692045
N	-0.518104	-1.087368	0.762498
H	0.070832	-1.891722	0.590822
H	-1.462557	-1.301443	0.462907
N	-0.52459	1.281938	0.556179
O	-1.703363	1.282476	0.910633
O	0.23293	2.246144	0.611018
Cl	3.328307	0.0	0.0
