17

C	-0.561536	0.02287	-1.426986
C	0.0	0.0	0.0
Cl	0.397203	-1.339976	-2.32637
H	1.088406	0.0	0.0
N	-1.945446	-0.322136	-1.416767
H	-2.353837	-0.148135	-2.32737
H	-2.026764	-1.308854	-1.203303
N	-0.352325	1.267151	-2.068399
H	-0.447219	1.161088	-3.070463
H	0.578682	1.612886	-1.86293
N	-0.511874	-1.11967	0.714227
H	0.123441	-1.350856	1.467044
H	-1.417477	-0.879139	1.100474
N	-0.409123	1.321027	0.668258
O	-1.371959	1.305255	1.436439
O	0.25975	2.314483	0.405316
Cl	3.339442	0.0	0.0
