17

C	-0.535887	0.017206	-1.447447
C	0.0	0.0	0.0
Cl	0.152231	-1.510667	-2.210924
H	1.089385	0.0	0.0
N	-1.963898	-0.100016	-1.597535
H	-2.389016	0.675288	-1.098945
H	-2.256363	-0.966814	-1.160967
N	-0.102333	1.201105	-2.083084
H	-0.343258	1.16711	-3.06494
H	0.899254	1.32358	-1.966355
N	-0.532163	-1.092538	0.751635
H	-1.362505	-0.797432	1.248378
H	0.167912	-1.411459	1.407665
N	-0.422398	1.331893	0.605854
O	-1.566802	1.388182	1.080411
O	0.359611	2.27109	0.568989
Cl	3.33975	0.0	0.0
