15

C	-0.490645	-0.026011	-1.448991
C	0.0	0.0	0.0
F	0.054028	0.962515	-2.238381
H	1.090732	0.0	0.0
C	-0.102205	-1.324097	-2.04098
N	0.193671	-2.305491	-2.615272
C	-1.967585	0.091006	-1.520358
N	-3.141565	0.153174	-1.491934
N	-0.422182	-1.202461	0.64952
H	-1.238668	-1.047714	1.228268
H	0.339651	-1.518687	1.237426
N	-0.490599	1.228041	0.682118
O	-0.530073	2.273195	0.028683
O	-0.79375	1.137581	1.876892
F	2.480725	0.0	0.0
