15

C	-0.480483	0.257904	-1.434457
C	0.0	0.0	0.0
F	-0.124983	-0.842685	-2.188479
H	1.100741	0.0	0.0
C	-1.953535	0.374762	-1.496119
N	-3.123962	0.468054	-1.5201
C	0.137838	1.4282	-2.083177
N	0.605894	2.283014	-2.737774
N	-0.44561	-1.269952	0.465273
H	0.331628	-1.714588	0.93058
H	-1.217775	-1.191326	1.115926
N	-0.440692	1.118781	0.86421
O	-0.554744	0.902275	2.071824
O	-0.629158	2.220193	0.337019
F	2.476944	0.0	0.0
