15

C	-0.423021	-0.009102	-1.465265
C	0.0	0.0	0.0
F	-1.801126	-0.251331	-1.595434
H	1.088973	0.0	0.0
C	-0.145587	1.238475	-2.192423
N	0.001031	2.233753	-2.798466
C	0.269971	-1.126458	-2.133024
N	0.729237	-2.051201	-2.692209
N	-0.467064	-1.126163	0.722181
H	0.25736	-1.826789	0.764011
H	-1.355342	-1.497239	0.420973
N	-0.54659	1.271963	0.589592
O	-1.642603	1.226065	1.152853
O	0.127151	2.292863	0.440507
F	2.503873	0.0	0.0
