15

C	-0.503189	-0.052298	-1.442791
C	0.0	0.0	0.0
F	0.067675	0.897074	-2.257098
H	1.093569	0.0	0.0
C	-0.158231	-1.376103	-2.002129
N	0.134305	-2.384131	-2.528364
C	-1.976909	0.097794	-1.502539
N	-3.147601	0.198665	-1.499688
N	-0.422464	-1.179223	0.689683
H	0.340392	-1.489109	1.275625
H	-1.235928	-1.015639	1.268098
N	-0.465424	1.247753	0.658165
O	-0.58524	1.228477	1.886277
O	-0.661589	2.24149	-0.043935
F	2.476991	0.0	0.0
