15

C	-0.516304	-0.027086	-1.437683
C	0.0	0.0	0.0
F	0.04954	0.933981	-2.242084
H	1.093619	0.0	0.0
C	-0.181025	-1.342206	-2.021864
N	0.095634	-2.345195	-2.565559
C	-1.98947	0.127553	-1.48201
N	-3.160277	0.227352	-1.468535
N	-0.415384	-1.191637	0.67416
H	0.358083	-1.508536	1.243982
H	-1.216963	-1.033202	1.270947
N	-0.46085	1.235542	0.683974
O	-0.57136	1.193734	1.911934
O	-0.661873	2.24153	0.000774
F	2.476168	0.0	0.0
