12

C	-0.494458	-0.018261	-1.439968
C	0.0	0.0	0.0
F	-1.886441	0.051664	-1.46601
H	1.093532	0.0	0.0
H	-0.333786	0.936938	0.455614
C	0.01523	1.150802	-2.179882
N	0.403893	2.079036	-2.784554
C	-0.105156	-1.250769	-2.146697
N	0.160799	-2.224975	-2.745346
C	-0.543219	-1.128822	0.742363
N	-0.999508	-2.033048	1.335764
Br	3.379353	0.0	0.0
