12

C	-0.472732	-0.07671	-1.451114
C	0.0	0.0	0.0
F	-0.028887	-1.245996	-2.024215
H	1.093644	0.0	0.0
H	-0.329911	0.947513	0.437236
C	-1.950179	-0.061857	-1.543955
N	-3.123216	-0.044457	-1.599637
C	0.043493	1.067817	-2.227192
N	0.427086	1.966295	-2.878822
C	-0.535585	-1.114991	0.769059
N	-0.985249	-2.006603	1.386367
Br	3.392016	0.0	0.0
