12

C	-0.472584	0.038625	-1.452665
C	0.0	0.0	0.0
F	-0.028634	1.192663	-2.056033
H	1.093622	0.0	0.0
H	-0.329757	-0.935768	0.461723
C	0.043506	-1.125305	-2.199092
N	0.42538	-2.039792	-2.828679
C	-1.950022	0.021348	-1.545198
N	-3.123034	0.002717	-1.601566
C	-0.537269	1.134066	0.739012
N	-0.99286	2.038239	1.332949
Br	3.391025	0.0	0.0
