12

C	-0.503162	-0.008244	-1.436292
C	0.0	0.0	0.0
F	-1.893979	-0.087279	-1.450046
H	1.093596	0.0	0.0
H	-0.331608	-0.928521	0.474098
C	-0.129855	1.215945	-2.167405
N	0.121038	2.186726	-2.778379
C	0.001054	-1.190941	-2.157723
N	0.325062	-2.153616	-2.745872
C	-0.540389	1.142902	0.723639
N	-0.993893	2.064449	1.2919
Br	3.377716	0.0	0.0
