12

C	-0.47402	0.013798	-1.453859
C	0.0	0.0	0.0
F	0.028709	-1.105744	-2.080217
H	1.093481	0.0	0.0
H	-0.340984	-0.937914	0.448122
C	-1.949826	-0.052098	-1.541734
N	-3.121256	-0.127146	-1.583723
C	-0.018929	1.21581	-2.17699
N	0.285775	2.17385	-2.783615
C	-0.541424	1.134329	0.733263
N	-0.996735	2.04582	1.316716
Br	3.398089	0.0	0.0
