12

C	-0.473281	-0.001582	-1.453032
C	0.0	0.0	0.0
F	-0.032125	-1.140772	-2.084914
H	1.093585	0.0	0.0
H	-0.33075	0.923057	0.486142
C	-1.950799	0.021596	-1.542946
N	-3.124197	0.043341	-1.59123
C	0.045314	1.179802	-2.170131
N	0.425335	2.106556	-2.783298
C	-0.533745	-1.154045	0.711238
N	-0.979909	-2.076687	1.283986
Br	3.39625	0.0	0.0
