15

C	-0.460491	0.062327	-1.457602
C	0.0	0.0	0.0
Cl	0.081364	-1.39296	-2.341882
H	1.09285	0.0	0.0
H	0.013298	0.912636	-1.943797
C	-1.914023	0.178213	-1.572816
N	-3.082194	0.273309	-1.650547
C	-0.547201	-1.161335	0.797536
H	-0.23673	-2.093866	0.326885
H	-1.638834	-1.131038	0.861479
H	-0.130728	-1.13259	1.802128
N	-0.386649	1.302064	0.64263
O	-0.489464	1.327151	1.865675
O	-0.530636	2.283199	-0.0901
Cl	3.248798	0.0	0.0
