15

C	-0.426861	-0.012206	-1.456101
C	0.0	0.0	0.0
Cl	-2.22217	-0.074684	-1.638089
H	1.093607	0.0	0.0
H	-0.057054	-0.954628	-1.867255
C	0.08955	1.059175	-2.305558
N	0.434183	1.843411	-3.108764
C	-0.457226	-1.227019	0.763442
H	-0.134059	-2.117307	0.218609
H	-1.540076	-1.254793	0.896276
H	0.023286	-1.238973	1.739643
N	-0.449033	1.248414	0.684535
O	-0.670697	1.186051	1.892605
O	-0.534456	2.272961	0.01006
Cl	3.214959	0.0	0.0
