15

C	-0.548346	-0.047003	-1.419997
C	0.0	0.0	0.0
Cl	0.243956	1.15893	-2.471708
H	1.090629	0.0	0.0
H	-1.608985	0.210715	-1.409088
C	-0.393774	-1.375528	-2.006105
N	-0.302671	-2.443289	-2.485767
C	-0.494851	-1.153325	0.861053
H	-0.115069	-1.01476	1.873501
H	-1.588607	-1.207092	0.88361
H	-0.092452	-2.091076	0.477449
N	-0.464826	1.269171	0.652881
O	0.098064	1.579626	1.695196
O	-1.40963	1.88618	0.153887
Cl	3.284679	0.0	0.0
