15

C	-0.428469	0.004066	-1.455568
C	0.0	0.0	0.0
Cl	-2.226624	-0.041219	-1.634637
H	1.093535	0.0	0.0
H	-0.069032	-0.937993	-1.876165
C	0.092783	1.079226	-2.296763
N	0.443404	1.872801	-3.088617
C	-0.457579	-1.23501	0.749886
H	0.019662	-1.256062	1.726747
H	-1.540336	-1.26618	0.879045
H	-0.131199	-2.119192	0.197963
N	-0.449201	1.242199	0.696589
O	-0.5124	2.277664	0.03617
O	-0.692622	1.163387	1.900151
Cl	3.217687	0.0	0.0
