15

C	-0.455073	0.025455	-1.46112
C	0.0	0.0	0.0
Cl	0.074242	-1.45844	-2.304848
H	1.092824	0.0	0.0
H	0.028691	0.858687	-1.96793
C	-1.907447	0.153902	-1.581812
N	-3.074418	0.266315	-1.655116
C	-0.552721	-1.137017	0.826804
H	-0.137962	-1.084084	1.830588
H	-1.643914	-1.101122	0.88889
H	-0.245403	-2.082374	0.38123
N	-0.384912	1.322107	0.600937
O	-0.469065	2.291566	-0.157384
O	-0.540686	1.374434	1.817899
Cl	3.244098	0.0	0.0
