15

C	-0.486686	-0.060073	-1.447638
C	0.0	0.0	0.0
Cl	-0.111067	1.517809	-2.311029
H	1.091645	0.0	0.0
H	-1.573903	-0.117045	-1.477438
N	0.111251	-1.194012	-2.04907
H	1.123659	-1.108692	-2.019618
H	-0.190275	-1.298233	-3.006884
N	-0.476753	-1.092407	0.807249
H	0.035146	-1.92437	0.53939
H	-1.463982	-1.246932	0.639403
N	-0.532288	1.242255	0.639724
O	-1.763237	1.311226	0.693583
O	0.243911	2.082708	1.069837
Br	3.591507	0.0	0.0
