15

C	-0.534291	-0.038525	-1.432215
C	0.0	0.0	0.0
Cl	0.290599	-1.366938	-2.297953
H	1.089708	0.0	0.0
H	-0.235026	0.881619	-1.944703
N	-1.956448	-0.318457	-1.45687
H	-2.415934	0.484951	-1.040295
H	-2.260537	-0.419141	-2.417104
N	-0.513594	-1.03792	0.837339
H	-1.269605	-1.515739	0.362482
H	0.233753	-1.678679	1.059521
N	-0.397874	1.345132	0.597219
O	0.305579	1.782697	1.495868
O	-1.41593	1.909934	0.16723
Br	3.486238	0.0	0.0
