15

C	-0.469086	-0.00974	-1.450706
C	0.0	0.0	0.0
Cl	-2.409609	0.053397	-1.371831
H	1.093392	0.0	0.0
H	-0.334794	-1.018525	-1.836327
N	0.089351	0.931109	-2.287532
H	0.124667	1.860399	-1.897634
H	-0.2279	0.889642	-3.24292
N	-0.42323	-1.107037	0.774262
H	0.306915	-1.800571	0.829911
H	-1.314447	-1.490012	0.497837
N	-0.447591	1.300787	0.654134
O	-0.106238	2.339538	0.080817
O	-1.10179	1.262886	1.686119
Br	3.449438	0.0	0.0
