15

C	-0.389847	0.009477	-1.479422
C	0.0	0.0	0.0
Cl	-2.178216	0.289428	-1.613887
H	1.092392	0.0	0.0
H	-0.236555	-1.016945	-1.810457
N	0.319608	0.897913	-2.34856
H	0.336536	1.817988	-1.920338
H	1.28623	0.575198	-2.363694
N	-0.494984	-1.141279	0.680492
H	-1.468695	-1.022688	0.927483
H	0.041172	-1.290226	1.52438
N	-0.421098	1.310786	0.655101
O	-1.107712	1.254584	1.672987
O	-0.047502	2.358293	0.127708
Br	3.44297	0.0	0.0
