15

C	-0.45538	-0.188709	-1.450905
C	0.0	0.0	0.0
Cl	-0.508312	1.452155	-2.33597
H	1.090632	0.0	0.0
H	-1.497563	-0.509787	-1.491241
N	0.409899	-1.119201	-2.046643
H	0.226011	-1.25339	-3.030002
H	1.386299	-0.885081	-1.884302
N	-0.469471	-1.094751	0.792899
H	-1.410598	-0.915803	1.119477
H	0.157761	-1.241036	1.572077
N	-0.522372	1.312693	0.535287
O	-1.736536	1.342814	0.76844
O	0.253455	2.241965	0.715471
Br	3.510059	0.0	0.0
