15

C	-0.468394	-0.013469	-1.450503
C	0.0	0.0	0.0
Cl	-2.408835	0.037189	-1.374398
H	1.092118	0.0	0.0
H	-0.327551	-1.02157	-1.834733
N	0.084824	0.930052	-2.288251
H	0.112424	1.860101	-1.899782
H	-0.234833	0.885925	-3.242004
N	-0.420817	-1.107081	0.775724
H	-1.312934	-1.487893	0.501339
H	0.307602	-1.801929	0.825209
N	-0.449949	1.300788	0.651929
O	-1.105997	1.262601	1.682299
O	-0.10912	2.33936	0.078836
Br	3.452536	0.0	0.0
