15

C	-0.392203	0.120961	-1.47366
C	0.0	0.0	0.0
Cl	-2.180036	0.421834	-1.58416
H	1.093218	0.0	0.0
H	-0.247476	-0.881567	-1.875606
N	0.327396	1.060501	-2.279252
H	0.358216	1.945318	-1.786515
H	1.288336	0.72528	-2.323173
N	-0.492531	-1.192978	0.590011
H	0.0381	-1.402789	1.424829
H	-1.468149	-1.0987	0.838041
N	-0.411283	1.253739	0.765218
O	-1.022025	1.109952	1.823496
O	-0.104432	2.343945	0.2848
Br	3.442843	0.0	0.0
