15

C	-0.47959	-0.032629	-1.455529
C	0.0	0.0	0.0
Cl	-0.242816	1.563474	-2.228547
H	1.096741	0.0	0.0
H	-1.55703	-0.226537	-1.477965
N	0.226652	-1.034019	-2.212201
H	0.08372	-1.911409	-1.719988
H	1.221125	-0.823239	-2.138556
N	-0.455467	-1.206239	0.633475
H	-1.417534	-1.10257	0.930044
H	0.131984	-1.413494	1.429824
N	-0.55313	1.220529	0.688693
O	-1.782167	1.203248	0.877706
O	0.203752	2.142144	0.996061
Br	3.506085	0.0	0.0
