15

C	-0.305469	0.002776	-1.509821
C	0.0	0.0	0.0
Cl	-2.09303	0.157628	-1.769661
H	1.092833	0.0	0.0
H	-0.052473	-1.004958	-1.845879
N	0.400064	0.945227	-2.325279
H	0.298843	1.864637	-1.909016
H	1.388808	0.710713	-2.238681
N	-0.476944	-1.112226	0.744188
H	-1.376445	-1.446408	0.426995
H	0.216908	-1.845765	0.744216
N	-0.50268	1.283546	0.605657
O	-1.40952	1.233226	1.429809
O	0.00204	2.326808	0.184226
Br	3.444839	0.0	0.0
