15

C	-0.601484	-8.5e-05	-1.397623
C	0.0	0.0	0.0
Cl	0.179042	-1.345437	-2.347903
H	1.089771	0.0	0.0
H	-0.325128	0.909119	-1.924586
N	-2.017874	-0.127861	-1.296234
H	-2.215679	-1.020195	-0.8572
H	-2.442581	-0.118844	-2.214131
N	-0.492005	-1.094368	0.783699
H	-1.201531	-0.762485	1.421791
H	0.274432	-1.462827	1.329964
N	-0.390767	1.34522	0.606524
O	-0.11791	2.345116	-0.046768
O	-0.941148	1.356174	1.706714
Br	3.456995	0.0	0.0
