15

C	-0.400752	-0.05532	-1.475644
C	0.0	0.0	0.0
Cl	-0.199499	1.612041	-2.243956
H	1.091619	0.0	0.0
H	-1.467706	-0.255915	-1.590609
N	0.394015	-1.058856	-2.076899
H	0.233439	-1.121201	-3.073014
H	1.381475	-0.880873	-1.895675
N	-0.451064	-1.136769	0.757063
H	-1.347862	-1.467494	0.422465
H	0.236093	-1.872661	0.660594
N	-0.597243	1.21142	0.6345
O	-1.831029	1.233074	0.643218
O	0.132038	2.071689	1.108995
Br	3.504689	0.0	0.0
