12

C	-0.270656	-0.011977	-1.509978
C	0.0	0.0	0.0
Cl	0.146833	1.569913	-2.221662
H	1.096491	0.0	0.0
H	0.435175	-0.737167	-1.933762
C	-1.641885	-0.356884	-1.873892
N	-2.740542	-0.648287	-2.173604
C	-0.419451	-1.256118	0.590858
N	-0.686953	-2.304184	1.054748
C	-0.560511	1.137767	0.693876
N	-0.945906	2.079351	1.285905
H	2.448402	0.0	0.0
