12

C	-0.418364	0.02643	-1.478511
C	0.0	0.0	0.0
Cl	0.184744	-1.431195	-2.321069
H	1.096633	0.0	0.0
H	-1.506049	0.003807	-1.581349
C	0.067946	1.230058	-2.155375
N	0.350878	2.205345	-2.746189
C	-0.500714	-1.185665	0.666264
N	-0.846966	-2.163934	1.221823
C	-0.472093	1.196835	0.669531
N	-0.840644	2.170997	1.218206
H	2.462553	0.0	0.0
