12

C	-0.240792	0.057456	-1.5044
C	0.0	0.0	0.0
Cl	-1.939257	0.42515	-1.97812
H	1.098114	0.0	0.0
H	0.379775	0.87457	-1.887903
C	0.166417	-1.186452	-2.155451
N	0.447619	-2.195823	-2.687424
C	-0.537061	-1.184304	0.631668
N	-0.916886	-2.165152	1.160172
C	-0.447035	1.215682	0.647817
N	-0.773307	2.228291	1.149749
H	2.453777	0.0	0.0
