12

C	-0.262607	0.042579	-1.499085
C	0.0	0.0	0.0
Cl	-1.983511	0.329103	-1.943673
H	1.098193	0.0	0.0
H	0.310723	0.884794	-1.896912
C	0.189039	-1.184228	-2.15156
N	0.499601	-2.180719	-2.689963
C	-0.521186	-1.184341	0.645792
N	-0.882095	-2.167995	1.181783
C	-0.44347	1.217473	0.647208
N	-0.763687	2.235893	1.14131
H	2.454942	0.0	0.0
