12

C	-0.297582	-0.008184	-1.50378
C	0.0	0.0	0.0
Cl	0.168912	1.553825	-2.229698
H	1.096468	0.0	0.0
H	0.364391	-0.763758	-1.941742
C	-1.691346	-0.292497	-1.833813
N	-2.809899	-0.527432	-2.1061
C	-0.429411	-1.252067	0.594576
N	-0.753741	-2.29125	1.041194
C	-0.547213	1.141561	0.699995
N	-0.916684	2.080022	1.306611
H	2.45797	0.0	0.0
