17

C	-0.497335	-0.025805	-1.433574
C	0.0	0.0	0.0
F	-0.223122	1.248979	-1.994916
H	1.100959	0.0	0.0
H	-0.336498	-0.924045	0.488172
C	0.29421	-1.032909	-2.242055
H	1.360991	-0.829757	-2.11863
H	0.015498	-0.97215	-3.29892
H	0.094759	-2.04679	-1.883163
C	-2.000061	-0.202185	-1.541393
H	-2.3203	-0.085506	-2.58115
H	-2.289686	-1.197504	-1.193154
H	-2.49544	0.54401	-0.918873
N	-0.580787	1.148849	0.72086
H	-0.156509	1.146438	1.643812
H	-0.197129	1.969749	0.262548
H	3.177491	0.0	0.0
