17

C	-0.42137	-0.000515	-1.451459
C	0.0	0.0	0.0
F	-1.847195	0.052976	-1.52755
H	1.094599	0.0	0.0
H	-0.337065	0.943059	0.457617
C	0.109804	1.242304	-2.135733
H	-0.308862	2.135837	-1.664513
H	1.198162	1.26814	-2.031669
H	-0.165253	1.247482	-3.194515
C	0.016786	-1.268252	-2.148169
H	-0.419853	-2.125426	-1.635756
H	-0.302668	-1.25745	-3.195041
H	1.106387	-1.342663	-2.09074
N	-0.469413	-1.186768	0.720596
H	0.245235	-1.437911	1.393458
H	-1.320423	-0.978755	1.225218
H	3.062205	0.0	0.0
