17

C	-0.355505	-0.023901	-1.474819
C	0.0	0.0	0.0
F	-1.777806	-0.108968	-1.620167
H	1.094892	0.0	0.0
H	-0.368591	0.933872	0.440755
C	0.092951	1.263281	-2.131545
H	-0.14346	1.258114	-3.199975
H	1.172512	1.371181	-1.989397
H	-0.411326	2.115013	-1.665963
C	0.231776	-1.238098	-2.163742
H	-0.005151	-1.22628	-3.231345
H	-0.176091	-2.15431	-1.731568
H	1.316087	-1.232429	-2.01705
N	-0.484832	-1.139388	0.778552
H	0.205219	-1.878838	0.731077
H	-1.350684	-1.481215	0.379588
H	3.067297	0.0	0.0
