17

C	-0.443881	0.032222	-1.459954
C	0.0	0.0	0.0
F	-0.098952	-1.228144	-2.004297
H	1.094437	0.0	0.0
H	-0.375177	-0.925968	0.451602
C	-1.953456	0.140887	-1.650942
H	-2.34037	1.109059	-1.31662
H	-2.199715	0.02753	-2.710392
H	-2.456144	-0.654999	-1.088962
C	0.328145	1.079273	-2.243734
H	1.400045	0.917268	-2.078682
H	0.093378	1.005834	-3.310379
H	0.071119	2.086429	-1.898002
N	-0.399593	1.158975	0.803616
H	0.313113	1.873894	0.70999
H	-1.291475	1.544602	0.518077
H	3.122488	0.0	0.0
