17
Coordinates from ORCA-job run
  C   -0.66691518086457     -0.58725336390163      0.34250986531021
  C   0.73993739744549      0.00982589520898      0.32786439694417
  Cl  -0.65256243897915     -2.19744673746942      1.00236641339275
  H   1.08667953796527     -0.00936097960310      1.36058592057368
  N   -1.59143285976192      0.25438039776070      1.23430366751886
  O   -1.05010533078074      0.98366603838882      2.05421254065200
  O   -2.78723709610942      0.06976214857029      1.07486547501617
  N   -1.34875147983905     -0.55381437877908     -1.03244491039292
  O   -1.56357375022776      0.58585780283083     -1.42526392187727
  O   -1.61164111671828     -1.60274279833912     -1.58731481927660
  C   0.92453466641187      1.38707948551160     -0.28506636129030
  H   0.28572780128748      2.11690171377461      0.20831036900849
  H   1.96574976281485      1.68054895388927     -0.13294836341835
  H   0.70713202787738      1.37951053425573     -1.35051119517777
  N   1.63093659093287     -0.94834141395488     -0.41010021466243
  O   2.61655831975958     -1.36694167886600      0.18775570120225
  O   1.31296314878610     -1.20263161927758     -1.56912456352296
