17
Coordinates from ORCA-job run
  C   -0.81343041855488      0.15443248811414      0.39925674230506
  C   0.70143570459286      0.27039954418316      0.24247668375413
  Cl  -1.47293056543318      1.65587993153399      1.00085028104803
  H   1.07776286414654      0.47015721560535      1.25073645146422
  N   -1.50139106474375     -0.23075483446403     -0.91007389811627
  O   -2.66118524590234      0.11007518826826     -1.06540971950979
  O   -0.80982994449254     -0.89714988031412     -1.67251923059089
  N   -1.20432484244232     -0.93437171807181      1.42361714488700
  O   -0.71332009548827     -0.78134738907298      2.52700600724735
  O   -1.97142829151437     -1.80181593561638      1.04463712154813
  C   1.13696855548396      1.34334188048782     -0.73611451306894
  H   0.72671338067800      2.30965737700052     -0.44763264988044
  H   0.82034508769012      1.09659614579215     -1.74881333775056
  H   2.22270033138048      1.41404815661086     -0.73058683666726
  N   1.32411265493079     -1.06936716470464     -0.12159511593149
  O   2.24824959325372     -1.05958699761615     -0.92177697736540
  O   0.88855229641516     -2.05219400773614      0.46594184662710
