17
Coordinates from ORCA-job run
  C   -0.87157740513497      0.07405614603473      0.34306064737860
  C   0.63911562328329      0.31045361053129      0.33479444637574
  Cl  -1.68547066076336      1.53344495299725      0.85159031634126
  H   0.92517550552497      0.50181536226136      1.37072908983019
  N   -1.43231040022867     -0.35657780635220     -1.02460816274978
  O   -1.39486442021705      0.50584149113179     -1.88666053747962
  O   -1.84134910976499     -1.50116146775362     -1.12067389528690
  N   -1.26065244865773     -1.04727784729149      1.31803980887299
  O   -0.34113133605641     -1.75131926140461      1.71780788260432
  O   -2.44503084809892     -1.14447617462164      1.58777619326259
  C   1.12780621906062      1.42323345726074     -0.58256078703337
  H   0.64475535784022      2.36878042779208     -0.34450376205576
  H   0.93501253492118      1.17809236470604     -1.62535089363565
  H   2.20320336143023      1.53220825515875     -0.42973542166066
  N   1.39952362474655     -0.92607502420176     -0.05770668726681
  O   0.98698140393274     -1.53779928087440     -1.03820638711682
  O   2.41181299818230     -1.16623920537433      0.58520814961967
