17
Coordinates from ORCA-job run
  C   -0.74625880658330     -0.36928644499916     -0.08508589690734
  C   0.61117332865793      0.30421880110116      0.08840012275708
  Cl  -0.75437093699053     -1.64740048608448     -1.24597929417723
  H   0.47887748045377      1.09645163680860      0.82568021868583
  N   -1.23532790971203     -0.86925632341045      1.30075693934193
  O   -1.55116512764905      0.03836161346636      2.05618771300217
  O   -1.22813473729412     -2.06623294237725      1.51477045224520
  N   -1.82395413095060      0.66968728691405     -0.45181080849392
  O   -1.49951292155537      1.84860160151218     -0.41161182453695
  O   -2.92651287579749      0.20949757922573     -0.70105514018358
  C   1.24182135681243      0.80753634622249     -1.19144114735150
  H   2.20466077583013      1.26309451417566     -0.95423896183821
  H   1.41285985509257     -0.00607840240058     -1.89213120414580
  H   0.60565590484540      1.56541623409279     -1.64537729560627
  N   1.51847408371198     -0.70385150568879      0.76075842433887
  O   1.44234314323191     -0.75847898857414      1.98684034398851
  O   2.24937151789637     -1.38228051998419      0.04733735888121
