17
Coordinates from ORCA-job run
  C   -0.73073578389334     -0.44499103154558     -0.05965402758532
  C   0.61157221821677      0.23903112964604      0.13699881066913
  Cl  -0.75076427418482     -1.67599544724061     -1.26295742846368
  H   0.49067297513098      0.96682039209296      0.94062983885115
  N   -1.30669147773006     -0.96461070774034      1.27591472787314
  O   -0.83074004750825     -0.47498069335644      2.28904639842303
  O   -2.22936368670312     -1.75820280211221      1.19052723312895
  N   -1.73138122894950      0.68966294792143     -0.42836191948028
  O   -2.31178279067866      0.63196344856791     -1.49667862462206
  O   -1.81495271748975      1.56367791444428      0.42594207351156
  C   1.13115317386096      0.90213723070217     -1.12542287745463
  H   0.42022699287725      1.64880596211500     -1.48306080034720
  H   1.30120041755566      0.16983582519301     -1.91488002418396
  H   2.06947503245203      1.40534244142678     -0.89931609230293
  N   1.63677290504050     -0.73766070630996      0.66586319348873
  O   2.77036478909351     -0.28812184490402      0.78328437947346
  O   1.27297350290984     -1.87071405890042      0.96112513902091
