17
Coordinates from ORCA-job run
  C   -0.72054255543218     -0.43165275203137      0.00367742197354
  C   0.62752719740719      0.26699437684696      0.08030603425862
  Cl  -0.75129385108667     -1.77282217785899     -1.07483328406924
  H   0.54517333651159      1.05432859529452      0.83078542945914
  N   -1.23246753290830     -0.82935786463025      1.41692622769590
  O   -0.97576736976660     -0.01197557667817      2.28889238544782
  O   -1.87737929859594     -1.85575026125419      1.51388112052801
  N   -1.78630672539913      0.61904867029381     -0.41309466084532
  O   -1.60664925461970      1.74147028689951      0.04397250243412
  O   -2.72023868675873      0.23520071336069     -1.09690577855236
  C   1.09748183477773      0.82176569163243     -1.25029060725412
  H   0.36479951598298      1.52761017586942     -1.64181149457002
  H   1.25490901994574      0.02407225537796     -1.97615310036872
  H   2.03735444644704      1.35032660229146     -1.10498281513940
  N   1.65808857035332     -0.69034661440810      0.64168174064220
  O   2.83083462726561     -0.38570552562799      0.46384537405937
  O   1.25347672587603     -1.66120659537770      1.27410350430047
