17
Coordinates from ORCA-job run
  C   -0.73878375844276     -0.43477116231654     -0.03529194290981
  C   0.61500271333132      0.23528114494235      0.12844276962758
  Cl  -0.77112161390632     -1.75164513695457     -1.14373940582225
  H   0.50023053307155      1.02033351528825      0.87730032772704
  N   -1.34297769201193     -0.84094968412110      1.32618656583892
  O   -0.86159515878213     -0.29787643301362      2.30914567575304
  O   -2.29011148094389     -1.60913867556390      1.28493015248770
  N   -1.70924264648765      0.69021414127613     -0.50208024200401
  O   -1.79757241590426      1.61872969793617      0.29213162450628
  O   -2.26075267554187      0.57498655156343     -1.58093511058156
  C   1.16136641396003      0.79585483102594     -1.17180498928113
  H   2.11064637064007      1.28950832050833     -0.97190165112622
  H   1.31892439215004      0.00609037195664     -1.90659698993510
  H   0.47327619880797      1.53355724944601     -1.58781950105031
  N   1.61479643287981     -0.72110344249205      0.73799021852848
  O   1.22478575780583     -1.82238135407139      1.10997675116250
  O   2.75612862937417     -0.28668993541008      0.83606574707885
