17
Coordinates from ORCA-job run
  C   -0.71606245577744     -0.43041614532384     -0.08817420153696
  C   0.61875388498758      0.25703103490123      0.14958754434111
  Cl  -0.66410767152859     -1.65752721636467     -1.29412184688681
  H   0.47981490147761      0.96593538765593      0.96694070615534
  N   -1.32092766451963     -0.96663090432297      1.23993280948361
  O   -1.12609992349073     -0.24299600184703      2.20563072575548
  O   -1.96820646485954     -1.99487651859422      1.18854049565869
  N   -1.75746537098176      0.65744994697700     -0.47094650032134
  O   -2.63475059026254      0.34750104446679     -1.25911694985131
  O   -1.62060767221776      1.72591370927128      0.11263313283775
  C   1.17387606869798      0.94177045597073     -1.08425192251713
  H   1.38951573724185      0.21986529910996     -1.87187053279693
  H   0.46273951849730      1.67984218144170     -1.45566526532883
  H   2.09573237484519      1.45708449570503     -0.82255290708617
  N   1.61550928622791     -0.75075763827283      0.68198545228656
  O   1.17610357529251     -1.78083218878279      1.18404278673640
  O   2.79518246637006     -0.42835694199131      0.61740647307052
