17
Coordinates from ORCA-job run
  C   -0.82456491356198      0.27948741316599      0.35379139625349
  C   0.70118176976108      0.19116235810945      0.29830413923659
  Cl  -1.29732687514347      1.90868851677919      0.76939027923693
  H   1.05717666796454      0.38882258339169      1.31110835678583
  N   -1.50948328471821     -0.11629988279009     -0.96644402835895
  O   -1.32653195121326      0.65970309729197     -1.88986627935825
  O   -2.14767329795227     -1.15527578305592     -0.96982125509849
  N   -1.40489687878826     -0.66561141943341      1.41659715854803
  O   -0.63926856543124     -1.51888278159436      1.84864899348818
  O   -2.57313409104140     -0.49204706113109      1.71650677583494
  C   1.37798288821502      1.11098084575565     -0.70893817460147
  H   1.11344123117948      2.15115546731270     -0.52974210508582
  H   2.45727347711359      0.99955258109763     -0.58858397276297
  H   1.09952197156495      0.84319753271829     -1.72649149401919
  N   1.17309637190019     -1.20131055852556     -0.01646447079686
  O   0.61202901044798     -1.77489020138532     -0.94499906158923
  O   2.13117646970326     -1.60743270770682      0.62600374228725
