17
Coordinates from ORCA-job run
  C   -0.73100130233440     -0.43271672134133      0.04717220935991
  C   0.62837714190628      0.24626834018255      0.07365695678313
  Cl  -0.80082672540811     -1.84752452403013     -0.92996960290185
  H   0.56237006684326      1.07764239579791      0.77718703996607
  N   -1.25830941655205     -0.71319978748772      1.47650482079162
  O   -0.82304523281358      0.02223651570278      2.34942034705891
  O   -2.10276549571177     -1.58567264119458      1.58462174686589
  N   -1.74139645242086      0.63375818509617     -0.46629462804335
  O   -2.45818246876104      0.35038728591772     -1.40902973591418
  O   -1.70403476976778      1.68731866279031      0.15785491551531
  C   1.08356185602291      0.71875949330553     -1.29378518206255
  H   0.36629220718425      1.43053005507088     -1.70530875241887
  H   2.04366593224245      1.22127841399076     -1.19553641782245
  H   1.19248886245423     -0.11745308782757     -1.98462151295396
  N   1.65828779597554     -0.68225309305921      0.67922641500088
  O   1.25926659803818     -1.66402113654689      1.29707719927106
  O   2.82725140310248     -0.34333835636719      0.54082418150445
