17
Coordinates from ORCA-job run
  C   -0.76592293538000     -0.35765245544160     -0.08912818506034
  C   0.60087170593155      0.29394640306880      0.06937030012826
  Cl  -0.86471474326284     -1.58239695242455     -1.30224099229703
  H   0.47614579020414      1.17692670025889      0.69378893357130
  N   -1.26986298439648     -0.86836080953417      1.28102157604826
  O   -1.10838500386621     -0.04363336062720      2.17374579044672
  O   -1.79815582508754     -1.95840346908377      1.34954594644485
  N   -1.82308166277227      0.72861355257690     -0.40492695093283
  O   -1.43321003045563      1.88369994861711     -0.51245759866278
  O   -2.97044853492984      0.32063268191508     -0.49181029061559
  C   1.29169964084705      0.64639594745471     -1.23676253640734
  H   1.56895963866803     -0.25335905055701     -1.78619786892464
  H   0.63625705835945      1.25829855489973     -1.85466033965281
  H   2.19206989544794      1.21695300628349     -1.01035100362390
  N   1.51876813486793     -0.60588168836743      0.85640876336930
  O   2.55022453727644     -0.07419530604387      1.24853992924228
  O   1.19878531854828     -1.78058370299513      1.01611452692627
