17
Coordinates from ORCA-job run
  C   -0.58620425375093     -0.60229309382559      0.44725453144166
  C   0.76059410830935      0.09541054259216      0.25995492183848
  Cl  -0.38476889899247     -2.14039208809213      1.23661419010821
  H   1.18946228210688      0.19556314100619      1.25650038442856
  N   -1.50262772259082      0.24401827519900      1.34261102216196
  O   -2.68848186879506     -0.04156072216415      1.30133353483123
  O   -0.95837073452262      1.07915059424105      2.05221774956415
  N   -1.37629845408295     -0.74613813162239     -0.86097541141820
  O   -1.71575625513633      0.33323130271870     -1.32893732068007
  O   -1.59347433086654     -1.85833478223824     -1.30059412771005
  C   0.77968324273550      1.42213369000296     -0.47907292660794
  H   0.12518996108025      2.14329857210873      0.00642723602564
  H   1.80197282930613      1.80577690537395     -0.44524174445204
  H   0.47720722149291      1.30262510100450     -1.51669885588812
  N   1.66598315828060     -0.85454750897967     -0.47067379399867
  O   2.72720268520173     -1.14281364923723      0.07230756317690
  O   1.27868703022437     -1.23412814808784     -1.57302695282168
