17
Coordinates from ORCA-job run
  C   -0.72530695332518     -0.44967756739725     -0.00005242535453
  C   0.61837830602599      0.25147873508981      0.10952168918266
  Cl  -0.73752208602077     -1.81640629112588     -1.04605588344988
  H   0.50875214385976      1.05026920964827      0.84470363430539
  N   -1.30100899106039     -0.80633408622724      1.39100369886188
  O   -0.87537131228388     -0.14393672246070      2.32502850029428
  O   -2.17259064984552     -1.65897944237217      1.41387057915621
  N   -1.73121724223165      0.62779780249487     -0.50126781640475
  O   -1.77150651174380      1.62727386806780      0.20595604050349
  O   -2.36333151965445      0.40732883503044     -1.51812833862956
  C   1.11559599050243      0.79227954353901     -1.21774006483829
  H   1.26565300272562     -0.01041502245588     -1.93996439341858
  H   2.06156938445075      1.30646451359512     -1.05995093120802
  H   0.40145957876329      1.50915839892522     -1.62600676954802
  N   1.64610880770900     -0.67976538283555      0.71385871487022
  O   2.80543986159152     -0.28634483603772      0.67166677010374
  O   1.25389819053729     -1.71919155547814      1.23355699557375
