17
Coordinates from ORCA-job run
  C   -0.72530505166837     -0.56486981937980      0.24738657116900
  C   0.71660498752044     -0.07284126258489      0.36905082832994
  Cl  -0.86128090591672     -2.22363911916239      0.75626755757270
  H   0.99435880786614     -0.20874829309012      1.41375671367756
  N   -1.64655066082838      0.25980008489599      1.15847656689700
  O   -2.83901731485004      0.18113001759496      0.91096115813457
  O   -1.11107985247300      0.86736185130095      2.07564918776002
  N   -1.31297266520842     -0.36190916847987     -1.15572484209521
  O   -1.42627124667816      0.82020352253785     -1.45411270589657
  O   -1.60715315952810     -1.33666791427360     -1.81971233936756
  C   1.03122440456402      1.33657048751195     -0.10104093930019
  H   0.88057880205295      1.44049724879245     -1.17292171792563
  H   2.07837124117850      1.53887969737979      0.13553979848821
  H   0.41363487025371      2.06369851120463      0.42245275900108
  N   1.58644461422624     -1.02396884580715     -0.40215757122519
  O   2.49818751555962     -1.56850780733777      0.21142720348476
  O   1.33022561392956     -1.14698919110297     -1.59729822870449
