17
Coordinates from ORCA-job run
  C   -0.79719296264025     -0.14849557591548     -0.20854902647458
  C   0.65420934184163      0.10941477498507      0.18303574790315
  Cl  -1.13533854238231      0.12551231155464     -1.87945621946641
  H   0.73002103986416     -0.07533008391223      1.25483298389559
  N   -1.17536533065595     -1.59496254905433      0.20887937864797
  O   -1.26250270734725     -1.73931650636454      1.41958503409586
  O   -1.31109943120658     -2.42831042846675     -0.66613984640741
  N   -1.75074931486335      0.69768175505172      0.65723844174553
  O   -2.93108670119460      0.62209003374449      0.35625683821138
  O   -1.25651910046346      1.32139916757557      1.58642195619986
  C   1.18839820078994      1.46987140068668     -0.20746229898105
  H   2.22670299821540      1.54787874167968      0.11928147968331
  H   0.61308932021138      2.25072398168220      0.28694839046109
  H   1.15825330297739      1.60884726466303     -1.28540592977108
  N   1.48258824546428     -0.98410341777537     -0.45741777303847
  O   2.00425819145587     -0.74687037334455     -1.54142138494247
  O   1.56133344993367     -2.03603049678984      0.17437222823772
