17
Coordinates from ORCA-job run
  C   -0.87566285269708      0.06145910265901      0.33626748035094
  C   0.63181565910778      0.31821668467130      0.34168840734584
  Cl  -1.71449524776705      1.50801615153948      0.83993661833760
  H   0.90717023999367      0.50830437738493      1.38077859279617
  N   -1.41752797701606     -0.37499666387470     -1.03725430058301
  O   -1.80418273338309     -1.52702370005974     -1.13888408874000
  O   -1.38884822133102      0.48967757303024     -1.89724542025832
  N   -1.25772794360672     -1.06826256514588      1.30410773534290
  O   -2.44205203100383     -1.17911693004816      1.56854104328870
  O   -0.33258515418925     -1.76549317690701      1.70286955791826
  C   1.11170418181535      1.44209687347286     -0.56661487751267
  H   0.92452356036558      1.20209378520427     -1.61161837123729
  H   0.61833435627259      2.38087896542777     -0.32314999561932
  H   2.18549134199533      1.56140432247024     -0.41010135126245
  N   1.41240574114598     -0.90564536938340     -0.05074139351325
  O   1.02251153453302     -1.51133316931119     -1.04421476714070
  O   2.41712554576478     -1.14127626113002      0.60563513048659
