17
Coordinates from ORCA-job run
  C   -0.73825388112916     -0.51344894291654      0.31218666226140
  C   0.72172397948126     -0.06416860085132      0.36091103018769
  Cl  -0.91927005445137     -2.11334895276085      0.97222176792569
  H   1.01697556591549     -0.11077914240896      1.40862239980330
  N   -1.61075313823739      0.42306575089665      1.16113496451975
  O   -2.81077894669149      0.36095669547946      0.94790165354495
  O   -1.03483605154538      1.09665130827696      2.00483413671938
  N   -1.35036043714136     -0.41669316490940     -1.09226883803624
  O   -1.43201123586162      0.73716608464643     -1.49381353856019
  O   -1.69043357217056     -1.43637135978758     -1.65988009062546
  C   1.07341143372366      1.28268168989232     -0.24640061805545
  H   2.13091098994805      1.47036505555071     -0.04680462528903
  H   0.48973195952934      2.07749165577049      0.21368692873386
  H   0.90611092097850      1.28901591149997     -1.32092979828568
  N   1.54296332156652     -1.11351557283631     -0.33212400724641
  O   2.44983874036504     -1.62827046230440      0.31349286137289
  O   1.25603040572048     -1.34079795323765     -1.50477088897044
