17
Coordinates from ORCA-job run
  C   -0.83009159145941      0.16067684822764      0.41003503490010
  C   0.69618961722785      0.18063439361334      0.31710935183539
  Cl  -1.38819808112854      1.65834868421177      1.11465982073598
  H   1.06500901789744      0.22340488784915      1.34356209412887
  N   -1.52445233503936     -0.03949175403481     -0.94884169523293
  O   -1.41278348409163      0.89695379078660     -1.72291895905268
  O   -2.09777889601373     -1.10067477277341     -1.12770830828977
  N   -1.32544346435431     -0.99076154261388      1.29767168240245
  O   -2.49558330545856     -0.94952578661179      1.63529532327827
  O   -0.49770037086754     -1.85260187002753      1.56790376066527
  C   1.29000455480174      1.30142993124271     -0.52552109478153
  H   2.37666771016881      1.24319819040905     -0.43904235625744
  H   1.00570991302955      1.19201274285610     -1.57052404125311
  H   0.96380453069153      2.27637176011508     -0.16904323218725
  N   1.24262227052022     -1.10356660759768     -0.24169159399855
  O   0.69209721186614     -1.54556461811618     -1.24533369906237
  O   2.24192670220980     -1.54984427753617      0.30438791216930
