17
Coordinates from ORCA-job run
  C   -0.64929864940855     -0.60366864912498      0.34728826491688
  C   0.74255347100365      0.02771931517343      0.32192014926305
  Cl  -0.58920213648801     -2.21584588108956      1.00054744986484
  H   1.10016030149432      0.01197005040171      1.35099392075880
  N   -1.58717294731728      0.21065572934310      1.24923793525638
  O   -2.77922643246998     -0.00217407888584      1.09672631236791
  O   -1.05721052074600      0.94792259312883      2.06948167618983
  N   -1.34039294024167     -0.58275928881354     -1.02318314004296
  O   -1.59247219307256      0.55212299639156     -1.40776518558575
  O   -1.57155161809714     -1.63599926419087     -1.58439694505256
  C   0.88606580481851      1.41137638459805     -0.28672806103326
  H   0.65738263624880      1.40285131380641     -1.34972262225503
  H   0.23520579415980      2.12340814621374      0.21683514615992
  H   1.92135527773784      1.73008870054835     -0.14500656836105
  N   1.64872776558010     -0.90715328855334     -0.42852253261682
  O   2.63508998484013     -1.32671260053635      0.16761485407123
  O   1.33898640195806     -1.14480217841069     -1.59332065390140
