17
Coordinates from ORCA-job run
  C   -0.73994274226929     -0.54935640163576      0.23296689349157
  C   0.71485570218368     -0.05911057643785      0.28800712579158
  Cl  -0.86663565795178     -2.23451294411065      0.62940561947198
  H   0.96385169497595     -0.07514340272020      1.35258419350348
  N   -1.48810709891922      0.30974603717589      1.28041432634565
  O   -1.81997037747375      1.41634378478544      0.87443226506983
  O   -1.61639440933350     -0.14647998278292      2.40223224649557
  N   -1.53249440791292     -0.30648438223011     -1.05356617738859
  O   -2.72797717125546     -0.53751714512725     -0.95547822555977
  O   -0.92322167249706      0.07290960070091     -2.04198213376688
  C   1.04207847678182      1.29317842607276     -0.32140165823079
  H   0.36089845135534      2.05861230507940      0.04871724508031
  H   2.05720401155675      1.56142949045177     -0.02080122212364
  H   0.98444353806485      1.25306564719251     -1.40477126710419
  N   1.63213433855401     -1.10239037770460     -0.29769435399867
  O   1.58495394107005     -1.27817000515612     -1.50949646563154
  O   2.37232338307052     -1.67712007355323      0.49643158855410
