17
Coordinates from ORCA-job run
  C   -0.73107953082364     -0.41126743377271      0.01321230404520
  C   0.62915319657206      0.26559195290082      0.06369732759582
  Cl  -0.78618378257939     -1.79708237507908     -1.00762488570339
  H   0.55100976374579      1.10711055314405      0.75295260140022
  N   -1.25063512936071     -0.73721972724536      1.44155020444542
  O   -1.01350725653687      0.13825893063419      2.26210077257186
  O   -1.87716064454486     -1.76654168915501      1.59801687788498
  N   -1.78601699233255      0.63142839110946     -0.44639810197000
  O   -1.54445227919884      1.79219654148353     -0.13834557794007
  O   -2.78159393496086      0.20302500348777     -1.00631143762090
  C   1.13604475921646      0.71373459610782     -1.29388282642471
  H   2.07283192857821      1.25194090031670     -1.16441479043870
  H   1.31133113335714     -0.13929651722922     -1.94923499709828
  H   0.41572177017685      1.38555748871804     -1.76027010862065
  N   1.63471686062585     -0.66478516388703      0.70858277724091
  O   1.20891054510793     -1.61960631414479      1.35149222575374
  O   2.81190959295743     -0.35504513738919      0.57487763487853
