17
Coordinates from ORCA-job run
  C   -0.65117419327174     -0.58997600091531      0.36738744593974
  C   0.74573337323743      0.02772439735461      0.31347708643256
  Cl  -0.59976514521338     -2.18479675926608      1.06189344535499
  H   1.11203646190618      0.03562213351885      1.33952598164073
  N   -1.57236561763127      0.25700816646635      1.25779305219686
  O   -2.76804886958374      0.05361717462806      1.12177852250174
  O   -1.02697247578251      1.00752523438405      2.05547465568426
  N   -1.35747641823045     -0.59761966382440     -0.99548702294514
  O   -1.59834941704415      0.52944735506266     -1.40903864242625
  O   -1.61059180936191     -1.66265246687840     -1.52378723575071
  C   0.89607650396468      1.39512646589793     -0.33023790541193
  H   0.65940868917019      1.36265414655573     -1.39109001074456
  H   0.25460062953857      2.12459892535043      0.16013308870392
  H   1.93492084667928      1.70843214224450     -0.20355050824704
  N   1.63789027202520     -0.93133199258874     -0.42132284774224
  O   2.63923151248728     -1.32425693123942      0.16799002113064
  O   1.30484565711035     -1.21212232675084     -1.56993912631755
