17
Coordinates from ORCA-job run
  C   -0.65271536581345     -0.60554676843603      0.33772411269492
  C   0.74063962678309      0.02232382466123      0.32590980643107
  Cl  -0.60094681910842     -2.22200999488052      0.98057674188261
  H   1.09263997543890     -0.00396481484929      1.35662538614255
  N   -1.59284255120091      0.20559951120220      1.24072479933434
  O   -1.06394048671507      0.92879235145594      2.07405427237512
  O   -2.78517139785441      0.00300345876005      1.07742373618458
  N   -1.33679472534832     -0.57343846758612     -1.03626515041078
  O   -1.57821327944729      0.56469599991331     -1.41761236569464
  O   -1.57480781376743     -1.62269470539469     -1.60178935987586
  C   0.89122925897367      1.41192287262726     -0.26799097280290
  H   1.92616506924165      1.72689785805853     -0.11599397770435
  H   0.23852977105088      2.11998871570510      0.23883023094247
  H   0.66928580087338      1.41471673931203     -1.33244632498165
  N   1.64925413557005     -0.90606022112904     -0.42875916121135
  O   1.33719750341364     -1.14414683776826     -1.59278252997402
  O   2.64149129791002     -1.31807952165169      0.16277075666790
