17
Coordinates from ORCA-job run
  C   -0.71811397075692     -0.56081613426749      0.27624776426064
  C   0.72088670500336     -0.05324026834762      0.36437118878497
  Cl  -0.83525869385679     -2.20018170118449      0.84878057585280
  H   1.01074715265776     -0.14816273331735      1.41030952718071
  N   -1.63704598319830      0.29046326094111      1.16426270565591
  O   -2.83122841107440      0.19371595859236      0.93172536074399
  O   -1.09776654272781      0.93534699717258      2.05340434538951
  N   -1.32091251279535     -0.41627276328994     -1.12795054343896
  O   -1.44690442928158      0.75264323271807     -1.47009113437758
  O   -1.61268907293117     -1.41799469860105     -1.75163798482658
  C   1.01851808976698      1.34032101675459     -0.16080369232708
  H   0.39964841946269      2.08114954904876      0.34155954291911
  H   2.06600870762849      1.56028521199301      0.05782423186146
  H   0.85656454234013      1.40319995879581     -1.23420692523589
  N   1.59075542699429     -1.02543096712628     -0.38020145522594
  O   2.51216626462455     -1.54072504022975      0.24410328793299
  O   1.32462430814406     -1.19330087965229     -1.56769679515005
