17
Coordinates from ORCA-job run
  C   -0.81710562801295     -0.10242973073369     -0.15537090103242
  C   0.66958697958980      0.07265446035312      0.13765741204919
  Cl  -1.31181998114519      0.51662202636682     -1.68960113980721
  H   0.84387133030722     -0.32699560665133      1.13690871595839
  N   -1.17535272860295     -1.60599218600577     -0.01714956547096
  O   -1.15049243588323     -2.00252907945609      1.13894168048155
  O   -1.40325683756961     -2.23759115145768     -1.03100816831816
  N   -1.66887897724218      0.53772588092018      0.95744542859362
  O   -1.07667974993244      0.96935406377604      1.93709305046543
  O   -2.87452791192519      0.50775837623518      0.77027812359044
  C   1.18955300345448      1.48502070048489     -0.01654036436941
  H   0.67706084710293      2.14669574609399      0.67966746427899
  H   2.25513294158128      1.49577197391163      0.21893465467943
  H   1.06094556320165      1.84223092207257     -1.03539760383190
  N   1.41378138100167     -0.86471404964893     -0.78904253596541
  O   1.81753703487311     -0.41330832628855     -1.85530522245180
  O   1.54964516920159     -2.01927401997239     -0.38851102884977
