17
Coordinates from ORCA-job run
  C   -0.80953391165333      0.14473995469171      0.41164087122504
  C   0.70269952406954      0.27383013678936      0.23795979426875
  Cl  -1.47265811666085      1.63326908214486      1.04003698087718
  H   1.08990994921575      0.46610960696716      1.24348310056884
  N   -1.50875730008646     -0.23070993241030     -0.89469949830402
  O   -0.82509769487255     -0.89868505318820     -1.66264416731635
  O   -2.66782125483080      0.11621478378893     -1.04124598990906
  N   -1.18048941962843     -0.96036285015454      1.42564611737340
  O   -0.68652179408785     -0.81427288433753      2.52851806423065
  O   -1.93511582240365     -1.83564748530125      1.03890785056912
  C   1.11585270601753      1.36075063747132     -0.73479154034796
  H   0.70533183095990      2.32122448637833     -0.42778246428484
  H   0.78393637089743      1.12451081605917     -1.74513170224244
  H   2.20118728640511      1.43754222615245     -0.74678447966166
  N   1.33142239317792     -1.05700462206045     -0.14789869114333
  O   0.92817071788689     -2.04500839492440      0.45395756351428
  O   2.22748453559385     -1.03550050806663     -0.97917180941760
