17
Coordinates from ORCA-job run
  C   -0.65994902154731     -0.59740549020570      0.33829308257946
  C   0.74070034479947      0.01445834784337      0.32604128202320
  Cl  -0.62680912118428     -2.21333564291622      0.98414179989574
  H   1.09046976491034     -0.01220135972546      1.35748296189622
  N   -1.59096843964954      0.22591881781045      1.24010041108206
  O   -1.05411390524701      0.94322599958916      2.07339829540633
  O   -2.78554638878171      0.03759441081715      1.07567465908123
  N   -1.34327449385327     -0.56009555240735     -1.03566938059683
  O   -1.59152671395282     -1.60758906276181     -1.60014981599516
  O   -1.57204767586933      0.58011947481909     -1.41875223643255
  C   0.90726371377184      1.40058475269993     -0.27175721283635
  H   0.68642347861927      1.40291034784384     -1.33646985957513
  H   0.26193280742786      2.11742675488261      0.23212411049604
  H   1.94540487463854      1.70487333290463     -0.11980159792224
  N   1.63970866358705     -0.92617050832458     -0.42445377085325
  O   1.32607222662164     -1.16449806614496     -1.58805319568820
  O   2.62625988570925     -1.34781655672415      0.16985046743944
