16

C	-0.636053	-0.009241	-1.605756
C	0.107353	-0.059012	-0.276789
Cl	-0.069091	1.312729	-2.643339
H	1.178408	-0.071705	-0.536034
H	-0.515174	-0.936806	-2.161784
N	-2.122897	0.125294	-1.384263
O	-2.634497	1.23371	-1.34588
O	-2.706593	-0.947155	-1.224721
C	-0.193847	-1.341907	0.485156
H	-0.018945	-2.228331	-0.132056
H	-1.225766	-1.347113	0.839091
H	0.487059	-1.369537	1.337803
N	-0.254972	1.082896	0.547487
H	0.384532	1.036843	1.344144
H	0.005011	1.934082	0.057522
Br	2.72564	0.365205	2.151056
