16

C	-0.635231	-0.020347	-1.609724
C	0.108128	-0.062968	-0.280438
Cl	-0.077413	1.303815	-2.649384
H	1.179241	-0.075341	-0.539778
H	-0.50642	-0.948156	-2.16355
N	-2.123058	0.10331	-1.389884
O	-2.64088	1.208621	-1.344175
O	-2.699235	-0.973008	-1.22861
C	-0.191445	-1.343596	0.486142
H	-0.020989	-2.232524	-0.128539
H	-1.222092	-1.345718	0.844072
H	0.491903	-1.368987	1.336874
N	-0.255638	1.080902	0.539909
H	0.007743	1.930684	0.049457
H	0.380144	1.035727	1.339509
Br	2.722779	0.372337	2.152412
