16

C	-0.09755	-0.039818	-1.408548
C	0.14351	-0.235734	0.103952
Cl	-1.710711	0.586428	-1.765389
H	1.194792	-0.549492	0.158204
H	0.642978	0.669986	-1.795497
N	0.122692	-1.357196	-2.100907
O	-0.814188	-1.975424	-2.596999
O	1.286635	-1.752652	-2.053357
C	-0.748854	-1.317506	0.693217
H	-1.803938	-1.047652	0.597247
H	-0.599893	-2.285994	0.209531
H	-0.515065	-1.414912	1.754538
N	0.028434	0.993235	0.860885
H	-0.902319	1.376797	0.735468
H	0.687641	1.66771	0.4681
Br	2.226772	2.57221	-1.346128
