19
Coordinates from ORCA-job run
  C   -0.75519006351045     -0.05348584854320     -0.49642461818400
  C   0.70395056852544     -0.37468990836564     -0.13806442328777
  H   -0.86164191152602     -0.25149978504981     -1.57805723526077
  H   0.88271222559631     -1.40486448886979     -0.47716846200529
  N   -1.05488227192119      1.34465852881005     -0.16667486959786
  H   -0.61665627234636      1.95943590193380     -0.84260122173802
  H   -2.05457940548220      1.49865832941835     -0.23813744839950
  C   -1.74559064949381     -0.94606720461461      0.23792984508075
  H   -2.75438089824314     -0.81824622056775     -0.16698047721456
  H   -1.47585885268609     -2.00030860573081      0.13594429784256
  H   -1.77429001683885     -0.69058975264447      1.29893008850834
  C   0.97149771051306     -0.30006021174422      1.36326929305387
  H   0.65501657272450      0.67064359713845      1.74964006604243
  H   2.03852002591137     -0.42500853625528      1.56856991157698
  H   0.43934210995705     -1.07955088331065      1.91291843846259
  C   1.66235698350610      0.54162523286179     -0.89814645125248
  H   2.69593603883119      0.20449493354059     -0.78360700865340
  H   1.43509283594206      0.56110777594548     -1.96932290173481
  H   1.60864527054104      1.56374714604772     -0.51301682323906
