19
Coordinates from ORCA-job run
  C   -0.71741663816230      0.32087985246018     -0.27681572009436
  C   0.58209323407765     -0.09987113413883      0.42242147614654
  H   -0.44057046383536      0.98345567234537     -1.10911924151996
  H   0.29111672916105     -0.64964386794980      1.33162709701952
  N   -1.50786897100628      1.13428579216110      0.65506731292360
  H   -1.86601956718734      0.53092912939855      1.38960323271706
  H   -2.31421498579539      1.51497094713845      0.17187967273433
  C   -1.50086366158182     -0.86523509967310     -0.84284049279778
  H   -2.46195952398129     -0.52520122133177     -1.23932290624754
  H   -1.70379121705918     -1.59830332766243     -0.05399777352263
  H   -0.97041917277183     -1.37226691388461     -1.65181683007992
  C   1.39174306021532      1.12577461455793      0.84004548237787
  H   1.74604037861357      1.66148203975660     -0.04742631065276
  H   2.26924173591147      0.83309799990507      1.42382224442529
  H   0.78414462845638      1.81091228999176      1.42950152229500
  C   1.43262005841720     -1.02777697602026     -0.44331789159414
  H   0.95303534043382     -1.99204076415364     -0.62109860531814
  H   1.63724097518302     -0.56535259019346     -1.41511452977477
  H   2.39484806091130     -1.22209644270711      0.03790226096279
