19
Coordinates from ORCA-job run
  C   -0.77598620899460      0.28261396389408     -0.44510536841734
  C   0.71267275572802      0.41624432127300     -0.08773948948459
  H   -0.84889423935885      0.38997686650064     -1.54189573074035
  H   0.98161543507260      1.46107800528933     -0.30578622474903
  N   -1.52482931230426      1.33116623164923      0.25599665139782
  H   -1.22953892858065      2.24082191312999     -0.08270924669162
  H   -2.51277601368141      1.24258609967368      0.04403622322306
  C   -1.37952200590378     -1.06319218550563     -0.06725189947144
  H   -1.40156215480355     -1.17950047488838      1.01765290961370
  H   -0.82557851808927     -1.89557112788692     -0.50541717093739
  H   -2.40983101349436     -1.12975264641791     -0.43076039823754
  C   1.59066972976417     -0.46950447416042     -0.96861606094289
  H   1.39917048161369     -0.29595637880442     -2.03181062245370
  H   2.64914192108160     -0.26844579854079     -0.78200625894285
  H   1.41956941058328     -1.52946962300156     -0.76204996589433
  C   0.98316096516876      0.16580582591517      1.39332353733504
  H   0.28697648556511      0.73275280038909      2.01263680222320
  H   0.88112310511761     -0.89524747831208      1.63782986159452
  H   2.00341810551588      0.46359415980391      1.65167245157573
