19
Coordinates from ORCA-job run
  C   -0.80742770207063      0.26701687177996     -0.53697118241502
  C   0.67228022368618      0.42711700134114     -0.12477363053658
  H   -0.83887895592449      0.37487322415727     -1.62970922537924
  H   0.94071110226425      1.46258727696895     -0.38280385071776
  N   -1.70331739006852      1.29676655358896     -0.00535549705337
  H   -1.31899914001739      2.21769727964051     -0.18715789141666
  H   -1.78434440548352      1.19745809254007      1.00028653335950
  C   -1.39674628281085     -1.09289514148876     -0.18601872999585
  H   -1.44896460985921     -1.23014212751178      0.89827335681518
  H   -2.41373599469107     -1.15527523071643     -0.57679219374212
  H   -0.81343715248315     -1.91526440772045     -0.60408083772110
  C   1.59011863642579     -0.49468361053567     -0.92645103135430
  H   2.64077179936135     -0.24811217405872     -0.74927973844707
  H   1.44838617574818     -1.54129331017146     -0.64407087278543
  H   1.40300871893745     -0.40626298056038     -2.00088030695352
  C   0.90482543471876      0.24575707252365      1.37304502716455
  H   0.74515891951884     -0.79249744341894      1.67601171291985
  H   0.24530953746440      0.88090292230553      1.97010901506929
  H   1.93328108528363      0.50825013133655      1.63561934318963
