16

C	0.0	0.0	0.0
C	-0.234618	0.038455	-1.572069
Br	1.970541	0.0	0.0
H	0.546435	-0.644488	-1.939844
C	-0.46718	1.153398	0.746746
N	-0.540803	2.1382	1.398576
C	-0.473258	-1.25164	0.567991
N	-0.528204	-2.353057	0.999126
N	-0.027065	1.413857	-2.017199
H	-0.067853	1.420834	-3.031064
H	0.910178	1.700378	-1.753581
C	-1.53483	-0.47409	-2.171363
H	-2.350707	0.228815	-2.016208
H	-1.363717	-0.604702	-3.253329
H	-1.812853	-1.439358	-1.747506
H	-1.898025	0.0	0.0
