16

C	0.0	0.0	0.0
C	-0.220412	0.024539	-1.578782
Br	1.970335	0.0	0.0
H	0.547084	-0.681968	-1.9295
C	-0.474921	1.177387	0.703651
N	-0.55308	2.195977	1.301054
C	-0.495871	-1.231798	0.589007
N	-0.580805	-2.306605	1.07917
N	0.030382	1.38654	-2.046568
H	0.12997	1.349173	-3.056387
H	0.922167	1.696696	-1.677844
C	-1.531561	-0.443701	-2.189678
H	-2.323062	0.286152	-2.035167
H	-1.84711	-1.405229	-1.78497
H	-1.353706	-0.563719	-3.27193
H	-1.906374	0.0	0.0
