16

C	0.0	0.0	0.0
C	-0.253906	0.039204	-1.614585
Br	1.964811	0.0	0.0
H	0.603616	0.60569	-1.981105
C	-0.483709	1.234298	0.59881
N	-0.56596	2.332824	1.031503
C	-0.504745	-1.18164	0.66923
N	-0.575542	-2.233754	1.207711
N	-1.41438	0.714362	-2.160484
H	-1.43209	1.664919	-1.797105
H	-2.231014	0.275269	-1.741895
C	-0.178727	-1.380775	-2.151674
H	-1.012343	-1.97528	-1.768759
H	-0.23547	-1.345974	-3.242012
H	0.752166	-1.86882	-1.856784
H	-2.022322	0.0	0.0
