16

C	0.0	0.0	0.0
C	-0.225552	-0.035075	-1.583038
Br	1.955654	0.0	0.0
H	0.508825	-0.790149	-1.901805
C	-0.476904	1.209974	0.65219
N	-0.554746	2.226594	1.251232
C	-0.579857	-1.194859	0.600676
N	-0.631766	-2.288284	1.060959
N	0.070061	1.293441	-2.112265
H	-0.098467	1.277152	-3.113101
H	1.052573	1.501451	-1.96884
C	-1.556612	-0.486752	-2.164242
H	-1.905432	-1.410973	-1.705422
H	-2.322626	0.276053	-2.048326
H	-1.388533	-0.674842	-3.23997
H	-1.933137	0.0	0.0
