16

C	0.0	0.0	0.0
C	-0.322807	0.104672	-1.553421
Br	1.960256	0.0	0.0
H	-1.393331	0.308968	-1.565488
C	-0.474988	1.205122	0.683781
N	-0.530357	2.255513	1.223029
C	-0.633213	-1.191386	0.571873
N	-0.65361	-2.281698	1.04672
N	0.004479	-1.17563	-2.177732
H	-0.207816	-1.096657	-3.167202
H	-0.62002	-1.880752	-1.794709
C	0.383248	1.240532	-2.277795
H	-0.143013	1.422972	-3.222416
H	1.42192	0.997815	-2.502036
H	0.348285	2.162537	-1.692961
H	-2.149333	0.0	0.0
