16

C	0.0	0.0	0.0
C	-0.343149	0.138232	-1.546763
Br	1.958977	0.0	0.0
H	0.607143	0.368058	-2.032553
C	-0.406745	1.156389	0.793725
N	-0.48357	2.105446	1.490672
C	-0.489213	-1.231329	0.606534
N	-0.551094	-2.304937	1.099596
N	-1.180933	1.301023	-1.817748
H	-2.082342	1.115394	-1.381251
H	-1.290371	1.375483	-2.825319
C	-0.82718	-1.187809	-2.13325
H	-0.107216	-1.992968	-1.954952
H	-1.786048	-1.465069	-1.696235
H	-0.943665	-1.067727	-3.216337
H	-2.08953	0.0	0.0
