16

C	0.0	0.0	0.0
C	-0.223668	-0.220514	-1.565516
Br	1.95796	0.0	0.0
H	0.498636	-1.022328	-1.789726
C	-0.474248	1.277632	0.510597
N	-0.556472	2.354294	0.990816
C	-0.573076	-1.111245	0.747208
N	-0.635401	-2.13014	1.353993
N	0.095977	1.031056	-2.250185
H	1.077275	1.248483	-2.111294
H	-0.051103	0.890583	-3.244929
C	-1.564707	-0.705177	-2.096808
H	-2.313299	0.084891	-2.061119
H	-1.932741	-1.566396	-1.539527
H	-1.400842	-1.010391	-3.144871
H	-1.926665	0.0	0.0
