16

C	0.0	0.0	0.0
C	-0.335619	-0.039889	-1.552778
Br	1.96429	0.0	0.0
H	0.612192	0.154521	-2.056443
C	-0.407753	1.241497	0.651058
N	-0.4878	2.264115	1.232895
C	-0.486717	-1.152973	0.745443
N	-0.553713	-2.161657	1.359906
N	-1.196367	1.068518	-1.960066
H	-1.303625	1.015021	-2.969424
H	-2.096867	0.904978	-1.509127
C	-0.79852	-1.428961	-1.985759
H	-1.773077	-1.643219	-1.546626
H	-0.878514	-1.444339	-3.078172
H	-0.091566	-2.206456	-1.68226
H	-2.089916	0.0	0.0
