16

C	0.0	0.0	0.0
C	-0.297115	-0.236055	-1.583327
Br	1.966794	0.0	0.0
H	0.636493	0.050891	-2.065735
C	-0.417155	1.342817	0.383985
N	-0.513301	2.493461	0.633091
C	-0.522781	-1.012782	0.894171
N	-0.582945	-1.91702	1.656994
N	-1.315376	0.564495	-2.230883
H	-1.016599	1.53586	-2.215672
H	-2.144958	0.507211	-1.639499
C	-0.512675	-1.719559	-1.825345
H	-0.531011	-1.898249	-2.9033
H	-1.460613	-2.040244	-1.389771
H	0.296999	-2.304313	-1.378609
H	-2.06253	0.0	0.0
