16

C	0.0	0.0	0.0
C	-0.281726	-0.066739	-1.561546
Br	1.969268	0.0	0.0
H	-1.358401	-0.207976	-1.612661
C	-0.553314	1.199031	0.618296
N	-0.573363	2.265457	1.138946
C	-0.485799	-1.205875	0.670454
N	-0.552688	-2.228335	1.260529
N	0.33267	-1.259585	-2.129757
H	-0.21732	-1.560564	-2.923796
H	1.278163	-1.073733	-2.440777
C	0.059621	1.239721	-2.271695
H	1.1345	1.434195	-2.27617
H	-0.446295	2.088826	-1.805628
H	-0.27948	1.164242	-3.310334
H	-2.108965	0.0	0.0
