17

C	0.0	0.0	0.0
C	-0.654049	-0.080504	-1.376272
Br	1.965786	0.0	0.0
H	-1.697629	-0.355449	-1.098149
C	-0.523	1.187491	0.786029
H	-0.162681	1.1627	1.816246
H	-0.198174	2.111209	0.304861
H	-1.623073	1.091125	0.760784
C	-0.312385	-1.246701	0.717301
N	-0.487824	-2.22237	1.348441
N	-0.0577	-1.124673	-2.17052
H	0.801058	-0.788604	-2.594539
H	-0.701913	-1.409848	-2.897295
N	-0.642809	1.242001	-2.020196
H	-1.453823	1.736371	-1.647451
H	-0.856777	1.079593	-2.999445
H	-3.299473	0.0	0.0
