17

C	0.0	0.0	0.0
C	-0.502523	0.015312	-1.481709
Br	1.963481	0.0	0.0
H	0.344856	-0.306721	-2.101408
C	-0.541614	1.124918	0.857325
H	-1.630846	1.031515	0.842076
H	-0.23946	2.083047	0.440056
H	-0.178059	1.035593	1.878906
C	-0.320959	-1.300217	0.638057
N	-0.457758	-2.299708	1.248906
N	-0.771643	1.412204	-1.868434
H	-1.681994	1.648631	-1.485919
H	-0.801444	1.438713	-2.885142
N	-1.578079	-0.940214	-1.630534
H	-1.896245	-0.90718	-2.598536
H	-2.365328	-0.62829	-1.003057
H	-3.511597	0.0	0.0
