17

C	0.0	0.0	0.0
C	-0.342121	0.230479	-1.527323
Br	1.97208	0.0	0.0
H	0.281014	-0.503653	-2.061536
C	-0.562389	1.067999	0.910906
H	-0.270398	2.042407	0.521749
H	-1.657147	0.957081	0.876355
H	-0.207999	0.937134	1.936239
C	-0.383251	-1.358971	0.396079
N	-0.503523	-2.511978	0.596884
N	0.027037	1.60641	-1.866191
H	-0.598992	1.863679	-2.620096
H	0.985682	1.64809	-2.193717
N	-1.70982	0.010638	-1.900116
H	-2.410084	0.160542	-1.127423
H	-1.83614	-0.973218	-2.104705
H	-3.496153	0.0	0.0
