15

C	0.0	0.0	0.0
C	-0.380882	0.083534	-1.482158
F	1.355561	0.0	0.0
H	0.169448	0.972389	-1.818173
H	-1.452041	0.271576	-1.493183
C	-0.484964	1.175757	0.734303
N	-0.575619	2.218296	1.271345
N	-0.412449	-1.23897	0.763496
O	-0.485029	-2.295292	0.148713
O	-0.482683	-1.123229	1.982259
C	0.015093	-1.103826	-2.354974
H	-0.007129	-0.790561	-3.403618
H	-0.684233	-1.926591	-2.22516
H	1.020791	-1.470568	-2.134561
F	-2.406823	0.0	0.0
