15

C	0.0	0.0	0.0
C	-0.381882	-0.098352	-1.483245
F	1.355433	0.0	0.0
H	-1.452704	-0.285091	-1.487579
H	-0.216849	0.917858	-1.85932
C	-0.498934	1.209437	0.652996
N	-0.510132	2.276099	1.154498
N	-0.407234	-1.206766	0.825411
O	-0.537384	-2.276085	0.2433
O	-0.419951	-1.053146	2.040905
C	0.436367	-1.089136	-2.305093
H	0.245431	-0.904025	-3.367091
H	0.142994	-2.113949	-2.079006
H	1.513693	-0.993387	-2.141164
F	-2.399548	0.0	0.0
