15

C	0.0	0.0	0.0
C	-0.228538	0.006653	-1.540385
F	1.358935	0.0	0.0
H	0.605613	-0.603717	-1.898939
H	0.022658	1.038595	-1.818045
C	-0.508611	1.147901	0.743875
N	-0.595357	2.178272	1.305522
N	-0.380082	-1.288116	0.676503
O	-0.382654	-2.297654	-0.021298
O	-0.485055	-1.268157	1.897675
C	-1.482942	-0.425531	-2.282475
H	-1.791919	-1.419978	-1.971607
H	-2.306821	0.247927	-2.083969
H	-1.225885	-0.444346	-3.352077
F	-2.276128	0.0	0.0
