13
Coordinates from ORCA-job run
  C   -0.40545575526871      0.16249149007432      0.45756377541907
  C   1.02052653201120     -0.40714352212766      0.58279525415842
  Br  -1.32239023324814     -0.23390191891525      2.15003560023509
  H   1.53260431429143      0.05123518637419      1.43243220132371
  H   0.95321141544367     -1.48241176431598      0.77098683878023
  C   -0.35382964327946      1.61546386035263      0.31748686419646
  N   -0.29859093832188      2.78092358978073      0.17346223573398
  C   -1.18274940328110     -0.46849527095739     -0.69165267792063
  H   -1.22540128852928     -1.55101768185568     -0.55672340023933
  H   -2.19921001722715     -0.07623270677535     -0.72389251024540
  H   -0.68528253719591     -0.24187334364270     -1.63807963134584
  C   1.78596742533354     -0.17044693989566     -0.64047775512570
  N   2.37960012927178      0.02040902190380     -1.63493679497004
