13
Coordinates from ORCA-job run
  C   -0.33869196287569      0.36164571025889      0.29285561213691
  C   1.18187273388255      0.18982703142308      0.11169085801385
  Br  -0.78792307735171      0.03254203851461      2.17507461269013
  H   1.71581310834710      0.85551717691228      0.79420051404837
  H   1.44172785914726      0.48083786055175     -0.91237620624770
  C   -0.67685950367827      1.75203832611177     -0.00193588831611
  N   -0.93074314702402      2.86447384287487     -0.28478038028254
  C   -1.14225048907709     -0.58822696286301     -0.58800317407934
  H   -0.88781204644830     -0.41222250049938     -1.63737102291805
  H   -2.21064941240974     -0.42070507425815     -0.45152391360511
  H   -0.90887862061155     -1.62216390127426     -0.33023556952130
  C   1.60593758847756     -1.18924788566258      0.33665314447508
  N   1.93845696962190     -2.30331566208989      0.49575141360582
