13
Coordinates from ORCA-job run
  C   -0.40969834594940      0.16980847191021      0.45192827725598
  C   1.01843740578084     -0.38974351276124      0.59886757252346
  Br  -1.33784342844667     -0.20039941566830      2.14376442259550
  H   0.95499585495712     -1.46133028408285      0.80847423209767
  H   1.52190863326449      0.08848579130271      1.44262890677179
  C   -0.36392129805967      1.62015982731720      0.28449995912992
  N   -0.31388830803631      2.78291616038377      0.11887019099613
  C   -1.17430979433027     -0.48646955243427     -0.69180119292897
  H   -0.66965639530224     -0.27537481434193     -1.63792269475062
  H   -2.19231385621902     -0.09985172691890     -0.74020593106907
  H   -1.21335919831447     -1.56641029977149     -0.53673339226141
  C   1.79115338940604     -0.17572328794368     -0.62388781325372
  N   2.38949534124957     -0.00606735699122     -1.61948253710666
