13
Coordinates from ORCA-job run
  C   -0.34231038231603      0.19828430613984      0.21214484262411
  C   1.00895635768814     -0.50852974068161      0.01370391371722
  Br  -0.65269882713756      0.42859724894139      2.13570353931413
  H   1.15298698838069     -0.67831388773680     -1.05927810899435
  H   0.96816306230499     -1.48344538928686      0.50772653413971
  C   -0.31207478627648      1.52517038186061     -0.39728566814505
  N   -0.29861935305692      2.56881176252841     -0.93824651026354
  C   -1.47614127210289     -0.63642100809411     -0.37603387525676
  H   -2.43541534999552     -0.14384265493521     -0.21742705796146
  H   -1.31776954045297     -0.76177799544663     -1.45094051461780
  H   -1.50031308692008     -1.61690100987836      0.10316128913047
  C   2.14302413639608      0.25163102146554      0.53082043911258
  N   3.06321205348854      0.85673696512379      0.93595117720074
