13

C	-0.548728	0.015874	-1.424625
C	0.0	0.0	0.0
F	-0.166275	-1.116509	-2.117289
H	1.099651	0.0	0.0
H	-1.643356	0.035746	-1.384851
C	-0.097291	1.213036	-2.152131
N	0.213566	2.147484	-2.788476
C	-0.495284	-1.19287	0.681599
N	-0.947899	-2.113182	1.254535
N	-0.475494	1.234229	0.653338
H	0.343484	1.809103	0.804774
H	-0.865174	1.025715	1.561245
Br	3.420811	0.0	0.0
