13

C	-0.370268	0.024031	-1.481914
C	0.0	0.0	0.0
F	-1.731891	0.30491	-1.634596
H	1.091724	0.0	0.0
H	0.18818	0.840643	-1.948724
C	-0.088836	-1.230848	-2.189285
N	0.091958	-2.224407	-2.78626
C	-0.583544	-1.165297	0.670644
N	-1.106541	-2.07024	1.204116
N	-0.403799	1.221283	0.682864
H	-1.251209	1.603197	0.281756
H	0.350222	1.893812	0.618164
Br	3.393656	0.0	0.0
