13

C	-0.55699	0.013529	-1.421869
C	0.0	0.0	0.0
F	-0.239003	-1.149693	-2.093596
H	1.099564	0.0	0.0
H	-1.649499	0.085283	-1.374508
C	-0.062236	1.173937	-2.17865
N	0.26599	2.092587	-2.830433
C	-0.478937	-1.201363	0.686571
N	-0.919065	-2.120459	1.271303
N	-0.444993	1.235842	0.651934
H	-1.111177	1.051444	1.386833
H	0.368642	1.689667	1.050768
Br	3.413188	0.0	0.0
