13

C	-0.546712	0.021032	-1.426978
C	0.0	0.0	0.0
F	-0.128631	-1.082115	-2.139113
H	1.099684	0.0	0.0
H	-1.64048	0.008609	-1.383718
C	-0.130424	1.247754	-2.127215
N	0.1841	2.212109	-2.717544
C	-0.493666	-1.205282	0.662257
N	-0.930375	-2.150615	1.205181
N	-0.522651	1.21102	0.663587
H	0.219466	1.905544	0.610496
H	-0.661912	1.017887	1.648535
Br	3.446914	0.0	0.0
