13

C	-0.554213	0.078144	-1.421881
C	0.0	0.0	0.0
F	-0.24423	-1.057724	-2.142257
H	1.094034	0.0	0.0
H	-1.646036	0.156279	-1.372448
C	-0.047107	1.266342	-2.126249
N	0.318447	2.220463	-2.702757
C	-0.481511	-1.233379	0.627716
N	-0.921973	-2.180026	1.166337
N	-0.445509	1.204309	0.706421
H	0.362823	1.620251	1.151852
H	-1.129759	0.989606	1.417295
Br	3.413115	0.0	0.0
