16

C	-0.481613	-0.039634	-1.430436
C	0.0	0.0	0.0
Cl	-2.25024	-0.305148	-1.594944
H	1.094338	0.0	0.0
H	0.014622	-0.835259	-1.983707
N	-0.120065	1.226962	-2.164552
O	0.978397	1.197858	-2.714406
O	-0.889482	2.177892	-2.141851
C	-0.384358	-1.281727	0.728524
H	-0.100104	-2.167532	0.151116
H	-1.457715	-1.333659	0.941707
H	0.173681	-1.311259	1.668493
N	-0.412109	1.222173	0.665695
H	0.360395	1.528443	1.246534
H	-1.2281	1.07773	1.246086
H	2.812002	0.0	0.0
