16

C	-0.433477	-0.039204	-1.448919
C	0.0	0.0	0.0
Cl	-0.179151	-1.598154	-2.259683
H	1.1019	0.0	0.0
H	0.109035	0.71069	-2.019733
N	-1.881925	0.325371	-1.598242
O	-2.139374	1.328842	-2.258084
O	-2.709643	-0.383272	-1.032048
C	-0.509462	-1.113912	0.891857
H	0.037709	-1.051651	1.837649
H	-1.583559	-1.029977	1.084722
H	-0.311953	-2.096688	0.458972
N	-0.400965	1.336888	0.479251
H	0.459725	1.85676	0.619747
H	-0.850839	1.255293	1.382979
H	2.840801	0.0	0.0
