16

C	-0.615817	0.016241	-1.385409
C	0.0	0.0	0.0
Cl	0.049209	1.296545	-2.414327
H	1.099435	0.0	0.0
H	-1.691058	0.174082	-1.31813
N	-0.459965	-1.313145	-2.076866
O	0.595484	-1.586439	-2.628759
O	-1.435582	-2.063124	-1.975287
C	-0.468935	-1.209853	0.788873
H	-0.114655	-2.138555	0.339785
H	-1.558779	-1.249362	0.886224
H	-0.01908	-1.153291	1.78437
N	-0.494034	1.236344	0.647502
H	-0.356521	1.108854	1.645282
H	0.168901	1.964607	0.391006
H	2.91544	0.0	0.0
