16

C	-0.560212	0.048618	-1.417255
C	0.0	0.0	0.0
Cl	0.139487	1.34596	-2.399426
H	1.09445	0.0	0.0
H	-1.643443	0.195209	-1.412134
N	-0.391947	-1.272866	-2.130131
O	-1.373787	-2.018975	-2.068491
O	0.676237	-1.540242	-2.656845
C	-0.486169	-1.240239	0.732144
H	-0.102976	-1.170198	1.750967
H	-0.090359	-2.15522	0.284444
H	-1.580356	-1.307642	0.768777
N	-0.380752	1.208388	0.72885
H	-1.273351	1.576334	0.418725
H	0.333921	1.909295	0.561852
H	2.885306	0.0	0.0
