16

C	-0.458539	0.217168	-1.426288
C	0.0	0.0	0.0
Cl	0.103215	-1.029632	-2.549208
H	1.094363	0.0	0.0
H	-0.104658	1.181276	-1.777631
N	-1.96071	0.293092	-1.501848
O	-2.449536	1.419428	-1.585555
O	-2.605626	-0.752352	-1.413565
C	-0.464959	-1.296493	0.638771
H	0.09579	-1.420047	1.569596
H	-0.253875	-2.15949	0.005556
H	-1.537815	-1.290646	0.864181
N	-0.378151	1.198128	0.750671
H	-1.115475	0.992782	1.413923
H	0.445479	1.496655	1.267637
H	2.806955	0.0	0.0
