16

C	-0.41084	0.009562	-1.453962
C	0.0	0.0	0.0
Cl	-0.307939	-1.564477	-2.279386
H	1.096114	0.0	0.0
H	0.214734	0.709692	-2.003713
N	-1.819922	0.514468	-1.647714
O	-1.98919	1.393454	-2.489341
O	-2.707529	0.020125	-0.956556
C	-0.488029	-1.147739	0.862236
H	-1.574042	-1.141111	0.989015
H	-0.007561	-1.046278	1.839651
H	-0.186708	-2.112719	0.450376
N	-0.373623	1.330083	0.495519
H	0.432703	1.706147	0.984191
H	-1.152085	1.267534	1.14135
H	2.836814	0.0	0.0
