16

C	-0.378593	0.011273	-1.462744
C	0.0	0.0	0.0
Cl	-2.156129	0.106758	-1.759851
H	1.097722	0.0	0.0
H	-0.023814	-0.881746	-1.971499
N	0.248994	1.149974	-2.216771
O	-0.034423	2.294837	-1.876125
O	1.019149	0.841339	-3.122663
C	-0.462089	-1.299566	0.638683
H	-0.122616	-2.168368	0.065327
H	-0.013097	-1.35136	1.631751
H	-1.551284	-1.340706	0.743109
N	-0.430586	1.146284	0.783041
H	0.277768	1.864915	0.691947
H	-1.300303	1.525487	0.428812
H	2.822557	0.0	0.0
