16

C	-0.619024	0.090345	-1.386603
C	0.0	0.0	0.0
Cl	0.193922	1.263763	-2.427803
H	1.09381	0.0	0.0
H	-1.664045	0.385555	-1.315161
N	-0.653579	-1.252902	-2.066022
O	-1.72422	-1.858828	-1.961194
O	0.356655	-1.685804	-2.603145
C	-0.441352	-1.252402	0.741378
H	-1.528944	-1.309149	0.869589
H	0.039971	-1.233823	1.722857
H	-0.100185	-2.159505	0.238017
N	-0.41065	1.234888	0.689383
H	0.447527	1.684493	0.998159
H	-0.945537	1.004177	1.518444
H	2.86166	0.0	0.0
