16

C	-0.615616	-0.021182	-1.385761
C	0.0	0.0	0.0
Cl	0.066297	1.215071	-2.456856
H	1.101974	0.0	0.0
H	-1.688469	0.153648	-1.325802
N	-0.475676	-1.374088	-2.03006
O	0.58229	-1.68433	-2.55407
O	-1.464596	-2.104422	-1.917166
C	-0.470858	-1.186891	0.821464
H	-0.116194	-2.127839	0.397302
H	-1.561368	-1.222241	0.917771
H	-0.022485	-1.10366	1.816397
N	-0.490822	1.256316	0.610858
H	-0.364785	1.153219	1.613471
H	0.181314	1.972774	0.34298
H	2.910796	0.0	0.0
