13
Coordinates from ORCA-job run
  C   -0.29431227835849     -0.03841162238956      0.33676307228893
  C   1.01288721013354      0.30696436953360     -0.39575723253989
  Br  -0.15686803307225      0.58612450596641      2.19171479848952
  H   0.90980302078612      0.00249147546948     -1.44338391942667
  H   1.14992116836617      1.39176398601712     -0.37098135518141
  C   -1.48156228990635      0.64937213545563     -0.33080255028027
  H   -1.33210938322186      1.73065272023816     -0.32775667074378
  H   -2.40471241406749      0.42051934242375      0.20155453927103
  H   -1.57366520731867      0.29870951344908     -1.36265533891324
  C   -0.48933264339461     -1.48549413383226      0.36662626049988
  N   -0.66585284541004     -2.64745019652325      0.33941888320902
  C   2.18793255478898     -0.34510224663672      0.17467584562339
  N   3.13787114067495     -0.87113984917143      0.61958366770351
