13
Coordinates from ORCA-job run
  C   -0.34761871772440     -0.01430395540337      0.52897685268857
  C   1.14903169230223      0.31057088629993      0.36112540826294
  Br  -0.91573640328511      0.80334378044304      2.22316875058886
  H   1.71511366712800     -0.08915665730197      1.20609505575620
  H   1.27304576465032      1.39720865326476      0.35731601229594
  C   -1.19388767900050      0.54932020681828     -0.60654684708063
  H   -2.25010478344995      0.34362935617893     -0.43216115845270
  H   -1.04986327897032      1.62962922473160     -0.67176938770615
  H   -0.89391415885411      0.08720054118825     -1.55052463216285
  C   -0.53607090558740     -1.45743757115892      0.65331575261874
  N   -0.67938689570425     -2.62237928083578      0.71913740825195
  C   1.66736357559058     -0.24596174363711     -0.88778775407187
  N   2.06102812290490     -0.69066344058764     -1.90034546098901
