13
Coordinates from ORCA-job run
  C   -0.28322521527269     -0.04203464218980      0.34639571240320
  C   0.99799981381466      0.31431970411327     -0.42589166106609
  Br  -0.08987333376086      0.57321463584769      2.19922632893288
  H   0.86307971164773      0.01413184295889     -1.47112327084158
  H   1.12998035059385      1.39975175006940     -0.40016295825627
  C   -1.49485795857003      0.64262622857221     -0.27930230056305
  H   -1.35154452587478      1.72473265516901     -0.27410500892485
  H   -2.39949481556536      0.40494596919597      0.28030115496618
  H   -1.61720342940586      0.29785179585091     -1.31003041118205
  C   -0.47000207544863     -1.49030790685866      0.37364684671305
  N   -0.64272003047313     -2.65265689696867      0.34273683760238
  C   2.19426607185106     -0.33365108418090      0.10378210518495
  N   3.16259543646403     -0.85392405157932      0.51452662503127
