13
Coordinates from ORCA-job run
  C   -0.33368810214395     -0.00048172440414      0.53736111684465
  C   1.14927281123880      0.35483610407730      0.31816175325897
  Br  -0.88244241969472      0.87516134312150      2.20911649805152
  H   1.74598356008932      0.00590511292433      1.16453966162822
  H   1.24466163406131      1.44309460158907      0.26524605762180
  C   -1.22221724786586      0.49125171021400     -0.59921248486770
  H   -2.26760951265875      0.26346856282255     -0.39012170152611
  H   -0.93119877321983     -0.00137724862886     -1.53049825902414
  H   -1.11156706636329      1.57161506009360     -0.71251959467772
  C   -0.48071248221787     -1.44090250088085      0.72894332559419
  N   -0.59270410870021     -2.60491177123499      0.84954231458853
  C   1.65143478088470     -0.24087236968170     -0.91935247270592
  N   2.03178692659033     -0.71778688001182     -1.92220621478629
