13
Coordinates from ORCA-job run
  C   -0.32999088294136     -0.01315061008590      0.53966416278541
  C   1.15429359829152      0.33604885607626      0.31923217789197
  Br  -0.85789009881262      0.81581009101952      2.24151672977087
  H   1.25813175428599      1.42455845744186      0.29446877241225
  H   1.75408354269705     -0.03983659760183      1.15183758909218
  C   -1.22245456113688      0.52116339136976     -0.57437557411328
  H   -0.94266073426242      0.05496561518120     -1.52246646666837
  H   -2.26845114855292      0.29659680851476     -0.36524895186438
  H   -1.10246956734358      1.60332632320826     -0.65494782606708
  C   -0.48848320763700     -1.45761244641727      0.68773051568894
  N   -0.61079353369625     -2.62370956262838      0.77281754499439
  C   1.64301297126750     -0.23150143122595     -0.93667977000116
  N   2.01267186784096     -0.68665889485229     -1.95354890392174
