13
Coordinates from ORCA-job run
  C   -0.30208385731625     -0.06780582249005      0.32547717579114
  C   1.01348837903394      0.35626412183052     -0.34893886881112
  Br  -0.22949951576037      0.44301050403790      2.21827070775322
  H   1.11801991909358      1.44118081687666     -0.25738550868095
  H   0.94714717002959      0.11111804994649     -1.41495115139555
  C   -1.49035231671421      0.62940420150934     -0.33040890929939
  H   -1.54565530887016      0.34299036506351     -1.38441482945072
  H   -2.42031387583329      0.34312791402721      0.16057100105019
  H   -1.37129571677923      1.71176459762653     -0.25508323186303
  C   -0.45710640324545     -1.51846159262335      0.25965626070447
  N   -0.59867084101754     -2.68076963699560      0.15470993865754
  C   2.19157205712499     -0.29471615077427      0.21612714302798
  N   3.14475031025441     -0.81810736803488      0.65737027251621
