13
Coordinates from ORCA-job run
  C   -0.27139178273540     -0.26020060069022      0.43579591847949
  C   1.14164682131211     -0.33125804173752     -0.17477845065880
  Br  -0.12857513296729      0.42001496521321      2.27150095008223
  H   1.06889807545102     -0.81272400416900     -1.15650790311378
  H   1.78793306273775     -0.94904077501629      0.45339430897662
  C   -1.20703829375907      0.64127481952556     -0.36156998620564
  H   -2.20100722137150      0.64789645421550      0.08586519952255
  H   -0.81784823754947      1.66022098012357     -0.37770538570361
  H   -1.28331659358792      0.26821972050369     -1.38720879312657
  C   -0.80100998895359     -1.61971509879926      0.51178214988667
  N   -1.21760111706026     -2.71902705046188      0.52419512781797
  C   1.73357271697729      0.99363001874268     -0.33729994786119
  N   2.19573769150634      2.06170861254995     -0.48746318809592
