13
Coordinates from ORCA-job run
  C   -0.31417156369029     -0.11325602559828      0.46815636314952
  C   1.17734391847060     -0.21798462499035      0.09514850117264
  Br  -0.51163799223760      1.21411390216415      1.90062306111582
  H   1.76552933052928     -0.46983588598469      0.98098561206328
  H   1.29518575459863     -1.03252071217181     -0.62842268374302
  C   -1.18417655388233      0.29296220875213     -0.71579792057841
  H   -1.07361048350669     -0.44390380112186     -1.51670630519768
  H   -2.23228060640790      0.33712208389962     -0.41998511495325
  H   -0.87751212158927      1.27283094492986     -1.08407588121623
  C   -0.73863723044823     -1.40404828036997      1.00510899689425
  N   -1.06502295934774     -2.46429531857664      1.39387524948585
  C   1.68125807793780      1.01963934125331     -0.49373303533246
  N   2.07673242957373      2.00917616781454     -0.98517684286031
