13
Coordinates from ORCA-job run
  C   -0.29187587345802     -0.22311848193989      0.44277068941773
  C   1.14939698002186     -0.33904851157691     -0.08994041455432
  Br  -0.24051717642582      0.61604881316331      2.21635672851093
  H   1.12502060713410     -0.90394329163387     -1.02868751145076
  H   1.76506259852439     -0.89675145760762      0.61998317357305
  C   -1.18843694143943      0.59967754883295     -0.47550473499946
  H   -0.80134489152434      1.61595205156450     -0.56017676112353
  H   -1.21179880033999      0.13909660199723     -1.46745307897468
  H   -2.20371381040079      0.63826451035924     -0.08079329713671
  C   -0.82298389141134     -1.57367743550924      0.61187584721615
  N   -1.24117327137601     -2.66872867317543      0.69981208510556
  C   1.74724361463783      0.97011734539770     -0.33684839673275
  N   2.21612085605754      2.02411098012804     -0.55239432885120
