13
Coordinates from ORCA-job run
  C   -0.30162888482578     -0.07639086965715      0.32348789283008
  C   1.02195035787159      0.34425913575323     -0.33666659076383
  Br  -0.19845221636792      0.31880869611939      2.24269602187774
  H   0.93886381353192      0.16802892239030     -1.41505345258044
  H   1.16447015012164      1.41724782400174     -0.17961310157092
  C   -1.47146978880427      0.69616873183334     -0.27882107196184
  H   -2.40606094163951      0.41326126958129      0.20531347754887
  H   -1.54583843767689      0.47211200754171     -1.34667729362079
  H   -1.31554914450390      1.76805673625339     -0.14378463355424
  C   -0.50477552984374     -1.51497903868774      0.17460363824658
  N   -0.68427351880833     -2.66427638284269      0.00471408959692
  C   2.18175445222830     -0.37959644143303      0.17557298732994
  N   3.12000968871690     -0.96070059085377      0.57422803662193
