13
Coordinates from ORCA-job run
  C   -0.31976996730260     -0.01387792865927      0.54414958238084
  C   1.15305092706106      0.36143939163726      0.29206406857686
  Br  -0.83007779332885      0.81869284465333      2.24960819891672
  H   1.77521439341878      0.00532871560545      1.11692310539433
  H   1.23563534596520      1.45134915928179      0.25489930765259
  C   -1.24378098753446      0.49478467682346     -0.55599444700192
  H   -0.97356759728516      0.02710988343278     -1.50616601101541
  H   -1.14617376114507      1.57846155365407     -0.64648692727576
  H   -2.28094161241967      0.25203196242284     -0.32448018327763
  C   -0.44709712137409     -1.45978673017626      0.70801434292371
  N   -0.54498416656065     -2.62635271402885      0.81376687046782
  C   1.62994675854558     -0.21135711123528     -0.96592257121859
  N   1.99354558195993     -0.67682370341133     -1.98037533652355
