18

C	0.0	0.0	0.0
C	-0.622459	-0.067681	-1.400399
Br	1.951617	0.0	0.0
H	-1.719644	-0.014152	-1.266765
C	-0.433309	1.267383	0.737418
H	-1.524293	1.328764	0.710988
H	-0.114724	1.169182	1.77888
H	0.015523	2.16246	0.312019
N	-0.451601	-1.227032	0.620819
H	-1.476277	-1.194417	0.642717
H	-0.114884	-1.256575	1.576534
N	-0.322847	-1.36859	-2.080581
O	0.807981	-1.494787	-2.544639
O	-1.215442	-2.20584	-2.108535
N	-0.260449	0.997053	-2.389476
O	-0.695182	0.807017	-3.523232
O	0.38607	1.974906	-2.027545
Br	-3.805876	0.0	0.0
