18

C	0.0	0.0	0.0
C	-0.424822	-0.002777	-1.541922
Br	1.954311	0.0	0.0
H	-1.508982	-0.226788	-1.675736
C	-0.321204	1.335704	0.831014
H	-1.373024	1.566408	0.912768
H	-0.001371	1.130864	1.854546
H	0.146543	2.213956	0.395178
N	-0.22427	-1.317103	0.713133
H	-1.218341	-1.432445	0.875068
H	0.187622	-1.217649	1.636972
N	-0.044065	-1.077031	-2.455531
O	-0.118106	-0.822178	-3.642927
O	0.023334	-2.175701	-1.952788
N	-0.328742	1.41688	-1.950919
O	0.769072	1.856732	-2.197881
O	-1.353187	2.04854	-1.882989
Br	-2.660103	0.0	0.0
