13
Coordinates from ORCA-job run
  C   0.80144303364945      0.49567009962690      0.31531708861965
  C   -0.67316312244457      0.20336395400834      0.48830817553727
  F   1.28358061120548      0.97473760320740      1.55724908767473
  H   -0.77308037876169     -0.59559080102539      1.23223567083729
  H   0.96485587145214      1.31483296950116     -0.39081854325690
  H   -1.13739208729703      1.09343891681403      0.92107745899501
  N   1.52126323374215     -0.64264544815565     -0.12757061612283
  H   1.42887736728773     -1.39853256057517      0.54014108417389
  H   2.50318467823726     -0.42951075893425     -0.24397633583921
  C   -1.35074321317457     -0.18352153281321     -0.82075202399590
  H   -1.24874200324148      0.61412344448917     -1.56153408216834
  H   -2.41748693008706     -0.36247750204571     -0.67025205355249
  H   -0.90159706056780     -1.08388838409762     -1.23942491090218
