13
Coordinates from ORCA-job run
  C   0.81856673712570      0.53163759256103      0.46957354406352
  C   -0.66085112973559      0.20223253280835      0.52697700387478
  F   1.16259320288799      1.04686646149894      1.72998012783857
  H   -1.18580067457545      1.07339496348069      0.92667780074997
  H   1.00960681928902      1.34800093142453     -0.23485116981570
  H   -0.79064498159804     -0.60510970985469      1.25694575116741
  N   1.64539191972552     -0.57790786076742      0.16097575391972
  H   2.18557860693939     -0.48905261811692     -0.68159313719638
  H   1.19282430361212     -1.47493917276360      0.22675611431987
  C   -1.23219669984089     -0.19021182280118     -0.83049090214175
  H   -2.30200006350072     -0.39625828957426     -0.76099024148232
  H   -0.74702574477517     -1.08320458923906     -1.22945761741299
  H   -1.09704229555389      0.61455158134359     -1.55850302788468
