15
Coordinates from ORCA-job run
  C   0.66590743006537     -0.27250828680716      0.51498173755911
  C   -0.41946389588992      0.29504967179239     -0.42354133511985
  Cl  0.22346775928618     -0.13431001109690      2.20333665244012
  H   -0.01084479130944      0.19867847844733     -1.43582257675953
  N   1.96135041781663      0.54593957056355      0.22611657376358
  O   2.39173432422599      1.28471761956391      1.09029413013672
  O   2.39320172150488      0.37047442799913     -0.90540645688102
  C   0.95791146147321     -1.65890667145362      0.17316521870596
  N   1.15218202966320     -2.78345717098419     -0.10962940777379
  C   -0.59868345771566      1.72030288589068     -0.14357789284897
  N   -0.77060016805569      2.86197403511092      0.07192038813357
  C   -1.74070761491003     -0.46861695033655     -0.32582423060434
  H   -2.17225250379203     -0.37940442175473      0.67070365814461
  H   -1.58511497205809     -1.52360027755305     -0.55899290376081
  H   -2.44708774030461     -0.05633289938170     -1.04772355513537
