15
Coordinates from ORCA-job run
  C   0.75805729513568     -0.64568709325760      0.04454350720081
  C   -0.73524273622154     -0.33920021208482     -0.16273845645292
  Cl  1.08553643849727     -2.36630639900103     -0.16469740031396
  H   -1.27222379263337     -1.00277784299622      0.52331030105193
  N   1.06855970509906     -0.27492959954131      1.50930424824035
  O   1.90526072351068      0.59624787777816      1.69967868245064
  O   0.40322791195037     -0.86686847400698      2.34475800855387
  C   1.60656191219441      0.14156818563640     -0.83741704080699
  N   2.24324008259010      0.77726568677934     -1.59439330501796
  C   -1.10410497189259     -0.68130991459764     -1.53515243847193
  N   -1.42353000704318     -0.92167317335588     -2.63939025727472
  C   -1.06381972284910      1.12495050530395      0.14648374100648
  H   -0.48192314578955      1.79960275750749     -0.48416141269584
  H   -2.12263662878402      1.30319050056037     -0.04560019636174
  H   -0.86796306376423      1.35292719527575      1.19547201889197
