15
Coordinates from ORCA-job run
  C   0.65015328970182     -0.22240352242380      0.50681163191404
  C   -0.43598333211278      0.28159408449280     -0.45807356170884
  Cl  0.23751011854844      0.10222436277067      2.18267596256687
  H   -0.05631136971626      0.10105558902202     -1.46809523269339
  N   2.00992138576027      0.48280275843968      0.16513363699912
  O   2.81685453159522      0.59981665471599      1.06933998387649
  O   2.14623605457631      0.78595223291895     -1.01241134133957
  C   0.90088069057052     -1.64605863674811      0.30997893025964
  N   1.08317315396716     -2.78750382220109      0.09422643474954
  C   -0.57871854210647      1.72962275182539     -0.28831685463763
  N   -0.70589565016941      2.88474106096572     -0.13268104706988
  C   -1.76838503960877     -0.44461176420619     -0.26837032188978
  H   -2.48067611815216     -0.08319157882524     -1.01141639779352
  H   -2.18096774484640     -0.26418162620787      0.72364343244756
  H   -1.63679142800750     -1.51885854453893     -0.41244525568065
