15
Coordinates from ORCA-job run
  C   0.69518346825218     -0.26180581077092      0.47798490642420
  C   -0.44348529711716      0.28814564999139     -0.40618906065739
  Cl  0.36633569745271     -0.05885202267948      2.18619219724054
  H   -0.10224913759504      0.15684231886415     -1.43929645996348
  N   1.97794400908314      0.52651955194240      0.07618209112325
  O   2.47353067062906      1.28914085408417      0.88301385532223
  O   2.33372147330233      0.30271682562951     -1.07333214371515
  C   0.94754536112826     -1.66413148197530      0.17052470282608
  N   1.10821592450830     -2.80321586283651     -0.07158761109765
  C   -0.59115246913562      1.72306808165939     -0.15859326976011
  N   -0.73452850226631      2.87311798145671      0.03197497657437
  C   -1.76239087353474     -0.45764060764501     -0.19934441488174
  H   -1.63202205129108     -1.52110688368692     -0.40823957606452
  H   -2.12737809579988     -0.33259089313613      0.81968905909106
  H   -2.51027017761614     -0.06020770089745     -0.88697925246169
