15
Coordinates from ORCA-job run
  C   0.72307285862163     -0.67719139861752      0.17894506130518
  C   -0.61721877633821     -0.24429485420406     -0.46465444248312
  Cl  0.46470908486299     -2.05537582562156      1.24074365540715
  H   -1.03350807338380     -1.16032819955547     -0.89923770736079
  N   1.24340374095333      0.53063963066345      0.99445408302136
  O   1.78567822783809      1.39000616922106      0.31191484037822
  O   1.00444690505028      0.55982630536633      2.18875752468740
  C   1.72726357900593     -1.00906376535405     -0.82176745965656
  N   2.50857915405198     -1.31961075268286     -1.64379286118239
  C   -0.38224693497605      0.69857614871552     -1.55992004484800
  N   -0.25757168496678      1.46556498134512     -2.44073883893690
  C   -1.60346588770929      0.34438805131437      0.54851451059088
  H   -1.26152543023567      1.31553075444749      0.90832535710333
  H   -1.73398840852022     -0.32502507329831      1.39845788538850
  H   -2.56862835425421      0.48435782826048      0.05999843658574
