13

C	-0.44538	0.020897	-1.452397
C	0.0	0.0	0.0
Cl	0.01747	-1.452776	-2.294535
H	1.094556	0.0	0.0
H	-0.322099	0.932485	0.470428
C	-1.880053	0.244225	-1.626815
N	-3.037577	0.411376	-1.754855
N	0.241769	1.259504	-2.112073
O	0.919614	1.107607	-3.108835
O	-0.028032	2.313284	-1.550959
C	-0.551418	-1.13434	0.707593
N	-0.956872	-2.060184	1.309467
H	2.611866	0.0	0.0
