13

C	-0.477306	-0.07918	-1.432557
C	0.0	0.0	0.0
Cl	0.155325	-1.51121	-2.249727
H	1.091175	0.0	0.0
H	-0.331819	0.944641	0.43864
C	-1.933389	-0.061652	-1.572809
N	-3.105912	-0.021886	-1.656697
N	-0.014282	1.192394	-2.196362
O	0.026553	1.123429	-3.417645
O	0.186386	2.187843	-1.504771
C	-0.522896	-1.116026	0.761157
N	-0.903167	-2.02309	1.405684
H	2.617546	0.0	0.0
