13

C	-0.421107	-0.047517	-1.439902
C	0.0	0.0	0.0
Cl	-2.180618	-0.383981	-1.680357
H	1.094668	0.0	0.0
H	-0.315599	-0.922984	0.49089
C	-0.09693	1.168711	-2.174511
N	0.145298	2.162675	-2.75266
N	0.308187	-1.23835	-2.097288
O	0.240948	-2.29363	-1.488695
O	0.8616	-1.037307	-3.168126
C	-0.538283	1.157537	0.676899
N	-0.943602	2.102453	1.247915
H	2.586392	0.0	0.0
