13

C	-0.444538	0.092623	-1.450099
C	0.0	0.0	0.0
Cl	-0.000648	-1.34545	-2.358981
H	1.093729	0.0	0.0
H	-0.318872	0.910009	0.514599
C	-1.874809	0.345013	-1.614156
N	-3.025704	0.552733	-1.739634
N	0.261673	1.349722	-2.052941
O	0.932099	1.232982	-3.060053
O	0.014119	2.379821	-1.440234
C	-0.55473	-1.164514	0.653678
N	-0.967687	-2.113327	1.212867
H	2.612266	0.0	0.0
