13

C	-0.527238	-0.069828	-1.410578
C	0.0	0.0	0.0
Cl	0.233024	-1.444884	-2.264324
H	1.09136	0.0	0.0
H	-0.287055	-0.929813	0.503185
C	-1.978192	-0.218357	-1.511197
N	-3.143829	-0.37578	-1.518797
N	-0.162073	1.202837	-2.199112
O	-0.693133	1.313752	-3.30027
O	0.640539	1.965498	-1.683574
C	-0.557584	1.124448	0.725825
N	-0.994353	2.022398	1.346263
H	2.608197	0.0	0.0
