13

C	-0.434231	0.041229	-1.458309
C	0.0	0.0	0.0
Cl	-0.09991	-1.51425	-2.220722
H	1.093828	0.0	0.0
H	-0.319945	-0.954679	0.423914
C	-1.839465	0.380517	-1.667449
N	-2.977602	0.628608	-1.831659
N	0.37505	1.164467	-2.184388
O	0.214724	2.265068	-1.675795
O	1.033349	0.888676	-3.16904
C	-0.537461	1.080174	0.803439
N	-0.973058	1.91893	1.503184
H	2.615324	0.0	0.0
