13

C	-0.450483	-0.04198	-1.442225
C	0.0	0.0	0.0
Cl	0.070798	1.39038	-2.3241
H	1.092791	0.0	0.0
H	-0.309906	-0.929149	0.487791
C	0.042495	-1.241738	-2.11991
N	0.391846	-2.20762	-2.691611
N	-1.999024	-0.13366	-1.479487
O	-2.646373	0.873519	-1.720719
O	-2.444412	-1.23512	-1.171447
C	-0.543632	1.141594	0.70464
N	-0.94024	2.069147	1.309692
H	2.581429	0.0	0.0
