16
Coordinates from ORCA-job run
  C   -0.73257163469065     -0.01031988302604      0.29548245013641
  C   0.80154176612320      0.10779979035968      0.16547116994805
  Br  -1.23984645825498     -1.89220986525907      0.56681512109627
  H   1.03147886951311      1.16763613267336      0.02633451446102
  C   -1.51249301530920      0.53322139379602     -0.89825252073056
  H   -1.21182990355698      1.56602170610694     -1.09200957103684
  H   -2.57874400611629      0.50804367368482     -0.67205045431556
  H   -1.32488985520763     -0.06057048692770     -1.79113909851265
  C   -1.10570206529045      0.71952648370219      1.50503074996533
  N   -1.43778778786984      1.36604713487027      2.42901497020682
  N   1.23039247410582     -0.52657379779868     -1.16674966738179
  O   1.10848483543802      0.17289191722271     -2.17005488213671
  O   1.66558040033524     -1.67258836255872     -1.12801191552062
  N   1.47490131862877     -0.40606910477942      1.29094104045801
  H   2.45613071653570     -0.16301690698579      1.28442771260567
  H   1.37535434561615     -1.41083982508058      1.35675038075716
