16
Coordinates from ORCA-job run
  C   -0.68831540064521      0.16212439661728      0.47936800642969
  C   0.82316699741221     -0.12136853131805      0.35621847623329
  Br  -1.25645744991086     -0.77806596863259      2.12599516105490
  H   1.30893906561801      0.16681455145247      1.29434460661247
  C   -1.55690845472478     -0.32723427179334     -0.67299520449109
  H   -1.40339247702658     -1.39313914529902     -0.83266488530858
  H   -1.28419801252975      0.20623886338549     -1.58181275091023
  H   -2.60542754787833     -0.14242495501680     -0.43710791765311
  C   -0.88184796572695      1.58746717691421      0.72598168859442
  N   -1.02951306203959      2.74181713812488      0.89389946951259
  N   1.45208247170915      0.82272199477344     -0.65440011761449
  O   2.48033260358429      1.38340741058280     -0.28031227538241
  O   0.92809966418217      0.93153003354108     -1.75655256801896
  N   1.07316479796913     -1.45675367306734     -0.10543462584904
  H   2.06319267154535     -1.66444877136358     -0.03579423619856
  H   0.57608209846174     -2.11668624890092      0.48126717298912
