16
Coordinates from ORCA-job run
  C   -0.68419016039454      0.31275094536552      0.31938770152178
  C   0.70781391421656     -0.33685125004007      0.20747773208476
  Br  -0.87336510456342      1.15259645889304      2.07957105975963
  H   0.77667115791189     -1.14870946172069      0.93295189503514
  C   -1.76190270558996     -0.75996972620532      0.17027361938384
  H   -1.64848638798625     -1.50521091341081      0.95998140584302
  H   -2.75079836818582     -0.30844376544662      0.25216914120326
  H   -1.65441096981785     -1.23951279178646     -0.80295228726183
  C   -0.86459609960598      1.34395215389296     -0.69870381364588
  N   -1.05711597623748      2.11736299729531     -1.56302546475011
  N   1.78716713900290      0.64846052294300      0.63992601271379
  O   1.96356445697781      1.61304275481875     -0.10017433607979
  O   2.41611162909451      0.38394151262250      1.66023754175409
  N   0.90738710634442     -0.81086955942007     -1.11842451168134
  H   1.70924453237818     -1.42551783051282     -1.17548352026053
  H   1.02790583645503     -0.03702204728823     -1.76321217561982
