16
Coordinates from ORCA-job run
  C   -0.62411340180169      0.31347115243814      0.34499350404874
  C   0.80829112206595     -0.26119023132610      0.21204040718275
  Br  -0.82350762321868      1.17222756694106      2.09558765562026
  H   0.93475526083157     -1.03976370125406      0.96545326877855
  C   -1.64175380630806     -0.82293382920289      0.24853622564981
  H   -1.44997216372118     -1.56023345164160      1.03070526637036
  H   -1.57499328783029     -1.29910256811155     -0.73219363683924
  H   -2.65189668150908     -0.43321584460474      0.37383389769751
  C   -0.89787138866168      1.30279368181188     -0.69275197163069
  N   -1.16854469322196      2.02283180809463     -1.58183681522831
  N   1.82322911830206      0.79665821102566      0.55833459891420
  O   1.86712953516489      1.75855981932933     -0.20297601957932
  O   2.53352926982775      0.60238620145085      1.53823806354661
  N   1.15620474452488     -0.75428573691357     -1.08043620638476
  H   0.90832579506568     -0.11478203425837     -1.82483070881871
  H   0.80218820048985     -1.68242104377869     -1.25469752932776
