14

C	-0.533653	-0.013641	-1.43669
C	0.0	0.0	0.0
F	-0.148565	-1.198229	-2.035493
H	1.090053	0.0	0.0
H	-1.628456	0.003993	-1.413298
C	-0.062802	1.117885	-2.247285
N	0.297207	2.002725	-2.929138
N	-0.469248	-1.095401	0.78752
H	-1.38431	-1.42058	0.50725
H	0.207856	-1.843961	0.747512
N	-0.537672	1.27319	0.599261
O	-1.767894	1.316591	0.714996
O	0.236124	2.167938	0.913951
Cl	3.315783	0.0	0.0
