14

C	-0.539694	-0.008245	-1.411127
C	0.0	0.0	0.0
F	-1.93354	0.116979	-1.367158
H	1.092666	0.0	0.0
H	-0.14942	0.837683	-1.976158
C	-0.224027	-1.270206	-2.087263
N	-0.012751	-2.258271	-2.683019
N	-0.490337	-1.086705	0.762071
H	-1.446474	-0.939643	1.053378
H	0.092016	-1.232154	1.573537
N	-0.38226	1.371438	0.577491
O	-0.167575	2.355731	-0.12268
O	-0.854549	1.400501	1.711294
Cl	3.237867	0.0	0.0
