13
Coordinates from ORCA-job run
  C   -0.37372554892613     -0.75353653240794     -0.49793144453033
  C   0.68959155953961      0.33305732601167     -0.33465361059717
  Br  0.57933977171678     -2.42499887937026     -0.86560632545921
  H   1.31825625011690      0.42303551098603     -1.22680905106142
  H   -0.94732003613323     -0.54513874054076     -1.40005697862669
  N   -1.19100627817745     -0.80785518116099      0.68007564663178
  H   -1.13189791690868     -1.69017576698913      1.16610661948138
  H   -2.15497705635983     -0.59777955320948      0.46348308535059
  C   1.51726154956896      0.11741992925260      0.84432297711792
  N   2.19935024233914     -0.09054541311423      1.77668799919976
  N   -0.00850683118534      1.68312840972195     -0.21089534431212
  O   -1.12259205855097      1.77080436942931     -0.71489385776067
  O   0.62522635296023      2.58358452139124      0.31917028456618
