13
Coordinates from ORCA-job run
  C   -0.36487738297545     -0.76831808934146     -0.49333437269073
  C   0.68000636199469      0.33729444123180     -0.34020458024392
  Br  0.60112062210551     -2.42061676532534     -0.84753864711542
  H   1.28952358960275      0.44669272843540     -1.24374378437919
  H   -0.94751944711297     -0.56795506529944     -1.39337051892097
  N   -1.15886136521222     -0.84476246098477      0.70812718298729
  H   -2.08766838036458     -0.48549298102991      0.53376755109096
  H   -1.22271767380742     -1.78426251571372      1.07097128095907
  C   1.54313265651779      0.13321041628301      0.81600212999382
  N   2.26802154200535     -0.05737123754363      1.71905108388725
  N   -0.03463350074002      1.67584141125324     -0.18999672043842
  O   0.63819287914000      2.60873634481350      0.22250739115318
  O   -1.20271990115342      1.72400377322131     -0.56223799628291
