13
Coordinates from ORCA-job run
  C   -0.39729760454253     -0.76734143220922     -0.44614747300444
  C   0.69162206820135      0.30101863281465     -0.35119882911749
  Br  0.56463642795844     -2.51578477598534     -0.67986871141611
  H   1.34900469339850      0.25032913053205     -1.22121617234798
  H   -0.93344160886683     -0.63641236762824     -1.38399939825809
  N   -1.27296943092420     -0.67801883470760      0.64685736797579
  H   -2.10358999391837     -1.24151318196682      0.53105550220925
  H   -0.83181398490830     -0.88741916998917      1.53421074625133
  C   1.45062497059454      0.20301304189061      0.88805256942203
  N   2.04345129281727      0.08208894548667      1.89445749902404
  N   -0.01026790198494      1.64825065852700     -0.43724280826713
  O   -0.57852905767799      1.84848720548259     -1.50431529478953
  O   0.03057012985308      2.39430214775282      0.52935500231831
