13
Coordinates from ORCA-job run
  C   -0.17585979048867     -0.92336322078628     -0.07507771924405
  C   0.51345773238112      0.42163579905172     -0.38056991535174
  Br  0.37702530945197     -1.64542871126471      1.63594823147022
  H   0.25214477958282      0.70303541517919     -1.40486664758482
  H   0.20391456208212     -1.63432665787743     -0.81859504039080
  N   -1.60541213328230     -0.72718806022492     -0.08569150137076
  H   -2.07125610676780     -1.38979845381383      0.51756141570207
  H   -1.97290543318655     -0.81874580684459     -1.02525452134529
  C   1.96181661163566      0.36806805567564     -0.24209506991992
  N   3.13198327201092      0.30167963408522     -0.17209007846595
  N   -0.05913705328823      1.52133901215115      0.47781785449445
  O   -0.91081742301904      2.22174366257544     -0.05471465944833
  O   0.35504567288796      1.60134933209340      1.62762765145493
