14

C	0.0	0.0	0.0
C	-0.693282	0.054467	-1.325984
Br	2.065874	0.0	0.0
H	-0.365059	0.936562	-1.888014
H	-1.804222	0.148551	-0.89496
C	-0.253901	1.239673	0.751715
N	-0.416009	2.234426	1.354873
N	-0.400778	-1.132183	0.727559
H	0.249892	-1.402602	1.446461
H	-0.599604	-1.875682	0.070622
N	-0.562261	-1.216272	-2.026531
H	-1.43853	-1.425014	-2.486093
H	0.177529	-1.191164	-2.716926
F	-2.93136	0.0	0.0
