14

C	0.0	0.0	0.0
C	-0.46014	0.030088	-1.462793
Br	1.953768	0.0	0.0
H	0.027433	0.866981	-1.971452
H	-1.541074	0.189431	-1.361701
C	-0.332641	1.29966	0.626543
N	-0.543859	2.340578	1.130703
N	-0.601859	-1.12059	0.648319
H	-0.391807	-1.086283	1.640379
H	-1.641485	-0.856951	0.500908
N	-0.096742	-1.234488	-2.118987
H	-0.747038	-1.364289	-2.887645
H	-0.314617	-1.960075	-1.440826
F	-2.817438	0.0	0.0
