14

C	0.0	0.0	0.0
C	-0.227443	0.162235	-1.571849
Br	1.958908	0.0	0.0
H	0.466723	-0.548459	-2.031939
H	0.145598	1.165044	-1.819407
C	-0.397833	1.229478	0.697342
N	-0.620184	2.260409	1.215001
N	-0.611782	-1.125071	0.617865
H	-0.449865	-1.930174	0.018974
H	-1.636398	-0.864976	0.545106
N	-1.54239	-0.04681	-2.114176
H	-2.250031	0.149339	-1.370944
H	-1.655541	-1.033879	-2.316903
F	-2.938962	0.0	0.0
