16
Coordinates from ORCA-job run
  C   -0.59018154327376     -0.57514528861066      0.01944509555528
  C   0.80646420587683      0.03115072618695     -0.18212453808986
  F   -0.28829068924919     -1.76000014197294      0.75890512907086
  H   1.38854115262274     -0.60549728622220     -0.84259878510425
  N   -1.47346649479489      0.28197005413808      0.69106570233903
  H   -2.32163259646501     -0.21283744792862      0.93726527570438
  H   -1.04821458330366      0.67291347339713      1.52067153947767
  N   -1.09950829084159     -0.93084585199763     -1.25384528212916
  H   -2.09869602751117     -0.80675049159025     -1.31686813434123
  H   -0.82437950817249     -1.86465016927460     -1.52282396041787
  N   1.60219997155764      0.17434052406633      1.07785242522848
  O   1.01827245053009      0.50147557264218      2.10616875622322
  O   2.80777858621613     -0.03036002392661      0.96049378618114
  N   0.72808095347870      1.38381536893171     -0.82637310619482
  O   0.52273343568548      2.33963957097810     -0.08679416833504
  O   0.87029897764416      1.40178141118302     -2.04243973516784
