16
Coordinates from ORCA-job run
  C   -0.66895015759713     -0.34136301667430      0.16987158268076
  C   0.63774972317291      0.29314141442956     -0.34622759735845
  F   -0.52694801898055     -0.52922065764951      1.54329545829119
  H   0.60330357132653      0.38001213074929     -1.43125372502618
  N   -1.71108585482866      0.62450388636748     -0.01057037211411
  H   -2.31706025794534      0.38250730155430     -0.78021152789486
  H   -2.22782469047997      0.75608075100453      0.84646455496295
  N   -0.92314604019987     -1.54147812999772     -0.53535331249182
  H   -1.81071985730332     -1.92676905243969     -0.23524277203955
  H   -0.18650809034665     -2.21510194073784     -0.36702965739242
  N   1.89932489488279     -0.45692740641709     -0.00803623276637
  O   2.93966127321152      0.17686736971163     -0.12739387146552
  O   1.80050911564400     -1.64044097344252      0.29963952321776
  N   0.79661758077699      1.67736745394884      0.19607719122694
  O   0.67028733017963      2.59109435056072     -0.60989211513425
  O   1.02578947848712      1.77072651903231      1.39586287330392
