16
Coordinates from ORCA-job run
  C   -0.56115195353345     -0.61885894367471      0.19506875738098
  C   0.84599842250542     -0.16153629378090     -0.21735475363567
  F   -0.39251897444455     -1.86591542896936      0.76204908567298
  H   1.35883813265933     -0.98621961409226     -0.70528459101675
  N   -1.08941487501231      0.22994032172345      1.20663359592015
  H   -1.12655725516647      1.19019583069643      0.89011919990441
  H   -2.01248556911273     -0.08282827018629      1.48091939202929
  N   -1.29260469019526     -0.85529597209104     -1.03073202334124
  H   -1.87922662856237     -1.67185213317636     -0.91361622194226
  H   -1.86024388779825     -0.05330550667528     -1.26822509123956
  N   1.65799982169498      0.25768676201514      0.97239998791269
  O   1.69864245566977      1.45349146745064      1.23498351312655
  O   2.17775476728930     -0.66056723086806      1.59132799979411
  N   0.81985239005823      0.98573279827977     -1.16939456614402
  O   -0.14064451409185      1.75161443256476     -1.12435646393784
  O   1.79476235804019      1.08671778078407     -1.90553782048382
