16
Coordinates from ORCA-job run
  C   -0.62629658889236     -0.45211013282718      0.31362506142761
  C   0.71247596643666      0.30429473334602      0.37640551002926
  F   -0.54499315650252     -1.42041286080908      1.31526974688995
  H   0.92681957974263      0.62287710894245      1.39469290782790
  N   -1.65285737210475      0.49144420764692      0.60382473387554
  H   -2.56238726468109      0.11404402495443      0.37229444277968
  H   -1.64006595955025      0.76255399972876      1.58048125445661
  N   -0.75716494744230     -1.16017696440835     -0.90919326526775
  H   -0.84977482321406     -0.52433251938655     -1.68925783052641
  H   -1.53233982478138     -1.80840914995223     -0.86265432446725
  N   0.71278723222389      1.52499828575624     -0.48159342863363
  O   0.20199964672399      1.45252829574796     -1.59278827694587
  O   1.26040894112596      2.51125213539707      0.00679288207065
  N   1.84820520966536     -0.58449201166952     -0.04903742991079
  O   2.26159640385854     -0.47809320883940     -1.19491184987593
  O   2.24058695739168     -1.35496594362755      0.81704986627046
