16
Coordinates from ORCA-job run
  C   -0.68310231137601     -0.30437875529550     -0.21630396584248
  C   0.61779605651531      0.18501232418239      0.44423546116843
  F   -0.42216770873975     -0.34091092632596     -1.60565266229774
  H   0.62028373983802     -0.07691954802677      1.50002783451434
  N   -1.00493867537404     -1.58831758938881      0.28682213225324
  H   -0.21262973437979     -2.21206231017151      0.19775526694709
  H   -1.78071969006104     -1.96948993269595     -0.24283612777132
  N   -1.71881839634570      0.61579868339017      0.08406152129766
  H   -2.61290066888064      0.15418516562537      0.16603434211991
  H   -1.74968087118125      1.36224450689369     -0.59602537328055
  N   0.80878213157412      1.66097478961459      0.35115637506769
  O   0.41941083532480      2.22923487425141     -0.66247347229769
  O   1.38778415251376      2.17329164378816      1.30491655352400
  N   1.82317585927153     -0.45877373517107     -0.18807527508738
  O   2.61650622211697      0.24607199406486     -0.79260145245537
  O   1.89021905918372     -1.67396118473500     -0.03004115785986
