16
Coordinates from ORCA-job run
  C   -0.67719941150726     -0.35944129130510      0.13481266680597
  C   0.61172521724746      0.30095173223543     -0.38539856274720
  F   -0.40468151420061     -0.74228130197432      1.46890155184420
  H   0.61060067596677      0.31432137699039     -1.47314163854501
  N   -1.72816885929310      0.59018110203954      0.08165378859962
  H   -1.76557757015742      1.13887318363867      0.92909155532726
  H   -2.61592439420790      0.15083264166195     -0.11331130168621
  N   -0.98474147935252     -1.47947543934446     -0.67529197988681
  H   -1.74752909620721     -1.99678382784267     -0.25303161313521
  H   -0.18161579228869     -2.09092863680927     -0.75278901804778
  N   1.83044825533818     -0.46318518015505      0.05933719793372
  O   1.91344283577042     -1.59735398803330     -0.40207614819425
  O   2.61804912910896      0.07756403123712      0.82019912430607
  N   0.78207548320712      1.70829813945377      0.07701419571000
  O   1.34550492218481      2.45465122352996     -0.71848601187708
  O   0.39359159839099      1.99477623467732      1.20351619359271
