16
Coordinates from ORCA-job run
  C   -0.67969471691452     -0.36375884958917      0.11066409743978
  C   0.62391612901130      0.30283223256087     -0.36305345346679
  F   -0.45784203150699     -0.73355369781540      1.45779291231420
  H   0.66599611650539      0.30821660514282     -1.45005532821221
  N   -1.73496746349257      0.57656626057802      0.00777235223281
  H   -1.81101129112778      1.13208979399137      0.84806455014755
  H   -2.61056025904764      0.12910173451085     -0.22055424794974
  N   -0.94581371628740     -1.49284997307511     -0.70151519784412
  H   -0.13482353906051     -2.09721386621923     -0.74440985252557
  H   -1.71924672139003     -2.01428459118867     -0.30451254466932
  N   1.82996941114300     -0.44795714145848      0.13560497794290
  O   2.58104151011781      0.10433023783121      0.92459837724995
  O   1.94142103645194     -1.58432160446406     -0.31435908048842
  N   0.76550727257288      1.71499315954579      0.09460579919119
  O   1.35650550221198      2.45872978522155     -0.68313985051581
  O   0.32860276081305      2.00807991442766      1.20149648915357
