16
Coordinates from ORCA-job run
  C   -0.59868486753671     -0.43824763736239      0.43043057919510
  C   0.74560184055961      0.30280642082047      0.37554883296954
  F   -0.51498024175019     -1.27304902755507      1.52645076054809
  H   1.00822666771267      0.63711812071955      1.37575770004070
  N   -1.59769717227674      0.54852563893101      0.77953302755895
  H   -2.07439887666197      0.88270028109489     -0.04679937182290
  H   -2.26349046352740      0.13399604257918      1.41938295117015
  N   -0.76334105502385     -1.26742623769968     -0.71307122707966
  H   -0.70940257741956     -0.72441724267944     -1.56502348966310
  H   -1.64822491758702     -1.75729894936529     -0.66683495191151
  N   0.70260352547801      1.50212825496347     -0.50920680405168
  O   -0.09121320355179      1.49879820594824     -1.44776972406721
  O   1.50261670522065      2.39052857741553     -0.23837285486213
  N   1.84480347228173     -0.58775298439236     -0.12373132881909
  O   2.33313671713983     -1.32687344435874      0.71991006223866
  O   2.12644444694271     -0.52353601905935     -1.31420416144387
