16
Coordinates from ORCA-job run
  C   -0.69973429087827     -0.44893131785082      0.12131889117314
  C   0.58511832319696      0.31895767351753     -0.29478164796267
  F   -0.39407982200566     -1.01618301342666      1.36165252195642
  H   0.59480719196590      0.49771554913980     -1.36826540980774
  N   -1.86004757118192      0.34478674307647      0.31909753464675
  H   -1.73811936177079      1.02787188314906      1.05202500864955
  H   -2.18517842597014      0.75865447498937     -0.54230596767778
  N   -0.98592244948157     -1.39753434386417     -0.88441027364154
  H   -0.20522666314396     -2.02138592901566     -1.04178900892711
  H   -1.81034930862560     -1.91802274747478     -0.61095638750891
  N   1.82015009888428     -0.48242157489090      0.02782525023217
  O   1.92076293291997     -1.53098027436337     -0.60016626680510
  O   2.59855754060287     -0.04800629108266      0.86260732232836
  N   0.73637833192118      1.64368586138441      0.37249665067381
  O   0.37138502176657      1.74597113916512      1.53892786472778
  O   1.24949845180018      2.52382216754728     -0.31527608205710
