16
Coordinates from ORCA-job run
  C   -0.69108487799436     -0.33410175513858      0.13023946978994
  C   0.55717387404389      0.43802428416596     -0.33251889399565
  F   -0.51846274126902     -0.55410995296818      1.51633171361847
  H   0.35787621773187      0.93543272449384     -1.27926510212576
  N   -1.84353806249421      0.44564036618120     -0.13340679869512
  H   -1.73574901869426      1.37677290208457      0.24887307361178
  H   -2.64872899595352      0.00724664402153      0.29918416670414
  N   -0.75483502370695     -1.56112620307853     -0.57589947305449
  H   -1.70895114547043     -1.84025073804076     -0.75078407698334
  H   -0.23735837358516     -2.28522201259593     -0.09818704973431
  N   1.74926869212218     -0.43534971099831     -0.53203688997192
  O   2.50446035640955     -0.09013538396739     -1.43633178173079
  O   1.90087189919119     -1.38380700681969      0.22916529895356
  N   0.94314407110118      1.49654308550620      0.66558732576400
  O   2.01116547512382      1.39260546797354      1.24901650925106
  O   0.11474765344422      2.39183728918051      0.80103250859843
