16
Coordinates from ORCA-job run
  C   -0.66941334074578     -0.40351186887176      0.26157754184032
  C   0.74900151541862      0.18490194371616      0.30154888332495
  F   -1.18219083660266     -0.01183234166574      1.53676613448332
  H   1.34158592510826     -0.34012997123784      1.04559121892046
  N   -1.43473234031239      0.07533460483762     -0.81059339097447
  H   -1.38799561377254      1.08290633163133     -0.87639983539450
  H   -2.39774539770139     -0.22178888274057     -0.71595524346288
  N   -0.55654982034328     -1.81512004852646      0.21363853904575
  H   -1.28600130733532     -2.24069366131722     -0.33827536310022
  H   -0.50825087677090     -2.21983501556731      1.13772727428706
  N   0.80358114386263      1.63663578628330      0.66317228428522
  O   1.77102866103837      1.96897738162400      1.34332057628690
  O   -0.07819954159220      2.37960113021382      0.24400448321028
  N   1.44583405039041      0.02008674723043     -1.01713711473900
  O   2.16014237481810     -0.96895234822659     -1.11996433341093
  O   1.22890540454010      0.87342021261688     -1.87002165460226
