16
Coordinates from ORCA-job run
  C   -0.83287047236525      0.02288662934864      0.03938883591500
  C   0.59083020982617      0.48934022091749      0.38915215167131
  F   -1.63465554296231      1.15417286528690      0.19495440239085
  H   0.60157912554466      1.00538140933028      1.34723012814655
  N   -0.93037119626986     -0.34499830457801     -1.32755099796165
  H   -0.39085549637776     -1.17768951269155     -1.51957191887063
  H   -1.89905493542224     -0.45829710896162     -1.59607150926264
  N   -1.18650500610919     -0.98176913622487      0.98552421657877
  H   -2.01334137052294     -1.48144188774482      0.68561196281737
  H   -1.34945566143703     -0.58300968421747      1.90312331764340
  N   1.10125434924170      1.46362005812261     -0.63607414560783
  O   1.84367292840348      1.03832046696370     -1.50987594438859
  O   0.69603413234163      2.60963682604994     -0.49423567673756
  N   1.55395684668856     -0.64667505479256      0.48530701904678
  O   2.37464861346007     -0.56303297902063      1.39666111181654
  O   1.47713347596030     -1.54544480778803     -0.34357295319766
