16
Coordinates from ORCA-job run
  C   -0.76958564011950     -0.30877159658380      0.13419498417663
  C   0.57015929529171      0.37225643585684     -0.26054045970585
  F   -0.77174346842080     -0.31513540753398      1.53188019591140
  H   0.52426429135266      0.74539618644400     -1.28183466976685
  N   -1.82303442534138      0.43983438965944     -0.43434583732097
  H   -2.70182996975716      0.01614245245950     -0.16304289129707
  H   -1.78957062914647      1.40904036289795     -0.14629132989346
  N   -0.92212803356960     -1.66019456744288     -0.27234051306276
  H   -0.98270734683673     -1.74819842379728     -1.27607764068902
  H   -0.21754638500889     -2.26349712927343      0.12534967625235
  N   1.75248706833916     -0.53199453446373     -0.17545856823458
  O   1.78375759581073     -1.35509991394148      0.73325519577975
  O   2.61916478700015     -0.34648733250239     -1.02715827154833
  N   0.85415956946428      1.55646005829713      0.62743063587083
  O   1.82591475236438      1.51477621734431      1.36595349610417
  O   0.04823853857750      2.47447280257979      0.51902599742374
