16
Coordinates from ORCA-job run
  C   -0.62507594010693     -0.53539316544482     -0.03808096483560
  C   0.82439258071897     -0.02860969710893     -0.06127291285792
  F   -0.51637787587999     -1.68661207087495      0.80229723207439
  H   1.45149918205440     -0.73837122204197     -0.59355251334634
  N   -1.53560805785226      0.41405678731963      0.44643711253330
  H   -2.44396377043234     -0.01044543759563      0.58585939575585
  H   -1.21121883476487      0.82809389180944      1.30971210256618
  N   -0.96647605773534     -0.94029922278207     -1.35215678444643
  H   -1.93827088197973     -0.77266094099783     -1.56548822674700
  H   -0.71072523229826     -1.90149743052460     -1.52801108763651
  N   1.43576883570998      0.14463162619818      1.29407846018694
  O   0.73259658382792      0.57314573507135      2.20363806273027
  O   2.62800544120736     -0.14143229109692      1.37034800138714
  N   0.93381480930470      1.28351264301785     -0.78091786293092
  O   0.69058341071497      2.29475275832640     -0.13220888736577
  O   1.25105580751146      1.21612803672487     -1.96168112706760
