16
Coordinates from ORCA-job run
  C   -0.69195321031680     -0.35701166505464      0.00702052766950
  C   0.65471103804352      0.33505271926879     -0.26896835464583
  F   -0.57798005389508     -0.92536717576631      1.29703167737966
  H   0.77806843247903      0.49816243179008     -1.33737313445875
  N   -1.72031854966335      0.61778536780941     -0.03094232724988
  H   -1.85085227012302      1.04468821682160      0.87528679148561
  H   -2.58343387636147      0.23293522697301     -0.38595331341754
  N   -0.91629197549502     -1.34731244341508     -0.97988893350612
  H   -0.11467095844338     -1.96096959902843     -1.05453900591082
  H   -1.72601607504945     -1.89923571383605     -0.72031756968291
  N   1.80687375393168     -0.51381756921862      0.19831527549115
  O   1.93166525090427     -1.57475441224270     -0.40616050822667
  O   2.50642293966320     -0.10478756120308      1.11195575174358
  N   0.78540835333555      1.66056060971912      0.40147343571150
  O   1.44378996896140      2.49419449229230     -0.21421493347958
  O   0.27357723202899      1.79987707509061      1.50627462109711
