16
Coordinates from ORCA-job run
  C   -0.61287408366499     -0.53882441770157      0.17232210912046
  C   0.81981747474967     -0.13887459586740     -0.22149527405241
  F   -0.48587780382874     -1.78598117825256      0.78676928310992
  H   1.30621259407961     -0.94366097775120     -0.76927986441463
  N   -1.13581907819843      0.33573264666770      1.15961777594644
  H   -1.27757981950106      1.26354348861939      0.78485907072786
  H   -1.98787843507462     -0.04125820271199      1.55342544488907
  N   -1.36385580962317     -0.64305412585722     -1.03304038764920
  H   -2.35450952798614     -0.69521421931313     -0.83514330354730
  H   -1.08594330876369     -1.45490855763981     -1.57267189088421
  N   1.65615918583584      0.12325374093647      1.00043759300337
  O   1.81536591887994      1.28527084190502      1.34671027038702
  O   2.08919823437338     -0.88343379722996      1.54498550952771
  N   0.85146176724050      1.07413550630082     -1.09017180077235
  O   1.66662131146783      1.04043306768100     -2.00969738537023
  O   0.10050138001407      2.00284078021444     -0.81762715002153
