16
Coordinates from ORCA-job run
  C   -0.84133315690395      0.06736753088680      0.15026378944157
  C   0.59514710086999      0.59412475316883      0.28619199125239
  F   -1.65620968713736      1.16609692989524      0.33392310736885
  H   0.65174237791317      1.25605655333144      1.14631260804360
  N   -1.07878314099609     -0.41160430277154     -1.16755783988941
  H   -0.42611307993101     -1.14599445050044     -1.40895682023476
  H   -2.03002705425020     -0.74784753134629     -1.25245419969419
  N   -1.07889856157407     -0.77922874710896      1.29931577066965
  H   -0.94611645844223     -1.75240258540634      1.06066257728210
  H   -2.02312810945251     -0.62988507872503      1.63184135335040
  N   1.01408898234133      1.36919849224615     -0.92818272216295
  O   0.63091503123115      2.53066266948821     -0.95554290380343
  O   1.65856434170307      0.77450965181873     -1.78345512813122
  N   1.58859077310249     -0.49934472172015      0.48647437120195
  O   1.33093934219115     -1.60587940348136      0.01707512765417
  O   2.61162129933504     -0.18482975977523      1.08408891765130
