16
Coordinates from ORCA-job run
  C   -0.68406085358695     -0.36708594171115      0.27669372266440
  C   0.65249477395594      0.38744659858896      0.32890003916471
  F   -0.49921116061909     -1.35487880321201      1.29311757108808
  H   0.73226318448893      0.92352687864494      1.27046306440466
  N   -1.70667500064573      0.53068845733099      0.67130630133103
  H   -1.83933120084753      0.53434662252086      1.67254817148750
  H   -2.57402205873994      0.36429502752572      0.18367867955544
  N   -0.95977027960112     -0.91917284982293     -0.98188864694524
  H   -0.16327759164630     -1.42444367459706     -1.34542306258977
  H   -1.76366313618429     -1.53198251049832     -0.92820476480815
  N   0.74987813394313      1.40522271711686     -0.76898401864252
  O   1.12128253830210      1.00418008968209     -1.86630210429200
  O   0.43813429549926      2.54892824973517     -0.46218228055552
  N   1.85939047411211     -0.49422503000171      0.23935089684355
  O   2.81523458990525     -0.14301895299805      0.92635379136960
  O   1.82233329166429     -1.46382687830441     -0.51142736007574
