16
Coordinates from ORCA-job run
  C   -0.70156965184806     -0.38701365977480      0.19495483897703
  C   0.71296806421527      0.18269066469757      0.37805906210728
  F   -1.34595644673510      0.04577522084079      1.39471650960979
  H   1.20875563226634     -0.32888478811665      1.19832158192780
  N   -1.33691774145277      0.07287563778579     -0.96715035135347
  H   -1.25969341062758      1.07680174617937     -1.05687841641647
  H   -2.31175179560358     -0.20009145209582     -0.96480859104905
  N   -0.60651572167002     -1.80058253372572      0.19470304361911
  H   -1.27742321577144     -2.23092221126681     -0.42372809128833
  H   -0.66464932919939     -2.18255404830630      1.12785441684322
  N   0.75120700947245      1.64318599503684      0.70438280021448
  O   1.63675743968516      1.98074438345091      1.48599973513832
  O   -0.06254979425969      2.38636423479497      0.16501177631469
  N   1.55126178469371     -0.03000534433847     -0.84791717132244
  O   2.26830062066312     -1.02253807234171     -0.83508356521168
  O   1.43877655617156      0.79515422718005     -1.74743757811025
