16
Coordinates from ORCA-job run
  C   -0.65723399724854     -0.58682336861903      0.10979032310817
  C   0.77000530190964     -0.05374535379932     -0.17699019547056
  F   -0.38134649995773     -1.73613173569974      0.87636729145887
  H   1.29724490388659     -0.72074051403385     -0.85583439466525
  N   -1.42938904665806      0.38677241545311      0.75355540059381
  H   -1.01053517398814      0.70009720361031      1.61820804269822
  H   -2.37056855036544      0.04400545726278      0.89101915848494
  N   -1.36566666861442     -1.05316199088231     -1.03133278708938
  H   -0.88173186991448     -1.82134763499198     -1.47647499403955
  H   -1.51482738034563     -0.30380584569271     -1.69321258556971
  N   1.62731252355792      0.07023265084667      1.04209841233301
  O   2.80638304714647     -0.23709432643241      0.88878721633026
  O   1.10931554243038      0.47743124366010      2.07631163610694
  N   0.69510940823350      1.29120547330462     -0.83752183725727
  O   1.03657633730115      2.27578049766591     -0.19837669278915
  O   0.26735212262680      1.26732582834789     -1.98639399423337
