16
Coordinates from ORCA-job run
  C   -0.58366282214798     -0.71267347660281      0.13928422964406
  C   0.78179760888989     -0.08762212050072     -0.22933254002494
  F   -0.25257447387124     -2.02109896103410      0.45271320480705
  H   1.33553544972255     -0.76517342204939     -0.87595862116705
  N   -1.11803981586825     -0.09144661970232      1.29088733064686
  H   -2.06585173063906     -0.41623370662768      1.43554459937413
  H   -1.09923318672940      0.91690033892460      1.22191501783524
  N   -1.49839761526889     -0.81133506724940     -0.95574463303810
  H   -1.82552951007350      0.09691928369932     -1.25209008741814
  H   -1.12428416888127     -1.33880729467767     -1.73443555726735
  N   1.62789758894848      0.14889943816970      0.99049011674588
  O   1.55878962123970      1.25664491228687      1.50966034833812
  O   2.28489090681426     -0.81204203253617      1.36469294189472
  N   0.67448083635303      1.21912338931785     -0.94517243429898
  O   -0.30847078074914      1.92425055264636     -0.72718444953264
  O   1.61365209226078      1.49369478593555     -1.68626946653887
