16
Coordinates from ORCA-job run
  C   -0.67930949675434      0.05767793345442      0.64681938265223
  C   0.73867736381661      0.53786923266384      0.27646667807461
  F   -1.24675641697231      1.04874702718852      1.43907058860292
  H   1.23830899314967      0.76762723210852      1.22471726441238
  C   -1.59412532287794     -0.18220308892624     -0.53746222532357
  H   -1.23080509910688     -1.00077966061728     -1.15990127291160
  H   -1.66096863574945      0.73000292951842     -1.13278965885461
  H   -2.58871091997509     -0.43768100362128     -0.16953814891612
  C   -0.56238850487791     -1.15843501480254      1.47288358769218
  N   -0.45522414044613     -2.13924721691440      2.10962599399545
  C   0.63360402550703      1.78539387270674     -0.48346044654136
  N   0.55721964078816      2.76395395383493     -1.12760173248851
  C   1.55442392108928     -0.50265051522002     -0.49654427587389
  H   1.10921050808026     -0.70907632798836     -1.47053731027833
  H   2.56528464159983     -0.12753318125775     -0.66140834684885
  H   1.62255944272923     -1.43266617212751      0.07065992260705
