16
Coordinates from ORCA-job run
  C   -0.69778534285776      0.04821492467362      0.62706161624586
  C   0.72568870971803      0.54282466362597      0.30076238606101
  F   -1.29694079915896      1.03001408317812      1.40771435725315
  H   1.19610655201665      0.77168808262285      1.26408015944416
  C   -1.57574912952523     -0.19332029692680     -0.58460539985963
  H   -2.57855298434849     -0.45758478360682     -0.24659527715044
  H   -1.18844648984069     -1.00697804422080     -1.19888881493033
  H   -1.63235971804545      0.72050810809690     -1.17834706010857
  C   -0.59558108178923     -1.17158696379363      1.44952138173619
  N   -0.49979939887361     -2.15542215426204      2.08346810233238
  C   0.63124455880177      1.79359306335974     -0.45538195275299
  N   0.56447124086080      2.77541024924337     -1.09566147708789
  C   1.57275578307439     -0.48604617442756     -0.45420245547123
  H   1.15713127083126     -0.69118817417879     -1.44152777633697
  H   1.63345136357243     -1.41846671374389      0.11014256478862
  H   2.58436546556408     -0.10065986964023     -0.58854035416333
