16
Coordinates from ORCA-job run
  C   -0.69211554138353      0.03808393614614      0.63511502022052
  C   0.72044478075276      0.55426033797711      0.29363525973878
  F   -1.29798732904910      1.01070704788881      1.42162960210910
  H   1.19745249691658      0.79013589630388      1.25193019881763
  C   -1.57847354282348     -0.21787947571952     -0.56737065763491
  H   -2.57484986542426     -0.49242099023499     -0.21851388954791
  H   -1.18739788616575     -1.02934717765273     -1.18227139991350
  H   -1.65151101572174      0.69275656601054     -1.16440678887018
  C   -0.56138993299818     -1.17954863671109      1.45692516182272
  N   -0.44094939660686     -2.16024703098953      2.09146654268997
  C   0.59950273250261      1.80290870472508     -0.46201734465899
  N   0.51188135869885      2.78168412782673     -1.10436382084739
  C   1.57366028349437     -0.46194144613057     -0.47154543607723
  H   1.64864099043634     -1.39643779655771      0.08754290943478
  H   2.57998275582090     -0.06483801974955     -0.61092915411105
  H   1.15310911155049     -0.66687604313261     -1.45682620317236
