16
Coordinates from ORCA-job run
  C   -0.74853385053792      0.11659436158381      0.31620930446974
  C   0.78973645692378      0.17398516735458      0.21419066608545
  F   -1.26020018834753      1.23111838372942     -0.33716805018433
  H   1.18538279548089     -0.66616272867094      0.79787437629126
  C   -1.34923876009887     -1.12253119912256     -0.32135800059604
  H   -0.92176290502535     -2.02935684945496      0.11140642052395
  H   -1.16400649942824     -1.10691679960436     -1.39531807149670
  H   -2.42725077086285     -1.12705110397774     -0.15622024208492
  C   -1.14519887028571      0.20476384273561      1.73361841561825
  N   -1.45602004050383      0.23769795675511      2.86572354221933
  C   1.26935692892755      1.40995402121698      0.84011739966052
  N   1.67805116903999      2.39893456138729      1.32257576920998
  C   1.28951212149236      0.08417689351772     -1.23174765049609
  H   1.09669474503920     -0.90366220622879     -1.65112415449338
  H   0.79991526980372      0.83977390582831     -1.84698060653885
  H   2.36556239838282      0.25968179295054     -1.26179911818817
