16
Coordinates from ORCA-job run
  C   -0.62278771580147     -0.20711032650584      0.45926549166130
  C   0.62221123746521      0.53870542527192     -0.06036628009873
  F   -0.54540033314375     -0.16908689643830      1.84939391805275
  H   0.54576779823937      1.55263970107450      0.35117450749601
  C   -1.92982640255012      0.43611528007583      0.04172926645232
  H   -1.93281131533413      1.47950479200301      0.36443729869645
  H   -2.05951091350230      0.39097860489328     -1.04023646052478
  H   -2.75813899256185     -0.08518090320424      0.52344929007797
  C   -0.57233656077488     -1.62196176108623      0.05012382986999
  N   -0.52919266868585     -2.74692336849217     -0.28397658029737
  C   0.56376174389608      0.63185496416188     -1.51910932670012
  N   0.52580358443654      0.68821091126748     -2.69146255409456
  C   1.93107337668475     -0.10611635565523      0.40258112187500
  H   2.04765811362498     -1.10063864231780     -0.03141588819825
  H   2.77903987087563      0.50696580759515      0.09393070189383
  H   1.93468917713182     -0.18895723264324      1.48948166383820
