16
Coordinates from ORCA-job run
  C   -0.74586818034742      0.12565106854834      0.32031596116357
  C   0.79412250382994      0.13402500586825      0.23098653703282
  F   -1.21284480702076      1.29637338451168     -0.26409146263294
  H   1.15537441091292     -0.75069953918065      0.76913260726710
  C   -1.38542803585451     -1.04885336056990     -0.39716551076902
  H   -2.46410485143550     -1.02563233491543     -0.23768054927870
  H   -1.19245324409032     -0.97230019231802     -1.46705287184068
  H   -0.99303826668475     -1.99549505307780     -0.02000426821548
  C   -1.15046818120231      0.13569953596424      1.73849428018842
  N   -1.47102560375682      0.09588967422849      2.86753045775214
  C   1.30991488410901      1.31734630371609      0.92624065889007
  N   1.74375213388294      2.27143931917203      1.45505141000686
  C   1.30285719377739      0.10725156995307     -1.21437991307842
  H   0.84805035248322      0.91489600959203     -1.78880035418619
  H   1.07614500862845     -0.84696638207072     -1.69070651330517
  H   2.38501468276851      0.24237499057831     -1.22687046899437
