16
Coordinates from ORCA-job run
  C   -0.59347329953068     -0.08286298106367      0.53150638852569
  C   0.57421013348439      0.52871911067881     -0.26764011735873
  F   -0.49437354946842      0.43313007756165      1.82097711579634
  H   0.41859992238812      1.61380487087061     -0.22594276547120
  C   -1.95758576606330      0.28108954849198     -0.01967732106015
  H   -2.10346423584376     -0.14393919843127     -1.01345081491190
  H   -2.04226779542293      1.36855968152859     -0.07397129098442
  H   -2.72991269396106     -0.10095987412505      0.64925215771747
  C   -0.43329650660651     -1.54513706715358      0.62188625206734
  N   -0.30944058538636     -2.71163498404044      0.67656672882176
  C   0.48189626075745      0.10925757117166     -1.66615355685064
  N   0.41372997259785     -0.23888254812908     -2.78558349025884
  C   1.94104920398451      0.18330683101455      0.32844511288374
  H   2.72814297419639      0.71111350338188     -0.21203937920341
  H   1.97095116310981      0.48511500085898      1.37545253603926
  H   2.13423480176451     -0.88867954261563      0.26037244424771
