15

C	-0.368025	-0.000655	-1.48115
C	0.0	0.0	0.0
Cl	-2.108243	0.37239	-1.796529
H	1.104373	0.0	0.0
H	0.207105	0.780613	-1.98427
C	-0.067596	-1.285875	-2.110757
N	0.16905	-2.320102	-2.615859
N	-0.568197	-1.181214	0.653113
H	0.032732	-1.972393	0.438985
H	-0.489644	-1.043967	1.654785
C	-0.46466	1.266163	0.694415
H	-0.172336	2.153472	0.127984
H	0.018572	1.329812	1.673083
H	-1.549188	1.264972	0.827201
Br	3.567406	0.0	0.0
