15

C	-0.401717	0.029181	-1.471383
C	0.0	0.0	0.0
Cl	-2.184741	0.278268	-1.687818
H	1.097332	0.0	0.0
H	0.079317	0.873559	-1.969937
C	-0.044295	-1.203803	-2.168906
N	0.216383	-2.172036	-2.781115
N	-0.469951	-1.231435	0.619228
H	-1.254408	-1.052773	1.235645
H	0.285688	-1.637712	1.15943
C	-0.427834	1.267	0.728972
H	0.04901	1.278223	1.712428
H	-1.514257	1.313161	0.858313
H	-0.103291	2.163217	0.191944
Br	3.526241	0.0	0.0
