15

C	-0.480511	0.015248	-1.457774
C	0.0	0.0	0.0
Cl	0.014511	1.484189	-2.356702
H	1.099649	0.0	0.0
H	-0.021082	-0.833117	-1.965789
C	-1.938165	-0.110048	-1.526532
N	-3.111143	-0.172703	-1.552566
N	-0.435435	-1.300569	0.517816
H	-1.145164	-1.189263	1.229773
H	0.359575	-1.776803	0.92355
C	-0.515642	1.175838	0.809431
H	-0.090732	1.124718	1.814245
H	-0.214498	2.126586	0.367501
H	-1.609775	1.155634	0.884768
Br	3.554215	0.0	0.0
