15

C	-0.554899	0.016443	-1.420669
C	0.0	0.0	0.0
Cl	0.070011	-1.356886	-2.395999
H	1.101176	0.0	0.0
H	-1.635922	-0.139207	-1.355017
C	-0.288467	1.260725	-2.136728
N	-0.094159	2.265573	-2.713117
N	-0.536435	-1.209754	0.647119
H	-0.028098	-2.003233	0.267226
H	-0.253247	-1.16272	1.621632
C	-0.495589	1.22499	0.753462
H	-1.590019	1.246931	0.792316
H	-0.123429	2.14527	0.300074
H	-0.112533	1.190774	1.776795
Br	3.600612	0.0	0.0
