15

C	-0.401716	0.0272	-1.471759
C	0.0	0.0	0.0
Cl	-2.180423	0.302419	-1.689833
H	1.097279	0.0	0.0
H	0.091649	0.863021	-1.974027
C	-0.060594	-1.214311	-2.160362
N	0.198198	-2.205327	-2.731989
N	-0.473964	-1.226126	0.625088
H	-1.250503	-1.042945	1.247088
H	0.28137	-1.639945	1.155354
C	-0.424305	1.27146	0.7242
H	-1.509004	1.316681	0.861914
H	-0.106296	2.164826	0.179188
H	0.060525	1.289663	1.702641
Br	3.524616	0.0	0.0
