15

C	-0.461768	-0.027728	-1.461379
C	0.0	0.0	0.0
Cl	-0.005716	1.440594	-2.378997
H	1.095055	0.0	0.0
H	0.034071	-0.86946	-1.944324
C	-1.911272	-0.209169	-1.549622
N	-3.074634	-0.356631	-1.617405
N	-0.418596	-1.293876	0.546506
H	0.303285	-1.630682	1.171807
H	-1.283273	-1.200895	1.06725
C	-0.521328	1.197909	0.776084
H	-0.14647	1.139644	1.80039
H	-0.174007	2.138453	0.346147
H	-1.617948	1.206105	0.803464
Br	3.585506	0.0	0.0
