15

C	-0.500195	-0.010018	-1.45681
C	0.0	0.0	0.0
Cl	0.096974	-1.43838	-2.360954
H	1.095337	0.0	0.0
H	-1.593286	-0.102909	-1.450238
C	-0.168899	1.200054	-2.205567
N	0.073034	2.176669	-2.811361
N	-0.421015	-1.188589	0.730435
H	0.215906	-1.945941	0.519267
H	-1.355946	-1.476537	0.462976
C	-0.513889	1.24991	0.70013
H	-1.611221	1.272374	0.723609
H	-0.151161	1.226439	1.727877
H	-0.149626	2.162361	0.224056
Br	3.579684	0.0	0.0
