13
Coordinates from ORCA-job run
  C   0.59135180506415      0.66042986506923      0.30745771733940
  C   -0.52381686127242     -0.09770606457352     -0.41743298804729
  Br  0.89996579365267      2.38668850031597     -0.47278872183032
  H   -0.24755024122606     -0.15137245185972     -1.47293881859432
  H   0.37904736749163      0.79554199186665      1.36741361216715
  N   1.86703182756448     -0.13372337518590      0.23156230790406
  O   2.14664194120922     -0.61899217435472     -0.85963056268801
  O   2.51738736255926     -0.22440324766775      1.26730369403867
  N   -1.77281577481559      0.62365257133002     -0.28234900807647
  H   -2.19267167996688      0.45341176335983      0.62342338501527
  H   -2.42842045796359      0.33035273763033     -0.99438219473828
  C   -0.56964753736495     -1.47491419060364      0.11789929914078
  N   -0.66550354493193     -2.54896592532682      0.58546227836935
