13
Coordinates from ORCA-job run
  C   0.73373096197338      0.70342899948367     -0.26681957946528
  C   -0.69344644126179      0.18053831636300     -0.38529041924084
  Br  1.66328397201520      0.70127069859926     -1.95131647319651
  H   -1.20820288778457      0.91133628994255     -1.01864373653012
  H   0.71623715037191      1.72188529095632      0.11676663455491
  N   1.53460264209859     -0.08862585645113      0.73410203218397
  O   1.16658525385133     -1.23650637462601      0.96972770224193
  O   2.49239146893891      0.48775557488484      1.23208200756972
  N   -1.29688256361191      0.22362349188796      0.93587416166803
  H   -2.30382752369417      0.28879127525211      0.86126744861137
  H   -1.06713830416727     -0.61797244149310      1.45011549154023
  C   -0.78537696097804     -1.12043894304964     -1.07368260216832
  N   -0.95295676775158     -2.15408632174982     -1.60518266776909
