13
Coordinates from ORCA-job run
  C   0.78846291417633      0.42820499068901     -0.41073192417560
  C   -0.67149590788932      0.08033638366654     -0.10972761166704
  Br  1.71261998964656     -0.98987451019278     -1.30763041522897
  H   -1.09028804427078      0.96806495748544      0.37433693637028
  H   0.86561887290566      1.32675325318568     -1.02274172991522
  N   1.42516835764132      0.78100577858561      0.92422095484633
  O   0.92494969004289      1.77934619484863      1.43401326963420
  O   2.32213043936048      0.09533413529042      1.37971632819016
  N   -0.72461322568130     -1.01142177527498      0.83882646342271
  H   -0.47792436599781     -1.88829783129007      0.39580649897913
  H   -1.65459290536648     -1.09741088272224      1.22848949846124
  C   -1.40240962234809     -0.13422598372025     -1.37309666839073
  N   -2.01862619221945     -0.33781471055102     -2.35248160052649
