13
Coordinates from ORCA-job run
  C   0.89602297768354      0.20406174019997     -0.35908853821313
  C   -0.62765839902554      0.16900214200957     -0.21632731409758
  Br  1.62673177426882     -1.49353042172056     -0.86310747099934
  H   -0.92081835467290      1.18990628921563      0.04755783711841
  H   1.21037469474312      0.94301696637374     -1.09604739687438
  N   1.43726590932670      0.69480866415725      0.97404655976831
  O   2.13057106696553     -0.03103770137938      1.66309539270555
  O   1.08501794916250      1.84256399825925      1.23003754036871
  N   -0.99185874304281     -0.69795397685757      0.88384150449101
  H   -0.87016359924846     -1.67173293152943      0.63279595112502
  H   -1.95820430082605     -0.55145366758388      1.14589527110481
  C   -1.24203322574979     -0.15700834141184     -1.51721087920960
  N   -1.77524774958467     -0.43864275973274     -2.52548845728779
