13
Coordinates from ORCA-job run
  C   0.72869630241016      0.37284900768380     -0.38643441393941
  C   -0.76150620129754      0.01279936665472     -0.20669299435666
  Br  1.75650846367795     -1.11224546403739     -1.03229886939433
  H   -1.25333961682358      0.92606000245155      0.13944088506328
  H   0.86005467640346      1.19931849829725     -1.08946122979248
  N   1.28179234957030      0.88683075357038      0.93879530247096
  O   0.47543786232183      1.51475194471545      1.62219481332062
  O   2.46038614567225      0.70605461248520      1.19871777651482
  N   -1.06817646686116     -1.03373258545493      0.73578216708526
  H   -0.56011413216167     -1.88409520481164      0.52832883061238
  H   -0.87123223882216     -0.73211777031347      1.68066228972418
  C   -1.30996106629024     -0.30857836210169     -1.53096039278278
  N   -1.73754607779961     -0.54889479913922     -2.59707416452586
