15

C	-0.574068	-0.055344	-1.400972
C	0.0	0.0	0.0
F	-1.903481	-0.377454	-1.356705
H	1.093783	0.0	0.0
H	-0.047053	-0.751632	-2.048418
N	-0.455923	1.312628	-2.02115
O	-1.47431	1.986555	-2.120382
O	0.673596	1.626239	-2.371096
N	-0.355867	-1.366013	0.608215
O	-0.845722	-1.382116	1.73454
O	-0.099793	-2.355973	-0.07022
N	-0.498915	1.099343	0.733165
H	-1.462977	0.97185	1.010567
H	0.075402	1.264102	1.547041
Cl	3.24539	0.0	0.0
