15

C	-0.545332	-0.003103	-1.413035
C	0.0	0.0	0.0
F	-1.916488	-0.051929	-1.384298
H	1.089556	0.0	0.0
H	-0.159005	-0.81227	-2.024232
N	-0.172748	1.281381	-2.104489
O	-0.891527	2.257538	-1.899951
O	0.821734	1.244259	-2.819815
N	-0.398007	-1.377281	0.560568
O	-0.846522	-1.448227	1.694346
O	-0.195765	-2.335195	-0.187267
N	-0.480738	1.044045	0.819403
H	0.254956	1.698455	1.037242
H	-1.302592	1.506564	0.466062
Cl	3.237587	0.0	0.0
