15

C	-0.592643	-0.051779	-1.390634
C	0.0	0.0	0.0
F	-1.942914	-0.268354	-1.315485
H	1.090465	0.0	0.0
H	-0.134701	-0.808785	-2.021117
N	-0.381249	1.275648	-2.064644
O	0.743885	1.453114	-2.512747
O	-1.326349	2.05146	-2.111531
N	-0.368526	-1.356525	0.624469
O	-0.147076	-2.357622	-0.050404
O	-0.834079	-1.354974	1.760762
N	-0.476428	1.110225	0.731252
H	0.112983	1.277134	1.532693
H	-1.437414	1.000125	1.021124
Cl	3.243753	0.0	0.0
