15

C	-0.44536	-0.058953	-1.448275
C	0.0	0.0	0.0
F	-0.060176	1.135886	-2.084628
H	1.094686	0.0	0.0
H	0.10698	-0.855965	-1.95394
N	-1.85089	-0.273617	-1.597514
H	-2.093702	-0.240998	-2.580286
H	-2.345644	0.47768	-1.129178
C	-0.402491	-1.262304	0.764511
H	0.042467	-1.233256	1.761544
H	-1.484187	-1.384757	0.842047
H	0.015579	-2.129844	0.246491
C	-0.53791	1.192098	0.635112
N	-1.015741	2.140188	1.141701
H	2.792138	0.0	0.0
