15

C	-0.379925	0.02637	-1.486869
C	0.0	0.0	0.0
F	-0.245547	-1.272057	-1.978002
H	1.097811	0.0	0.0
H	-1.433172	0.300892	-1.639906
N	0.458797	0.894868	-2.259082
H	1.404625	0.843169	-1.873652
H	0.129872	1.849421	-2.1727
C	-0.515359	-1.20426	0.778868
H	-0.080315	-2.106319	0.349304
H	-1.607314	-1.284649	0.749348
H	-0.195174	-1.13511	1.821194
C	-0.454506	1.252712	0.585304
N	-0.847516	2.259529	1.049916
H	2.824386	0.0	0.0
