15

C	-0.35152	-0.033452	-1.497801
C	0.0	0.0	0.0
F	-0.299269	-1.367631	-1.910514
H	1.097838	0.0	0.0
H	-1.379229	0.300534	-1.692682
N	0.562388	0.727225	-2.291048
H	1.489545	0.668363	-1.862674
H	0.274598	1.696256	-2.317734
C	-0.536809	-1.161128	0.825836
H	-0.102459	-2.086509	0.448821
H	-0.237463	-1.043586	1.870053
H	-1.62858	-1.235127	0.778104
C	-0.449424	1.283554	0.518109
N	-0.843487	2.314196	0.925834
H	2.829863	0.0	0.0
