15

C	-0.286336	-0.075842	-1.492307
C	0.0	0.0	0.0
F	-1.621819	-0.446288	-1.746389
H	1.097677	0.0	0.0
H	-0.197748	0.920348	-1.945866
N	0.585952	-1.060103	-2.056535
H	1.507314	-0.948859	-1.618011
H	0.687019	-0.906565	-3.051369
C	-0.46824	-1.244614	0.750216
H	-0.056518	-2.125607	0.256978
H	-0.094124	-1.215802	1.776447
H	-1.557879	-1.322401	0.764025
C	-0.528793	1.217839	0.586593
N	-0.959095	2.198706	1.072187
H	2.788724	0.0	0.0
