15

C	-0.361685	-0.009266	-1.496212
C	0.0	0.0	0.0
F	-0.359844	-1.347031	-1.918677
H	1.09617	0.0	0.0
H	-1.380563	0.354493	-1.68063
N	0.569002	0.72528	-2.282382
H	0.264898	1.678206	-2.419728
H	1.488535	0.697208	-1.840584
C	-0.532351	-1.173125	0.811671
H	-0.222982	-1.074022	1.854947
H	-0.103801	-2.093173	0.415398
H	-1.624532	-1.24506	0.772239
C	-0.445305	1.276661	0.539152
N	-0.830274	2.310036	0.949063
H	2.831877	0.0	0.0
