15

C	-0.444058	0.055418	-1.449168
C	0.0	0.0	0.0
F	-1.819751	0.449434	-1.514687
H	1.09507	0.0	0.0
H	0.104172	0.842977	-1.971121
N	-0.252751	-1.17611	-2.123096
H	-0.505704	-1.078593	-3.097475
H	-0.828093	-1.896447	-1.706409
C	-0.453886	-1.256558	0.741136
H	-1.535758	-1.414891	0.67859
H	-0.174741	-1.176438	1.793311
H	0.078961	-2.118962	0.333939
C	-0.453291	1.20004	0.691846
N	-0.803684	2.156499	1.278148
H	2.80475	0.0	0.0
