15

C	-0.341161	0.040403	-1.500904
C	0.0	0.0	0.0
F	-0.294615	-1.273472	-1.975622
H	1.097914	0.0	0.0
H	-1.364784	0.391001	-1.687166
N	0.585364	0.829158	-2.251241
H	0.311437	1.802099	-2.223312
H	1.510057	0.734272	-1.823507
C	-0.541012	-1.200699	0.764102
H	-0.253131	-1.133097	1.816033
H	-1.632056	-1.274647	0.701168
H	-0.10054	-2.10608	0.347403
C	-0.449379	1.257135	0.578779
N	-0.840103	2.267697	1.037006
H	2.830454	0.0	0.0
