16

C	-0.463422	0.035025	-1.460563
C	0.0	0.0	0.0
Cl	0.002354	-1.492934	-2.294649
H	1.09566	0.0	0.0
H	0.120082	0.810749	-1.964011
C	-1.951706	0.255854	-1.670406
H	-2.530092	-0.552014	-1.217097
H	-2.188382	0.285392	-2.736746
H	-2.254626	1.202839	-1.216643
C	-0.467391	-1.199178	0.821054
H	-0.060075	-2.112511	0.386282
H	-0.062163	-1.107247	1.831463
H	-1.5569	-1.28268	0.886964
C	-0.430164	1.243716	0.625317
N	-0.786108	2.247281	1.126335
H	2.771516	0.0	0.0
