16

C	-0.480411	0.024232	-1.453323
C	0.0	0.0	0.0
Cl	0.052896	-1.470919	-2.304143
H	1.095641	0.0	0.0
H	0.0542	0.83128	-1.959522
C	-1.981128	0.166708	-1.640822
H	-2.232834	0.210777	-2.702841
H	-2.331984	1.082178	-1.158083
H	-2.504941	-0.685699	-1.203253
C	-0.451163	-1.197283	0.83448
H	-1.535912	-1.255336	0.963761
H	0.01655	-1.123812	1.818166
H	-0.090805	-2.115607	0.368382
C	-0.43272	1.24474	0.623038
N	-0.797896	2.247717	1.118576
H	2.774264	0.0	0.0
