16

C	-0.464974	-0.132431	-1.451694
C	0.0	0.0	0.0
Cl	-0.151198	1.397393	-2.35368
H	1.096447	0.0	0.0
H	-1.552368	-0.261807	-1.500235
C	0.264429	-1.26646	-2.152676
H	1.338568	-1.142401	-1.992595
H	-0.046573	-2.228951	-1.737693
H	0.038736	-1.266678	-3.221457
C	-0.395038	-1.237981	0.816868
H	-1.455651	-1.493049	0.710146
H	0.220006	-2.085552	0.510417
H	-0.186055	-1.056398	1.872953
C	-0.540215	1.193582	0.631524
N	-0.999137	2.148086	1.143172
H	2.812621	0.0	0.0
