16

C	-0.305558	-0.025376	-1.482054
C	0.0	0.0	0.0
Cl	-2.092114	-0.195045	-1.825351
H	1.098316	0.0	0.0
H	0.138436	-0.939314	-1.88331
C	0.25169	1.185004	-2.195188
H	-0.230995	2.098953	-1.841275
H	1.321709	1.229099	-1.961533
H	0.109793	1.105009	-3.275454
C	-0.443436	-1.246878	0.756419
H	-0.04618	-1.214664	1.773698
H	-1.530545	-1.346238	0.795044
H	-0.020429	-2.127009	0.263282
C	-0.48872	1.21444	0.631767
N	-0.874674	2.193034	1.157474
H	2.755252	0.0	0.0
