16

C	-0.456302	0.047322	-1.462973
C	0.0	0.0	0.0
Cl	-0.019495	-1.488658	-2.297638
H	1.09575	0.0	0.0
H	0.147122	0.810806	-1.961527
C	-1.937852	0.301108	-1.680851
H	-2.537159	-0.49115	-1.226998
H	-2.168583	0.33195	-2.748466
H	-2.221002	1.256577	-1.232411
C	-0.472405	-1.203616	0.811453
H	-1.562384	-1.294892	0.857991
H	-0.051594	-2.113552	0.382004
H	-0.08571	-1.110739	1.828987
C	-0.428267	1.240389	0.633118
N	-0.780496	2.240327	1.143972
H	2.770378	0.0	0.0
