17

C	-0.601596	0.028183	-1.407007
C	0.0	0.0	0.0
Br	0.093298	1.497163	-2.460975
H	1.09263	0.0	0.0
N	-0.161174	-1.242112	-2.189931
O	0.829867	-1.851227	-1.809826
O	-0.864397	-1.550024	-3.151362
N	-2.013559	0.091247	-1.336064
H	-2.412545	-0.007759	-2.261309
H	-2.296587	-0.686389	-0.744664
N	-0.535347	-1.241141	0.620823
H	-0.5495	-1.079762	1.62212
H	0.147977	-1.975905	0.456879
N	-0.424678	1.196857	0.675373
H	-1.405906	1.16284	0.921562
H	0.159182	1.361713	1.484129
Cl	3.483684	0.0	0.0
