17

C	-0.639121	-0.005354	-1.39006
C	0.0	0.0	0.0
Br	0.039608	1.422435	-2.50875
H	1.092629	0.0	0.0
N	-0.234597	-1.302068	-2.148772
O	-0.988972	-1.651013	-3.056369
O	0.783605	-1.886651	-1.80495
N	-2.047524	0.075928	-1.27683
H	-2.477203	-0.058272	-2.183433
H	-2.317497	-0.675428	-0.646188
N	-0.524158	-1.224686	0.665105
H	0.139633	-1.970524	0.475506
H	-0.472493	-1.048306	1.662045
N	-0.409341	1.212346	0.657947
H	0.21299	1.409464	1.429057
H	-1.374482	1.173736	0.956542
Cl	3.460898	0.0	0.0
