17

C	-0.594526	-0.015932	-1.41376
C	0.0	0.0	0.0
Br	0.163848	1.391981	-2.523619
H	1.09293	0.0	0.0
N	-0.203477	-1.327543	-2.143571
O	0.794918	-1.925165	-1.767444
O	-0.945283	-1.672685	-3.063531
N	-2.001424	0.117848	-1.352949
H	-2.40912	-0.046031	-2.265015
H	-2.312691	-0.593675	-0.694013
N	-0.571863	-1.188688	0.660973
H	0.117096	-1.931674	0.602549
H	-0.657862	-0.9274	1.636067
N	-0.424089	1.186607	0.720884
H	0.315513	1.875707	0.663525
H	-1.271199	1.567425	0.313188
Cl	3.466682	0.0	0.0
