17

C	-0.438539	0.050949	-1.46065
C	0.0	0.0	0.0
Br	-2.514446	0.492878	-1.518828
H	1.100046	0.0	0.0
N	0.089725	1.234743	-2.258869
O	0.232823	1.058814	-3.462893
O	0.301038	2.283681	-1.663742
N	-0.128384	-1.101609	-2.112747
H	-0.324713	-1.90377	-1.527294
H	-0.398161	-1.150744	-3.081506
N	-0.407168	-1.306116	0.513828
H	0.336826	-1.659865	1.102711
H	-1.239975	-1.161425	1.07362
N	-0.539623	1.069823	0.834042
H	-0.516457	1.935456	0.30732
H	0.1342	1.188798	1.585875
Cl	3.354909	0.0	0.0
