17

C	-0.407256	-0.0675	-1.475604
C	0.0	0.0	0.0
Br	-2.342939	-0.421055	-1.608335
H	1.095066	0.0	0.0
N	-0.129253	1.292663	-2.114226
O	1.047233	1.464321	-2.414573
O	-1.029949	2.109836	-2.240523
N	0.296044	-1.052524	-2.231079
H	0.212303	-1.90833	-1.688583
H	1.27939	-0.778627	-2.187136
N	-0.35	-1.285182	0.602582
H	0.315296	-1.482149	1.339345
H	-1.284555	-1.256793	0.991785
N	-0.466466	1.221049	0.612542
H	-1.446021	1.159101	0.862356
H	0.085201	1.414691	1.437336
Cl	3.36473	0.0	0.0
