17

C	-0.639591	-0.043719	-1.387486
C	0.0	0.0	0.0
Br	0.235507	1.366298	-2.562916
H	1.092652	0.0	0.0
N	-0.30892	-1.32867	-2.12409
O	0.767975	-1.85125	-1.899157
O	-1.155178	-1.719343	-2.927388
N	-2.022888	0.079725	-1.293967
H	-2.484783	0.077985	-2.191273
H	-2.244222	0.881236	-0.715744
N	-0.454385	-1.180152	0.697728
H	-1.343674	-1.014111	1.150454
H	0.248577	-1.473503	1.362435
N	-0.49914	1.243578	0.637877
H	-0.19358	1.189956	1.604529
H	0.026601	2.015348	0.233973
Cl	3.453453	0.0	0.0
