17

C	-0.604232	0.058609	-1.415869
C	0.0	0.0	0.0
Br	0.514119	1.34813	-2.48123
H	1.104011	0.0	0.0
N	-0.462476	-1.229279	-2.213172
O	-1.206179	-1.353049	-3.182161
O	0.380184	-2.043997	-1.853393
N	-1.962063	0.384587	-1.384963
H	-2.325746	0.564594	-2.310504
H	-2.05507	1.190217	-0.775115
N	-0.539817	-1.152171	0.7359
H	-0.298081	-1.990261	0.217762
H	0.028911	-1.204745	1.578236
N	-0.446956	1.222834	0.67479
H	0.365286	1.721505	1.014821
H	-1.028032	0.949517	1.457836
Cl	3.439313	0.0	0.0
