15

C	-0.525978	0.007625	-1.434464
C	0.0	0.0	0.0
Cl	0.117223	-1.469603	-2.330813
H	1.098267	0.0	0.0
H	-0.102993	0.847511	-1.985816
N	-1.949283	0.058916	-1.421011
H	-2.333837	-0.042159	-2.350325
H	-2.267475	-0.699701	-0.82608
N	-0.581629	-1.162594	0.684278
H	-0.476567	-0.968321	1.672928
H	-0.004993	-1.970381	0.474128
N	-0.427158	1.196309	0.710267
H	-1.324804	1.501948	0.350996
H	0.261331	1.924506	0.563556
Br	3.671243	0.0	0.0
