15

C	-0.5164	0.082785	-1.438732
C	0.0	0.0	0.0
Cl	-0.01432	-1.36249	-2.38207
H	1.095152	0.0	0.0
H	-0.023812	0.91905	-1.948953
N	-1.959905	0.148039	-1.41279
H	-2.174978	0.885902	-0.746062
H	-2.319243	0.397892	-2.325542
N	-0.493371	-1.155712	0.720949
H	0.176148	-1.904932	0.612503
H	-1.373494	-1.449456	0.312365
N	-0.506426	1.220407	0.671032
H	0.21199	1.932872	0.589459
H	-0.559054	0.971738	1.653587
Br	3.650479	0.0	0.0
