15

C	-0.24462	0.062784	-1.505581
C	0.0	0.0	0.0
Cl	-2.003317	0.167261	-1.929415
H	1.108475	0.0	0.0
H	0.069628	-0.895849	-1.935613
N	0.442976	1.214	-2.039263
H	1.40901	1.16061	-1.711559
H	0.451853	1.177446	-3.05146
N	-0.474079	-1.189581	0.666673
H	-1.449944	-1.338232	0.432731
H	0.074039	-1.988358	0.370313
N	-0.591565	1.157072	0.650537
H	-0.335508	1.978746	0.113465
H	-0.153184	1.233382	1.561438
Br	3.619386	0.0	0.0
