15

C	-0.529217	-0.006745	-1.432245
C	0.0	0.0	0.0
Cl	0.094715	-1.510779	-2.301932
H	1.098265	0.0	0.0
H	-0.092428	0.814605	-1.999935
N	-1.949164	0.067096	-1.417502
H	-2.281484	-0.675379	-0.809954
H	-2.338568	-0.037059	-2.344431
N	-0.590823	-1.146256	0.703902
H	-0.022869	-1.963838	0.505404
H	-0.482391	-0.935876	1.688978
N	-0.417232	1.212951	0.690504
H	0.289497	1.923551	0.550223
H	-1.301646	1.533204	0.313132
Br	3.678288	0.0	0.0
