15

C	-0.389112	-0.072628	-1.483342
C	0.0	0.0	0.0
Cl	-0.20086	1.602161	-2.271387
H	1.104528	0.0	0.0
H	-1.456466	-0.278253	-1.591652
N	0.393584	-1.075805	-2.101815
H	1.383747	-0.900423	-1.937482
H	0.213433	-1.154192	-3.09359
N	-0.575735	-1.204525	0.604457
H	-0.248373	-1.213266	1.565028
H	-0.163184	-2.004599	0.137776
N	-0.479133	1.127175	0.761157
H	-1.462908	1.278885	0.562985
H	0.038547	1.953728	0.492297
Br	3.68413	0.0	0.0
