15

C	-0.474495	-0.021378	-1.453072
C	0.0	0.0	0.0
Cl	-0.149941	1.558592	-2.264385
H	1.093953	0.0	0.0
H	-1.561605	-0.156278	-1.479352
N	0.163501	-1.06837	-2.221173
H	1.17156	-0.948176	-2.115311
H	-0.075265	-1.922271	-1.722503
N	-0.422356	-1.289725	0.564945
H	-1.118874	-1.093912	1.273976
H	0.377869	-1.722786	1.009195
N	-0.577625	1.091069	0.781133
H	-0.59225	1.929237	0.210912
H	0.079297	1.288058	1.530802
Br	3.608813	0.0	0.0
