13
Coordinates from ORCA-job run
  C   -0.47751963681402     -0.23071975283248     -0.44900244920665
  C   0.78818755653843      0.38542846095530      0.16792340534499
  Cl  -0.08360956045029     -1.23222253822324     -1.84572827297784
  H   1.31473250452883      0.88890810510701     -0.64358302301798
  H   0.45132437935053      1.15021429109995      0.88197794771330
  N   -1.36009608993026      0.92936908688695     -0.92636680779539
  O   -0.82750269550840      1.69301213790025     -1.71932757131902
  O   -2.48668608929160      1.01826150053301     -0.45546992568139
  C   -1.20581310010549     -1.01387654222431      0.53939409334316
  N   -1.71464323404153     -1.64606559787241      1.38914860357011
  N   1.59464941233881     -0.66398173935695      0.74250548859828
  H   1.42727886012666     -0.76954171972463      1.73266499081021
  H   2.57869769325835     -0.50978569224843      0.58586352061822
