13
Coordinates from ORCA-job run
  C   -0.65202015907472     -0.38353327340990      0.02091013384902
  C   0.71542670321427     -0.03022952964624      0.61826786277916
  Cl  -0.64547146291565     -2.01274603369551     -0.64504256071824
  H   0.92310197854585     -0.76793263577698      1.40340805025884
  H   0.60836527517742      0.95022040117209      1.08528402421590
  N   -0.91532357020423      0.65472137646540     -1.09409014974939
  O   -0.98882342096402      0.28260897988067     -2.24762714632198
  O   -0.99669656597282      1.79809717179032     -0.66552172900791
  C   -1.71767256884332     -0.24835575077867      1.00539485627302
  N   -2.54147078084144     -0.14657804445438      1.83735368732434
  N   1.68720246090359      0.04437732924167     -0.44912672385354
  H   2.41284682952055      0.71177497810073     -0.23294507770509
  H   2.11153528145451     -0.85342496888919     -0.63426522734415
