13
Coordinates from ORCA-job run
  C   -0.49719891292183     -0.32639334665771     -0.34048499114479
  C   0.77714823081779      0.38732043560439      0.13878228115130
  Cl  -0.08852790643465     -1.74970322690465     -1.29274357792798
  H   0.44644010671595      1.28526032262262      0.67057820210767
  H   1.32551388618617      0.69473857098190     -0.76372571647640
  N   -1.25043633549178      0.70089964999048     -1.21097621657224
  O   -1.11748349030221      0.64441833565635     -2.42162984442017
  O   -1.85049939635018      1.55325828473231     -0.56668079423312
  C   -1.35846042323697     -0.69822398239265      0.77254926139032
  N   -2.03839948018889     -0.99700887694961      1.68241195370116
  N   1.49889458822424     -0.48068774508147      1.03933868513986
  H   1.98977564659065      0.04583944220406      1.74662088228577
  H   2.16223348639171     -1.05971786380603      0.54595987499862
