16
Coordinates from ORCA-job run
  C   0.82819871312028     -0.19461858088246      0.49182269586039
  C   -0.51713116567925      0.30593950833447     -0.03206999688666
  Cl  0.89129645452733     -1.99735030995252      0.41089411522535
  H   -0.45031074364351      1.40027644409298      0.03809818740720
  H   0.89680360800643      0.03936058040963      1.55730393026254
  C   2.01260788984696      0.37676848354421     -0.26017240462675
  H   1.94368664239970      0.11893694228101     -1.31555618797100
  H   2.00615016220083      1.46719495858943     -0.16871220445365
  H   2.95125643598893      0.00002055820114      0.14901327083952
  C   -1.69058391786584     -0.15282023002357      0.83181902609963
  H   -1.80676991660828     -1.23745388241690      0.78183937346385
  H   -2.61738774200441      0.30606732960726      0.47710739928912
  H   -1.55373689487966      0.12874088751957      1.88060606326871
  N   -0.64272850315489     -0.01359902074544     -1.45096901026735
  H   -1.44803603193615      0.46493159449943     -1.83624941536197
  H   -0.80331499031845     -1.00939526305827     -1.55677484214894
