16
Coordinates from ORCA-job run
  C   0.82555961388277     -0.12023341110613      0.55180893089808
  C   -0.55828922943843      0.24273975385425      0.01094432353865
  Cl  1.00816771414284     -1.89230632942831      0.76370996553994
  H   -0.60443999063491      1.34245458505168      0.11075288078656
  H   0.91289567886200      0.30053588739298      1.55783328834930
  C   1.95045807089332      0.38790614758579     -0.32970582849627
  H   1.84716584061115      1.46749050894134     -0.48207558840116
  H   1.92346391858196     -0.11718157094363     -1.29593416880536
  H   2.92151226474060      0.19679339449997      0.12879760964656
  C   -1.68621187212820     -0.34669420806929      0.84251721091621
  H   -1.53223333243758     -0.15946053562260      1.90748379232434
  H   -1.74142615896475     -1.42464629681764      0.68580469234294
  H   -2.64212292322234      0.09893775019557      0.55339163499139
  N   -0.69229017770782     -0.19351530007515     -1.37509165335609
  H   -1.67129198439125     -0.25322363778602     -1.62529724683855
  H   -0.25991743278936      0.47140326232719     -2.00393984343655
