16
Coordinates from ORCA-job run
  C   0.92656822820792      0.44715551892360     -0.20871464668749
  C   -0.58130421743396      0.44877462284743      0.04298511815698
  Cl  1.56534698590381      2.10939445744689      0.01220070240674
  H   -0.74605006207925      0.94874083714634      1.00435018512961
  H   1.10327787473787      0.20682968669384     -1.26247533562142
  C   1.71489414334650     -0.49543140673377      0.68319724692077
  H   1.51112366281661     -0.28614068318743      1.73624729828454
  H   2.78485568993917     -0.36952154945261      0.51414535318940
  H   1.45864191447739     -1.53555156031664      0.47260783454401
  C   -1.14065413622882     -0.97479329583109      0.12079128517674
  H   -0.89647285602092     -1.53595270495975     -0.78801893281460
  H   -2.22955594162251     -0.92997655180823      0.20117715061857
  H   -0.76513695197649     -1.53311811477585      0.98045086159685
  N   -1.22931831760268      1.26498639697003     -0.98044894696390
  H   -1.30624898823645      0.73162614404860     -1.84026069022324
  H   -2.16996702822819      1.50097820298864     -0.68923448371357
