16
Coordinates from ORCA-job run
  C   0.88385457190555      0.39839220435279     -0.25187553458990
  C   -0.61739693137030      0.33770444401767      0.00664135096334
  Cl  1.41543575644904      2.12384791277307     -0.16850733492407
  H   -0.79487565115422      0.81318274536529      0.98607013868797
  H   1.05866156278785      0.09584132162512     -1.28730924035523
  C   1.72660743448676     -0.40928433585568      0.71510351185295
  H   1.54117193220949     -1.47676551956986      0.58092862351346
  H   1.49859111754031     -0.13650666867775      1.74829321718296
  H   2.78745863257533     -0.22608631884265      0.54030335640709
  C   -1.10631438831332     -1.10444020881565      0.06068452075980
  H   -0.82654045881959     -1.63259796173823     -0.85440117391385
  H   -0.71134336247555     -1.64019498422079      0.92458080533767
  H   -2.19720805998210     -1.12253358131551      0.13465138066114
  N   -1.30976369453857      1.01143094051583     -1.08942589566301
  H   -2.30913860553767      0.98158159137474     -0.92432645675960
  H   -1.03919985576302      1.98742841901161     -1.11841126916074
