16
Coordinates from ORCA-job run
  C   0.76113433770028      0.70988789354217      0.26638317903185
  C   -0.74742102597691      0.49356079015394      0.05399340453818
  Cl  1.07490571778832      1.12348375096289      1.99127216384099
  H   -1.25073799164948      1.35578294198922      0.50525083185664
  H   1.05178026327168      1.60635859824204     -0.28929684140929
  C   1.64544351781568     -0.45567513435026     -0.13259703758250
  H   1.46489789892555     -1.32210108561484      0.50448769113704
  H   2.69794862863469     -0.18350639871206     -0.04168015201778
  H   1.45822217909729     -0.73504905720720     -1.17291650262012
  C   -1.27231921627824     -0.77199594781876      0.71321779046992
  H   -0.88099241028244     -1.66393153197567      0.21535103146383
  H   -2.35938736681534     -0.79501182065602      0.62795312049112
  H   -0.99850263113718     -0.81890208631752      1.76793995921346
  N   -1.12255491383510      0.47799938943735     -1.35668730808565
  H   -0.79227686575018      1.30972472483587     -1.83221339679152
  H   -0.73114012150864     -0.33062502651114     -1.82445793353618
