15

C	-0.188456	-0.068978	-1.442608
C	0.021167	-0.144087	0.064025
F	-1.516304	0.335626	-1.70139
H	1.093447	-0.339037	0.183732
H	0.472792	0.733189	-1.778984
C	0.063312	-1.359141	-2.184212
H	-0.097065	-1.215161	-3.255444
H	-0.608426	-2.145135	-1.83135
H	1.098058	-1.672406	-2.025883
C	-0.767943	-1.237247	0.65081
N	-1.392308	-2.132408	1.086964
N	-0.211014	1.114197	0.752666
H	-0.966846	1.596906	0.278414
H	0.677119	1.618936	0.558812
H	2.316576	1.441307	-0.226323
