15

C	-0.385609	-0.04792	-1.519208
C	0.022474	-0.089062	-0.057787
F	-1.781951	0.047823	-1.627348
H	1.111483	-0.194175	-0.000873
H	0.022716	0.882185	-1.92318
C	0.059839	-1.254625	-2.314793
H	1.14765	-1.348506	-2.2732
H	-0.388764	-2.162621	-1.905134
H	-0.248056	-1.15635	-3.358613
C	-0.581235	-1.254968	0.597984
N	-1.079382	-2.183335	1.12026
N	-0.246048	1.174434	0.613338
H	-0.935882	1.055563	1.344374
H	0.684806	1.395973	1.037787
H	2.36534	0.967734	1.022866
