15

C	-0.464048	0.022876	-1.47429
C	-0.009667	-0.174821	-0.024837
F	-0.345219	-1.207392	-2.144744
H	1.040285	-0.48764	-0.062856
H	-1.534669	0.268307	-1.48948
C	0.345683	1.056371	-2.219678
H	0.162726	2.05249	-1.817225
H	0.065638	1.03554	-3.276938
H	1.41192	0.868789	-2.094624
C	-0.809337	-1.264532	0.571114
N	-1.471083	-2.117821	1.034143
N	-0.044549	1.013533	0.799286
H	0.919178	1.442058	0.669835
H	-0.758482	1.653798	0.46634
H	2.430925	1.588983	0.237877
