15

C	0.0	0.0	0.0
C	-0.510059	0.284262	-1.423991
Cl	1.800001	0.0	0.0
H	-0.218766	-0.537921	-2.086593
H	-1.61031	0.273564	-1.260967
C	-0.441606	1.111186	0.940919
H	-0.091834	0.875171	1.947773
H	-1.534712	1.105634	0.898049
H	-0.032805	2.075015	0.631121
N	-0.533216	-1.242196	0.492101
H	-0.341407	-1.970451	-0.191346
H	-1.557459	-1.03894	0.455583
C	-0.062511	1.54186	-2.004461
N	0.299776	2.556425	-2.473678
F	-2.896929	0.0	0.0
