15

C	0.0	0.0	0.0
C	-0.522475	0.32156	-1.40218
Cl	1.795395	0.0	0.0
H	-1.62346	0.311537	-1.244341
H	-0.229517	-0.485897	-2.077779
C	-0.431262	1.085479	0.98329
H	-0.032783	2.066171	0.712293
H	-1.525149	1.069093	0.947759
H	-0.073304	0.829369	1.985122
N	-0.534212	-1.3018	0.316454
H	-0.308212	-1.501296	1.287394
H	-1.559237	-1.102219	0.271801
C	-0.074376	1.599553	-1.932883
N	0.270553	2.629809	-2.380414
F	-2.900169	0.0	0.0
