15

C	0.0	0.0	0.0
C	-0.521123	0.044357	-1.437404
Cl	1.797569	0.0	0.0
H	-1.622111	0.053164	-1.280814
H	-0.199117	0.966225	-1.928615
C	-0.441689	1.27696	0.71202
H	-0.045698	2.174114	0.22638
H	-1.535891	1.242834	0.673648
H	-0.088126	1.258958	1.747546
N	-0.523518	-1.198693	0.600566
H	-1.549954	-1.027471	0.517285
H	-0.286938	-1.188335	1.588649
C	-0.111829	-1.094919	-2.247955
N	0.191964	-1.987095	-2.948466
F	-2.902243	0.0	0.0
