15

C	0.0	0.0	0.0
C	-0.521202	0.04458	-1.437378
Cl	1.797403	0.0	0.0
H	-0.199346	0.966591	-1.928441
H	-1.622192	0.053286	-1.280749
C	-0.441782	1.276813	0.712241
H	-1.535985	1.242602	0.673835
H	-0.088248	1.258663	1.747778
H	-0.045832	2.174063	0.226742
N	-0.523528	-1.198798	0.600359
H	-0.286912	-1.188649	1.588427
H	-1.549955	-1.027655	0.517139
C	-0.111751	-1.094466	-2.248152
N	0.192529	-1.98614	-2.949092
F	-2.902343	0.0	0.0
