15

C	0.0	0.0	0.0
C	-0.63969	-0.059483	-1.373591
Cl	1.852807	0.0	0.0
H	-0.408463	0.833657	-1.959422
H	-1.752663	-0.072358	-1.036641
C	-0.502315	1.225834	0.728211
H	-0.101297	1.261038	1.745274
H	-0.201372	2.135375	0.203314
H	-1.597392	1.088259	0.71445
N	-0.37921	-1.182664	0.716715
H	-0.150895	-1.082716	1.696763
H	0.100525	-1.992832	0.347172
C	-0.283035	-1.251883	-2.118343
N	0.006665	-2.225748	-2.710347
F	-2.968076	0.0	0.0
