15

C	-0.233189	0.083375	-1.504212
C	0.0	0.0	0.0
Br	0.141927	2.098306	-1.948165
H	1.090214	0.0	0.0
H	-0.459737	0.823495	0.558291
N	0.766931	-0.652075	-2.227262
H	0.55549	-1.621913	-1.995748
H	1.651267	-0.437932	-1.739236
N	-1.524774	-0.256315	-1.961971
H	-1.568104	-0.150385	-2.967428
H	-2.225346	0.329811	-1.525959
N	-0.369028	-1.350159	0.449187
H	0.336203	-1.643592	1.11289
H	-1.269142	-1.364554	0.906895
F	2.712706	0.0	0.0
