15

C	-0.193617	-0.010118	-1.519409
C	0.0	0.0	0.0
Br	-0.027773	1.842271	-2.222551
H	1.093688	0.0	0.0
H	-0.312552	-1.014343	0.321823
N	0.900202	-0.7555	-2.128868
H	0.734697	-1.729626	-1.890123
H	1.746403	-0.487731	-1.590626
N	-1.505325	-0.470273	-1.932723
H	-1.48552	-0.614645	-2.937612
H	-1.656564	-1.373874	-1.490839
N	-0.613226	1.073453	0.750819
H	-1.538921	0.821197	1.0676
H	-0.031911	1.26967	1.555481
F	2.734372	0.0	0.0
