15

C	-0.188338	0.086161	-1.50593
C	0.0	0.0	0.0
Br	0.004561	-1.982603	-2.189069
H	1.097287	0.0	0.0
H	-0.330981	0.988325	0.352977
N	-1.438597	0.550073	-1.938061
H	-2.159681	0.04912	-1.432607
H	-1.550092	0.414362	-2.935346
N	0.898645	0.737239	-2.129559
H	1.746302	0.547067	-1.555122
H	0.696006	1.731392	-2.142189
N	-0.7973	-1.020652	0.68027
H	-0.663378	-0.884138	1.677035
H	-0.375261	-1.916293	0.458784
F	2.757149	0.0	0.0
