16

C	0.0	0.0	0.0
C	-0.220833	0.014855	-1.559769
Br	1.937055	0.0	0.0
H	0.424067	-0.766469	-1.953559
C	-0.493527	1.091181	0.802787
N	-0.604665	2.039205	1.500243
N	-0.402113	-1.318257	0.583127
O	-0.357784	-2.286691	-0.180035
O	-0.515495	-1.377924	1.807548
N	0.405247	1.30462	-2.115455
O	1.143281	1.172455	-3.093637
O	0.021775	2.378586	-1.659754
N	-1.515001	-0.136604	-2.129545
H	-1.449848	-0.033727	-3.138623
H	-2.178518	0.503572	-1.717198
H	-1.912151	0.0	0.0
