16

C	0.0	0.0	0.0
C	-0.283117	-0.042315	-1.550273
Br	1.924491	0.0	0.0
H	-1.298611	-0.378806	-1.744292
C	-0.317654	1.231721	0.671162
N	-0.573946	2.216597	1.273486
N	-0.244443	-1.588115	0.774033
O	0.705874	-2.137995	1.299386
O	-1.367779	-2.019096	0.719696
N	0.514308	-1.20678	-2.230646
O	0.418597	-2.317238	-1.7094
O	1.013642	-0.979817	-3.326754
N	-0.057548	1.208541	-2.160985
H	-0.45157	1.226403	-3.098986
H	0.932062	1.426902	-2.195954
H	-1.64431	0.0	0.0
