16

C	0.0	0.0	0.0
C	-0.395458	0.027898	-1.544566
Br	1.933415	0.0	0.0
H	0.010448	-0.876571	-1.98779
C	-0.579962	1.105966	0.743466
N	-0.794964	2.028093	1.457863
N	-0.538037	-1.24893	0.57524
O	-0.385325	-2.258192	-0.167629
O	-0.708413	-1.306869	1.815581
N	0.236567	1.187433	-2.27939
O	0.073415	2.312597	-1.810287
O	0.732346	0.941883	-3.380517
N	-1.807187	0.109284	-1.799561
H	-2.163739	1.041757	-1.624098
H	-2.060055	-0.207581	-2.729626
H	-1.805563	0.0	0.0
