16

C	0.0	0.0	0.0
C	-0.258542	-0.045604	-1.578598
Br	1.920429	0.0	0.0
H	-1.290704	-0.329107	-1.711204
C	-0.351739	1.262649	0.590924
N	-0.598358	2.286158	1.132643
N	-0.238123	-1.535305	0.976915
O	-1.372558	-1.876645	1.118073
O	0.757313	-2.176667	1.253186
N	0.448235	-1.2191	-2.228825
O	1.2051	-1.038931	-3.180109
O	0.189735	-2.321073	-1.722954
N	-0.008713	1.159343	-2.302838
H	-0.674846	1.83341	-1.951474
H	0.917853	1.48292	-2.129535
H	-1.69347	0.0	0.0
