16

C	0.0	0.0	0.0
C	-0.459938	0.022832	-1.553062
Br	1.934593	0.0	0.0
H	0.024626	-0.82634	-2.008219
C	-0.473715	1.096241	0.817378
N	-0.750616	2.000997	1.534821
N	-0.611244	-1.217739	0.58367
O	-0.587341	-1.265643	1.827395
O	-0.659356	-2.228743	-0.174236
N	0.031029	1.2663	-2.234013
O	0.947547	1.133038	-3.043988
O	-0.566547	2.313248	-1.954328
N	-1.873653	-0.05882	-1.915093
H	-2.371877	0.68302	-1.416926
H	-2.215292	-0.951286	-1.514587
H	-1.747995	0.0	0.0
