16

C	0.0	0.0	0.0
C	-0.363939	0.038056	-1.515983
Br	1.928917	0.0	0.0
H	0.211826	0.778544	-2.091874
C	-0.475636	1.083287	0.788
N	-0.791584	1.922782	1.587862
N	-0.42463	-1.433843	0.73163
O	-1.615284	-1.814869	0.576762
O	0.391102	-2.073932	1.356053
N	-1.847295	0.497877	-1.402465
O	-2.744525	-0.274104	-1.883803
O	-1.993174	1.749955	-1.251503
N	-0.265054	-1.281021	-2.065451
H	-1.089995	-1.824621	-1.809855
H	-0.264862	-1.210394	-3.07138
H	-1.684258	0.0	0.0
