16

C	0.0	0.0	0.0
C	-0.435642	0.010453	-1.428929
Br	1.93826	0.0	0.0
H	-1.557372	-0.024732	-1.404232
C	-0.523256	1.231489	0.623743
N	-0.650302	2.195273	1.176219
N	-0.340695	-1.308148	0.819958
O	-0.525368	-1.08977	1.979643
O	-0.296119	-2.251707	0.177839
N	-0.185024	-1.358527	-2.18883
O	0.9472	-1.512487	-2.635358
O	-1.191103	-1.888757	-2.678288
N	-0.027492	1.162621	-2.171711
H	-0.606962	1.371419	-2.990816
H	0.928153	1.178515	-2.482794
H	-2.124059	0.0	0.0
