13
Coordinates from ORCA-job run
  C   -0.35817805132148     -0.01048637276040     -0.21675256895646
  C   0.90159899480917     -0.64342051563338      0.36069779016130
  Br  0.00833976960868      0.59080177350321     -2.08258487242952
  H   0.71946853476490     -0.82785721157313      1.42258763824744
  H   1.03714459342759     -1.61088268817058     -0.13261567086825
  N   -1.45785350047096     -0.87289770901167     -0.07652316382386
  H   -1.32347513314987     -1.73934032795865     -0.58114718803185
  H   -2.31504187594985     -0.42273898440263     -0.37534375492944
  N   -0.72966319142241      1.26408538609791      0.53966998057538
  O   -1.84034803889756      1.71775476296281      0.30035818150673
  O   0.09410758603427      1.71305035769884      1.32587022829361
  C   2.12363854085252      0.13571678517941      0.19625323916983
  N   3.14126177171502      0.70621474406825      0.07453016108509
