13
Coordinates from ORCA-job run
  C   -0.47407448730509      0.03318188674924     -0.40763895724534
  C   1.04951883259432     -0.19264995929301     -0.42438833696183
  Br  -1.04825568960421      0.26975076848177     -2.25083088552787
  H   1.26202422040828     -1.08370522331995     -1.02066095384473
  H   1.55132693437455      0.66056763887418     -0.88450504983846
  N   -1.28833938081451     -0.94247583637803      0.20841958822903
  H   -1.12718850057854     -0.99687407355901      1.20648593880525
  H   -1.18897120304878     -1.84491901006976     -0.23595036538126
  N   -0.68092377339628      1.36816260057162      0.33588105658130
  O   -1.31674729918287      1.32548535220352      1.38098918877196
  O   -0.13059984819180      2.34653733655130     -0.14965640997449
  C   1.52810338049694     -0.38983729800044      0.94205485754915
  N   1.86112681424799     -0.55422418281142      2.05580032883728
