13
Coordinates from ORCA-job run
  C   -0.40358696467234     -0.00292205255702     -0.34962949468962
  C   0.86833060099285     -0.61474089852010      0.26194803299327
  Br  -0.12331862635824      0.34928323125333     -2.22072293311081
  H   0.65588591278464     -0.84339873247916      1.31055025118081
  H   1.08343318653894     -1.54966242246088     -0.26152874632817
  N   -1.59882246958890     -0.76832423965546     -0.19082385046052
  H   -1.71904948301682     -1.04595746692175      0.77612786311862
  H   -1.60548997502495     -1.57281848931595     -0.80257978866005
  N   -0.65287925890610      1.30549710053186      0.42340530396241
  O   -0.92427257701735      1.09902413878284      1.60449868563430
  O   -0.56030838219317      2.38685549705310     -0.12914998636109
  C   2.02621573338942      0.27073505103807      0.18895067121563
  N   2.95386230307202      0.98842928325110      0.14295399150522
