13
Coordinates from ORCA-job run
  C   -0.33654717640189      0.12968347635437     -0.13574552253930
  C   1.11705198377780      0.19408770098476      0.32040647160904
  Br  -0.38634538389118      0.52966013720210     -2.10417100096737
  H   1.12639544416585      0.18413463670829      1.41429134487090
  H   1.58105260090666      1.11843087542880     -0.02082987879275
  N   -0.96850690999973     -1.04982579687614      0.25617045237408
  H   -1.95368089567313     -1.05009253440204      0.02468621032526
  H   -0.50693536507065     -1.87401842942253     -0.10757985709081
  N   -1.11634783577570      1.29019257642832      0.48035262425700
  O   -0.46884214132663      2.25027024443007      0.87774567414311
  O   -2.33266677049895      1.16491492669005      0.50710341637519
  C   1.84627180110282     -0.96521685814560     -0.18211775544385
  N   2.39910064868473     -1.92322095538045     -0.57431217912055
