13
Coordinates from ORCA-job run
  C   -0.34822521058687      0.05133716414365     -0.35012140359609
  C   1.12174529546838     -0.32975068578313     -0.24849275235907
  Br  -0.69888430748327      0.43376750218445     -2.29950781984527
  H   1.73624522220547      0.45510297802594     -0.68788039813615
  H   1.27981731233447     -1.24383983590012     -0.82806008106043
  N   -1.19608670332951     -0.87684368578586      0.24186799815212
  H   -2.16193626953446     -0.57642184937972      0.25121824478062
  H   -1.09456837260468     -1.80666636995874     -0.14033673934631
  N   -0.60228796298985      1.40171392447751      0.32148764463860
  O   0.35739297690282      2.14991413070424      0.44617985126731
  O   -1.75824241218912      1.62586700257416      0.65356942156877
  C   1.51545110213121     -0.55064033365524      1.14228665288723
  N   1.84957932967543     -0.73453994164717      2.25178938104867
