13
Coordinates from ORCA-job run
  C   -0.35458328516675     -0.09983117704052     -0.36774383148564
  C   0.95931226435841     -0.62395634964203      0.21255008576481
  Br  -0.15494079265741      0.37917993410575     -2.22055005697642
  H   1.24596756542646     -1.50708275397986     -0.36196735026664
  H   0.77503106644231     -0.92821274554792      1.24788660587211
  N   -1.36114911393337     -1.08491256492453     -0.23070572240262
  H   -2.21495733624033     -0.81808000287161     -0.70485931136050
  H   -1.55080907190803     -1.25263529106162      0.75119318817801
  N   -0.68506025767748      1.19004536347608      0.46262651788316
  O   -1.02065392040046      0.92420292337230      1.61569177653383
  O   -0.57005973377267      2.30115685650697     -0.02566387554104
  C   2.03087910606559      0.36589845760839      0.18969406546993
  N   2.90002350946374      1.15422734999858      0.18684790833100
