13
Coordinates from ORCA-job run
  C   -0.39272516470523     -0.05616657213556     -0.16004333736929
  C   0.98368986519371     -0.55317147058773      0.26286701119703
  Br  -0.34487794120549      0.42849557270217     -2.09509316656631
  H   1.12390458326295     -1.54322884583189     -0.18182203793559
  H   0.97208477852100     -0.66891461725311      1.34977793586540
  N   -1.38776448728678     -0.98094890545881      0.19546391124028
  H   -2.31246126517278     -0.61531186927002      0.00087901451946
  H   -1.25810134085299     -1.87071038599825     -0.26807189331392
  N   -0.75402107312249      1.24253873128903      0.55917036435614
  O   0.13589469684994      1.80805000771706      1.18087973574621
  O   -1.92117780907116      1.59613122497672      0.46120429841871
  C   2.10347414328937      0.29469368795957     -0.13051145451165
  N   3.05408101429992      0.91854344189085     -0.41870038164657
