13
Coordinates from ORCA-job run
  C   -0.37708876231150      0.17320770314592     -0.29530200335360
  C   1.05899125274307      0.07910602785914      0.26063664697853
  Br  -0.31666449602869      0.25862592510890     -2.21922875483638
  H   1.00175891184361      0.16504109243061      1.35088286367942
  H   1.67276840040418      0.89961204220591     -0.12155312939868
  N   -1.29625602195330     -0.84065397230345      0.09792144231288
  H   -1.30969649897101     -0.93850749604584      1.10623102045498
  H   -1.07532721536532     -1.72323129443555     -0.34446510741121
  N   -0.92100253568132      1.49114516933243      0.29121213263698
  O   -1.20381776263323      1.40147692121247      1.48291215236298
  O   -0.98319729343000      2.49364090319666     -0.40047363267331
  C   1.65322216258590     -1.20466203765006     -0.08947801441607
  N   2.09530985879760     -2.25680098405713     -0.36329561633651
