13
Coordinates from ORCA-job run
  C   -0.38076659580618      0.16391146241762     -0.28909250029684
  C   1.05429495706769      0.09272161211379      0.27491845838762
  Br  -0.29235101319567      0.34818478490804     -2.21803696019749
  H   0.99043663018006      0.17602899921362      1.36688056519038
  H   1.65301259587397      0.92534022071805     -0.09933568264454
  N   -1.27304316214860     -0.88635346786695      0.02778372936590
  H   -1.43259861588545     -0.95678793051337      1.02461758516406
  H   -0.95808639456096     -1.76601335543696     -0.35979179804085
  N   -0.93911614817518      1.46671093105512      0.31124130324511
  O   -1.79957920029693      1.34166317359400      1.17458368044518
  O   -0.41046451699440      2.50865742412053     -0.04958927285223
  C   1.66695017102415     -1.18367960280840     -0.06841124047153
  N   2.12031129291748     -2.23138425151507     -0.34076786729475
