13
Coordinates from ORCA-job run
  C   -0.39585590066469      0.14414237116101     -0.27978091678595
  C   1.05812197695517      0.11778488725178      0.23675679614687
  Br  -0.37718872146470      0.25788242255331     -2.21552105710507
  H   1.02916945782268      0.23165402096259      1.32753985775101
  H   1.62600738765669      0.95144410643194     -0.18114113954382
  N   -1.25831118296768     -0.90800238215107      0.10592225176733
  H   -0.94717251520001     -1.79465428408818     -0.26854093357407
  H   -1.37619936322730     -0.95051518699353      1.11007714620453
  N   -0.95607634862569      1.45906791955451      0.29256857417314
  O   -0.46309137365392      2.49602105430797     -0.12782978287712
  O   -1.77869685365251      1.35124601372903      1.19433850002368
  C   1.68606587304740     -1.15542608929893     -0.09123178726046
  N   2.15222756397455     -2.20164485342044     -0.34715750892014
