13
Coordinates from ORCA-job run
  C   -0.35190375843417      0.11206938300214     -0.49539427894663
  C   1.10375750537097     -0.29385734592938     -0.19715270830992
  Br  -0.47232936248935      0.49782290766688     -2.39718554297179
  H   1.34688293158839     -1.17683320240102     -0.79378532942282
  H   1.78474694895435      0.51218893628327     -0.47641622925593
  N   -1.38283762038427     -0.78577810694704     -0.14037522796755
  H   -1.28890314855918     -1.66904484383025     -0.62265933094636
  H   -1.44779291063568     -0.91215518266562      0.86214748682700
  N   -0.57512279254148      1.42737552614282      0.27816447268208
  O   -1.42645904508846      1.41303789329506      1.15756948261235
  O   0.16946749834159      2.35436230545095     -0.00811003670807
  C   1.24103363330856     -0.60907175899888      1.22300463866369
  N   1.29846012056866     -0.87011651106892      2.36619260374395
