13
Coordinates from ORCA-job run
  C   -0.35521345933736     -0.09337331224962     -0.29128376189774
  C   1.00035478963473     -0.56257290265257      0.22561090613783
  Br  -0.24154076087090      0.43050993462653     -2.15347281765741
  H   0.92079028014119     -0.75214079342642      1.30102689176000
  H   1.20728321161676     -1.51044337091764     -0.27690509394814
  N   -1.31632933572076     -1.12170954265679     -0.15326037294481
  H   -2.22363439234158     -0.81484431101940     -0.48318326582492
  H   -1.38744909818384     -1.42239850135637      0.81326553155146
  N   -0.79582792516357      1.18813236131127      0.47408377374648
  O   0.00119730852684      1.68592253479594      1.26219988385431
  O   -1.94215769602563      1.56059891552102      0.26122524359728
  C   2.10441467219161      0.35975113792295     -0.01335714530171
  N   3.02911240553251      1.05356785010110     -0.21194977307262
