13
Coordinates from ORCA-job run
  C   -0.29865432684919     -0.04302082993499     -0.48890362355297
  C   1.16571583123378     -0.35197268710447     -0.19377030001962
  Br  -0.54201637412905      0.15127302234891     -2.40916260848942
  H   1.41399246819281     -1.29656236625117     -0.68204201864420
  H   1.80087191211820      0.43803456540947     -0.59216847730676
  N   -1.16380315760436     -1.02957073585224      0.00334633242204
  H   -2.13319094208310     -0.79374731453715     -0.16633458851607
  H   -1.02054881723959     -1.17939209575595      0.99665256347398
  N   -0.60705936265034      1.38441138395305      0.07908488192874
  O   0.28321901604299      2.22103199723603      0.00848006166259
  O   -1.73084995002344      1.54511974737045      0.53759064891130
  C   1.36517673388751     -0.47104133443724      1.24965703320130
  N   1.46714696910376     -0.57456335244470      2.41457009492907
