13
Coordinates from ORCA-job run
  C   -0.46207855324004      0.02002732711164     -0.42046118914687
  C   1.04429448232073     -0.29734973321701     -0.37979246711983
  Br  -0.98669142897958      0.12179581039898     -2.29005261591803
  H   1.60665821811163      0.48101009861624     -0.89878343560122
  H   1.21386736448885     -1.24789674484877     -0.89192391772341
  N   -1.34709193996330     -0.84442784037162      0.26122042031371
  H   -1.20569313964601     -0.81841722674444      1.26340300667578
  H   -1.29576406031067     -1.78778700146508     -0.09796514833313
  N   -0.59931248036499      1.42732630982405      0.19538648140818
  O   0.01561321263015      2.32390643703873     -0.36469881376648
  O   -1.25124660779886      1.51728292677670      1.22742478366891
  C   1.48323983209947     -0.40376426309854      1.00988976861451
  N   1.78420510065263     -0.49070610002086      2.14135312692789
