12

C	0.0	0.0	0.0
C	-0.472844	-0.13778	-1.456179
Br	1.958673	0.0	0.0
H	-1.569393	-0.186234	-1.404223
H	-0.29745	-0.90128	0.534923
H	-0.09186	-1.058083	-1.905363
N	-0.489495	1.136346	0.714057
H	-0.328887	1.97828	0.170722
H	-1.501343	1.001187	0.794472
C	-0.079128	1.000044	-2.277205
N	0.221499	1.933739	-2.921337
Cl	-3.54164	0.0	0.0
