12

C	0.0	0.0	0.0
C	-0.233637	-0.099337	-1.534303
Br	1.951563	0.0	0.0
H	0.376258	-0.930674	-1.897242
H	-0.292478	-0.922324	0.509292
H	0.205979	0.814215	-1.945288
N	-0.524126	1.216137	0.530729
H	-0.385234	1.222369	1.536362
H	-1.541491	1.132311	0.381744
C	-1.529442	-0.271212	-2.20643
N	-2.292593	-0.452651	-3.082832
Cl	-3.437022	0.0	0.0
