12

C	0.0	0.0	0.0
C	-0.494629	-0.236685	-1.423035
Br	1.95401	0.0	0.0
H	-0.156671	-1.213472	-1.778454
H	-0.265103	-0.877618	0.600463
H	-1.593781	-0.24691	-1.374578
N	-0.497333	1.254372	0.48371
H	-1.519382	1.190824	0.411007
H	-0.266187	1.353721	1.465955
C	-0.047991	0.785855	-2.365632
N	0.291126	1.572855	-3.167329
Cl	-3.559872	0.0	0.0
