12

C	0.0	0.0	0.0
C	-0.214243	0.176054	-1.53975
Br	1.962252	0.0	0.0
H	0.214654	1.151946	-1.794183
H	-0.321354	-0.988144	0.325646
H	0.411849	-0.564052	-2.045563
N	-0.532008	0.980653	0.871945
H	-0.412036	1.902717	0.46617
H	-1.541859	0.786059	0.911227
C	-1.509054	0.101142	-2.230005
N	-2.281687	0.057833	-3.115625
Cl	-3.445012	0.0	0.0
