12

C	0.0	0.0	0.0
C	-0.509855	0.451146	-1.361044
Br	2.02077	0.0	0.0
H	-1.607613	0.349924	-1.282388
H	-0.265051	-1.043024	0.158892
H	-0.118439	-0.183215	-2.159069
N	-0.514718	0.790647	1.015759
H	-0.51512	0.397679	1.939683
H	-0.280977	1.769613	0.982784
C	-0.167817	1.843561	-1.63269
N	0.091457	2.970379	-1.83709
Cl	-3.718711	0.0	0.0
