12

C	0.0	0.0	0.0
C	-0.470696	-0.112416	-1.458867
Br	1.958499	0.0	0.0
H	-0.079515	-1.018878	-1.929065
H	-0.302734	-0.910345	0.518034
H	-1.567474	-0.172646	-1.407032
N	-0.489508	1.125801	0.731639
H	-0.327426	1.975175	0.199949
H	-1.50221	0.987839	0.805156
C	-0.085037	1.047205	-2.255324
N	0.206444	1.993476	-2.886203
Cl	-3.535407	0.0	0.0
