14

C	-0.52873	-0.009736	-1.444589
C	0.0	0.0	0.0
Br	0.092527	1.545197	-2.454624
H	1.095681	0.0	0.0
H	-1.620368	0.06848	-1.442536
C	-0.160641	-1.213511	-2.1836
N	0.066763	-2.192429	-2.79363
C	-0.495706	-1.217927	0.641457
N	-0.934683	-2.16879	1.175758
C	-0.470286	1.225473	0.786219
H	-0.137653	1.131931	1.821168
H	-0.015331	2.123883	0.369855
H	-1.560649	1.32645	0.772207
Cl	3.281965	0.0	0.0
