14

C	-0.529293	-0.010608	-1.443565
C	0.0	0.0	0.0
Br	0.091226	1.543329	-2.456185
H	1.095642	0.0	0.0
H	-1.620207	0.073881	-1.441542
C	-0.169324	-1.217453	-2.180447
N	0.051071	-2.198184	-2.78874
C	-0.496003	-1.215216	0.645807
N	-0.934844	-2.162055	1.187015
C	-0.46995	1.228672	0.781528
H	-0.133779	1.140646	1.815725
H	-1.560389	1.327616	0.770598
H	-0.017915	2.125666	0.359096
Cl	3.282685	0.0	0.0
