18

C	-0.514325	-0.030879	-1.43858
C	0.0	0.0	0.0
Cl	0.103	1.442025	-2.286432
H	1.087491	0.0	0.0
C	0.13173	-1.210486	-2.161596
H	-0.068581	-1.129491	-3.233093
H	1.212072	-1.189422	-1.988903
H	-0.282909	-2.14541	-1.786909
N	-1.957555	0.05646	-1.479331
H	-2.26244	-0.016875	-2.444433
H	-2.318766	-0.73714	-0.960992
N	-0.38832	-1.163422	0.794492
O	-1.136679	-2.044296	0.328807
O	0.158062	-1.232117	1.901009
N	-0.461252	1.189635	0.761305
O	0.182017	2.224376	0.602106
O	-1.451046	1.067985	1.489347
H	2.496823	0.0	0.0
