18

C	-0.279902	-0.059287	-1.500156
C	0.0	0.0	0.0
Cl	-2.048704	-0.252689	-1.849503
H	1.090579	0.0	0.0
C	0.193758	1.222779	-2.15622
H	0.144681	1.070299	-3.234889
H	-0.414007	2.079057	-1.875891
H	1.226956	1.39844	-1.846844
N	0.44238	-1.15553	-2.101979
H	1.414568	-1.019345	-1.807907
H	0.121962	-2.012891	-1.667656
N	-0.377075	-1.162819	0.808096
O	-0.795914	-2.188575	0.256179
O	-0.117604	-1.073526	2.010761
N	-0.518569	1.208243	0.666677
O	-1.591656	1.138614	1.270793
O	0.154638	2.232621	0.537101
H	2.509355	0.0	0.0
