14

C	-0.365567	0.087277	-1.485113
C	0.0	0.0	0.0
Br	-0.180849	-1.80054	-2.314798
H	1.102901	0.0	0.0
H	-1.425664	0.268846	-1.65707
N	0.459194	1.035334	-2.086716
H	0.316515	1.132005	-3.080485
H	1.440591	0.885703	-1.860691
N	-0.623204	-1.125023	0.698321
H	-0.184215	-1.967772	0.342462
H	-0.349813	-1.053868	1.673387
C	-0.462435	1.247048	0.620377
N	-0.831983	2.229511	1.147179
Br	3.500955	0.0	0.0
