14

C	-0.374851	0.097645	-1.489526
C	0.0	0.0	0.0
Br	-0.163334	-1.724172	-2.348657
H	1.095702	0.0	0.0
H	-1.435747	0.293732	-1.651447
N	0.427685	1.100562	-2.061433
H	0.277383	1.205613	-3.054648
H	1.413669	0.940901	-1.860876
N	-0.497034	-1.171631	0.699638
H	0.234918	-1.514284	1.30699
H	-1.305182	-0.945929	1.26175
C	-0.450002	1.248752	0.634451
N	-0.879809	2.193793	1.185453
Br	3.472189	0.0	0.0
