14

C	-0.552445	-0.014899	-1.432368
C	0.0	0.0	0.0
Br	-0.054064	1.622454	-2.361136
H	1.098496	0.0	0.0
H	-0.042933	-0.825126	-1.956496
N	-1.982669	-0.200437	-1.539685
H	-2.450844	0.57971	-1.086199
H	-2.193082	-1.045785	-1.01489
N	-0.412964	-1.282806	0.615455
H	0.429767	-1.735106	0.947891
H	-1.014089	-1.127314	1.415164
C	-0.532017	1.135252	0.753761
N	-1.054597	1.987685	1.371909
Br	3.462448	0.0	0.0
