14

C	-0.502156	0.088916	-1.427451
C	0.0	0.0	0.0
Br	-0.323154	-1.802517	-2.293638
H	1.099843	0.0	0.0
H	-1.575672	0.173844	-1.477997
N	0.173864	1.059006	-2.107415
H	-0.258016	1.5794	-2.8485
H	1.163857	1.132312	-1.92358
N	-0.600754	-1.117749	0.768819
H	-0.19072	-1.951915	0.373417
H	-0.216738	-0.999111	1.702653
C	-0.447396	1.253414	0.598697
N	-0.824001	2.242252	1.1018
Br	3.495798	0.0	0.0
