14

C	-0.315885	0.096511	-1.514497
C	0.0	0.0	0.0
Br	-0.245432	-1.825623	-2.312411
H	1.097057	0.0	0.0
H	-1.35525	0.342693	-1.738198
N	0.577831	0.985924	-2.093415
H	1.544426	0.802562	-1.827013
H	0.469318	1.112793	-3.087412
N	-0.490182	-1.121792	0.769011
H	-1.424408	-1.379841	0.472506
H	0.12188	-1.908081	0.594298
C	-0.492438	1.252944	0.589295
N	-0.961722	2.225392	1.051396
Br	3.485191	0.0	0.0
