14

C	-0.435993	-0.017844	-1.453592
C	0.0	0.0	0.0
Br	-2.571227	0.144661	-1.436269
H	1.095975	0.0	0.0
H	-0.198721	0.898785	-1.988996
N	0.002648	-1.15621	-2.077824
H	-0.111515	-1.976192	-1.498589
H	-0.27453	-1.272827	-3.038084
N	-0.405546	-1.24333	0.647566
H	0.241091	-1.440071	1.402126
H	-1.345778	-1.164474	1.016566
C	-0.448812	1.213249	0.695044
N	-0.784275	2.160831	1.303433
Br	3.44921	0.0	0.0
