15

C	-0.648756	-0.074995	-1.371087
C	0.0	0.0	0.0
Br	0.127902	-1.606228	-2.318354
H	1.089218	0.0	0.0
H	-1.709327	-0.350126	-1.277678
N	-0.398004	1.098543	-2.183607
H	-0.965725	1.848833	-1.810124
H	-0.68482	0.910684	-3.134895
N	-0.378606	-1.12269	0.821484
H	0.381516	-1.297571	1.464756
H	-1.239405	-0.976529	1.333827
N	-0.45981	1.261516	0.690518
O	-1.447063	1.881157	0.253766
O	0.119229	1.573068	1.727272
F	2.558266	0.0	0.0
