15

C	-0.430413	0.000155	-1.425448
C	0.0	0.0	0.0
Br	-2.672354	-0.064153	-1.397591
H	1.092572	0.0	0.0
H	-0.352297	0.952765	-1.934428
N	0.045803	-1.065831	-2.136151
H	-0.314091	-1.16001	-3.071582
H	0.051493	-1.928515	-1.612217
N	-0.386877	-1.124672	0.756535
H	-1.263748	-1.558841	0.513726
H	0.380846	-1.744835	0.949991
N	-0.426662	1.295522	0.632761
O	-0.28815	2.309503	-0.055928
O	-0.817584	1.299273	1.793376
F	2.511511	0.0	0.0
