15

C	-0.503447	-0.043271	-1.42948
C	0.0	0.0	0.0
Br	0.096798	1.632181	-2.3898
H	1.089204	0.0	0.0
H	0.080229	-0.808262	-1.940976
N	-1.896478	-0.28732	-1.573167
H	-2.405781	0.444717	-1.093298
H	-2.164597	-0.317979	-2.54646
N	-0.46225	-1.123692	0.771079
H	-1.256261	-1.573284	0.336262
H	0.312585	-1.763256	0.879442
N	-0.511619	1.242906	0.684348
O	-1.717681	1.512443	0.574438
O	0.270263	1.903592	1.353339
F	2.58956	0.0	0.0
