18

C	0.0	0.0	0.0
C	-0.541293	-0.141738	-1.440488
Br	1.964229	0.0	0.0
H	-1.619988	-0.337836	-1.270865
N	-0.54475	1.249248	0.462971
H	-1.578233	1.075861	0.387601
H	-0.344236	1.32295	1.4571
C	-0.404945	-1.177465	0.880839
H	-0.085228	-0.97683	1.90818
H	0.025368	-2.123176	0.554339
H	-1.500959	-1.215784	0.841477
N	0.039157	-1.347991	-2.116926
O	-0.407463	-2.450347	-1.792681
O	0.930951	-1.178074	-2.94486
N	-0.386577	0.988803	-2.300596
H	-1.064909	1.674526	-1.992701
H	0.537723	1.387544	-2.176536
H	-3.067094	0.0	0.0
