18

C	0.0	0.0	0.0
C	-0.49258	0.011566	-1.448854
Br	2.034372	0.0	0.0
H	-0.245248	-0.934274	-1.936559
N	-0.476283	1.151714	0.667545
H	-0.025149	1.266099	1.566555
H	-0.304893	1.949943	0.04282
C	-0.385674	-1.271391	0.735705
H	-0.00446	-2.155769	0.219988
H	0.023627	-1.261022	1.75033
H	-1.478225	-1.302417	0.788655
N	0.003436	1.063889	-2.301477
O	-0.241143	2.29847	-1.805796
O	0.959344	0.790903	-3.142624
N	-1.9685	0.206586	-1.360633
H	-2.395781	-0.194139	-2.195448
H	-2.027169	1.231334	-1.444279
H	-2.88882	0.0	0.0
