18

C	0.0	0.0	0.0
C	-0.468924	-0.048123	-1.460814
Br	1.969321	0.0	0.0
H	-0.234621	-1.027785	-1.888773
N	-0.515451	1.189868	0.593345
H	-0.337717	1.924734	-0.127236
H	-0.034733	1.393286	1.461451
C	-0.424484	-1.238586	0.772152
H	-0.01285	-2.144038	0.321351
H	-1.5142	-1.288968	0.759614
H	-0.0816	-1.180736	1.809138
N	0.200495	0.956132	-2.320231
O	0.003976	0.617712	-3.621543
O	-0.207218	2.228256	-1.889972
N	-1.96034	0.140814	-1.418828
H	-2.282275	-0.179539	-2.326635
H	-1.980626	1.165148	-1.492456
H	-3.107037	0.0	0.0
