18

C	0.0	0.0	0.0
C	-0.542716	-0.038867	-1.432184
Br	1.967553	0.0	0.0
H	-1.635467	-0.198359	-1.272891
N	-0.497139	1.22188	0.569211
H	-0.392843	1.143	1.576424
H	-1.518753	1.174231	0.387271
C	-0.413719	-1.21523	0.821125
H	-1.510539	-1.235684	0.773132
H	0.008315	-2.152045	0.463212
H	-0.094859	-1.054097	1.855063
N	-0.02753	-1.270017	-2.181482
O	-0.427585	-2.377541	-1.821051
O	0.719711	-1.082451	-3.147672
N	-0.293743	1.155158	-2.150899
H	0.698782	1.340045	-2.199803
H	-0.658647	1.078828	-3.090157
H	-3.07894	0.0	0.0
