18

C	0.0	0.0	0.0
C	-0.277063	-0.00151	-1.535286
Br	2.031704	0.0	0.0
H	0.312005	-0.799844	-1.989102
N	-0.564864	1.042659	0.770251
H	-1.567681	0.818549	0.850543
H	-0.489452	1.918386	0.266864
C	-0.434452	-1.338148	0.565919
H	-0.109106	-1.406242	1.605326
H	-0.010082	-2.169466	-0.000876
H	-1.529914	-1.365234	0.525868
N	0.325622	1.245952	-2.190821
O	1.045395	1.077634	-3.174528
O	-0.005953	2.348749	-1.752849
N	-1.643177	-0.054619	-1.900442
H	-2.340085	0.069972	-1.101044
H	-1.851114	-0.939684	-2.346082
H	-3.313519	0.0	0.0
