18

C	0.0	0.0	0.0
C	-0.6012	0.007649	-1.38964
Br	2.057442	0.0	0.0
H	-1.720295	-0.057292	-1.122343
N	-0.424144	1.188827	0.593548
H	-0.113325	1.304666	1.544174
H	-0.277766	1.996013	0.006514
C	-0.42657	-1.174987	0.845829
H	-1.527746	-1.16772	0.786688
H	-0.015775	-2.117281	0.494592
H	-0.109377	-1.008275	1.879191
N	-0.2251	-1.223456	-2.171233
O	0.464033	-1.079799	-3.189462
O	-0.659567	-2.307237	-1.780872
N	-0.28829	1.209384	-2.092869
H	0.632679	1.125335	-2.508949
H	-0.964859	1.354324	-2.831413
H	-3.142333	0.0	0.0
