18

C	0.0	0.0	0.0
C	-0.554336	0.045153	-1.428809
Br	1.986972	0.0	0.0
H	-0.005894	-0.640487	-2.07825
N	-0.473474	1.153049	0.686904
H	-0.056374	1.209871	1.608912
H	-0.192154	1.962984	0.135513
C	-0.406413	-1.26593	0.734891
H	-0.094644	-2.157391	0.184164
H	-1.493575	-1.251227	0.853465
H	0.063852	-1.295356	1.721271
N	-0.491782	1.391718	-2.052489
O	-1.215551	1.382695	-3.190842
O	0.670252	1.994109	-1.95105
N	-1.995001	-0.32171	-1.378908
H	-2.11083	-1.307283	-1.601652
H	-2.320542	0.242352	-2.189953
H	-2.974086	0.0	0.0
