13
Coordinates from ORCA-job run
  C   -0.61789090284346     -0.25951127374918     -0.34348735246237
  C   0.73740347762059      0.47367742886937     -0.32566913056455
  F   -1.05259782878330     -0.31472936026533     -1.62186968444672
  H   0.55171527063653      1.44621856832288     -0.79994552626901
  N   -1.60640398986095      0.62985929903940      0.43250000240926
  O   -1.80282558497999      1.71907647192127     -0.08656024272605
  O   -2.06911798678762      0.18750734257229      1.47323544612388
  C   -0.56575164070262     -1.59090161986399      0.24943492487134
  N   -0.48607604385104     -2.67839451757081      0.68875174600886
  C   1.71677358877124     -0.27361657097870     -1.11612370770006
  N   2.49012348647473     -0.87088475899373     -1.76749181902502
  C   1.18498212862076      0.67967656939183      1.05260873456690
  N   1.51766602568511      0.85202242130469      2.16561660921353
