16
Coordinates from ORCA-job run
  C   -0.74524373082832      0.30401268783189     -0.13810083991207
  C   0.68096151847520     -0.24508668054414     -0.39235138140154
  Cl  -1.12701116228549      1.46291130050291     -1.45970376929791
  H   0.66093985418505     -0.68206794783924     -1.39807835609666
  C   -0.77858556507157      1.03471059310166      1.12932727502533
  N   -0.80061069294133      1.59368600582922      2.16285855470535
  C   -1.80106859274105     -0.79586037566829     -0.14957751468908
  H   -2.79445452681220     -0.35934278486354     -0.04217085225976
  H   -1.75367186151089     -1.33479434501206     -1.09823726276916
  H   -1.62752423903023     -1.49282068230012      0.67242510399680
  C   0.94832003541303     -1.32479176174983      0.56176990597882
  N   1.16999663073813     -2.17869051619776      1.33723531899894
  C   1.78417360598699      0.81272251858487     -0.31054213682358
  H   1.60541419739757      1.60580123956078     -1.03616919319373
  H   1.82804413782736      1.24687778639010      0.68992634633196
  H   2.74932039119775      0.35273296237356     -0.52861119859371
