16
Coordinates from ORCA-job run
  C   -0.80763863483391      0.23798814252776     -0.41848229981357
  C   0.71539364664331      0.04318616895770     -0.62945498296463
  Cl  -1.62376000452323     -0.05554623385329     -1.99219239262632
  H   1.00091866288092      0.67526793829290     -1.47759997141184
  C   -1.05001034397559      1.63316242812006     -0.04734426221495
  N   -1.22362189293030      2.74735825503998      0.28367826271312
  C   -1.40316675302300     -0.69966609912949      0.62447744852985
  H   -0.95564317366563     -0.51289601426607      1.60264885754615
  H   -1.22472718043356     -1.73573110913609      0.33265842460601
  H   -2.47836901896269     -0.53397941588186      0.69734098506128
  C   0.98200417837496     -1.34790985951452     -1.00117927893863
  N   1.21604159754540     -2.47011525083605     -1.25511284236965
  C   1.54966415625715      0.43234399743465      0.59635908526189
  H   1.34417523627676     -0.22308964959221      1.44344101477683
  H   1.34884645094457      1.46572332073392      0.88412579704784
  H   2.60989307342481      0.34390338110262      0.35363615479662
