16
Coordinates from ORCA-job run
  C   -0.79225126529129      0.01798180688308     -0.27302942186621
  C   0.73571423498940      0.27659667145624     -0.25844314659275
  Cl  -1.13465958227359     -1.53965602530361     -1.09674206252583
  H   0.86159308339985      1.27763761557646      0.17506167655317
  C   -1.43812680052133      1.08277760803475     -1.04409718067955
  N   -1.95315879980553      1.96818196956720     -1.62012856317167
  C   -1.38298598304181     -0.02760580976579      1.13248791287944
  H   -1.13454546776454      0.89172569105218      1.66974995853222
  H   -2.46790397567328     -0.11816373818843      1.07355900395358
  H   -0.99465353487688     -0.88673633063823      1.67853658828878
  C   1.25049718796755      0.33533512269544     -1.62859945467833
  N   1.69459062946751      0.37466589594171     -2.71497256321765
  C   1.53348815967309     -0.73028505188744      0.57376533847447
  H   1.26235253169238     -0.66466790091959      1.62782011240998
  H   2.59823764136311     -0.50930964879370      0.48516013632623
  H   1.36381194069535     -1.74747787571027      0.21987166531410
