16
Coordinates from ORCA-job run
  C   -0.74286254089202      0.29868224624026     -0.16160973325358
  C   0.69735586936707     -0.23261206708980     -0.36955807447626
  Cl  -1.08590617345582      1.47353622094382     -1.47970000921056
  H   0.71934636874449     -0.65486774753552     -1.38148218358626
  C   -0.83233675324806      1.00982053440213      1.11425181637276
  N   -0.90076672802071      1.55309169718498      2.15412376289673
  C   -1.78599761116724     -0.81126173226321     -0.22921578952653
  H   -1.69596125139506     -1.33681944105586     -1.18232070446569
  H   -1.63741522807872     -1.51762358745676      0.58972604291600
  H   -2.78723357266289     -0.38591385905187     -0.15497792846435
  C   0.94093223549302     -1.32325806034259      0.57846084060200
  N   1.14792648005941     -2.18511149495342      1.34917602218969
  C   1.78583589159934      0.83449742084202     -0.23146063698849
  H   1.78420227741790      1.25866103850886      0.77426182209517
  H   1.62940589055354      1.63349608196814     -0.95576735649124
  H   2.76347484568574      0.38568274965880     -0.41390789060940
