16
Coordinates from ORCA-job run
  C   -0.74227717481887      0.30342886889020     -0.15769644978681
  C   0.69328541290965     -0.23773324978957     -0.37329490489405
  Cl  -1.08623487197388      1.47644160956594     -1.47724002366138
  H   0.70703514840025     -0.66149132743950     -1.38478951354882
  C   -0.81716194192688      1.01917923724643      1.11641863117807
  N   -0.86926513897828      1.56565652693003      2.15553175088011
  C   -1.79317052599656     -0.79955425902602     -0.21533963639798
  H   -1.64258750530858     -1.50622693568955      0.60292163572305
  H   -1.71450404282512     -1.32649451396843     -1.16871878661221
  H   -2.79100388748827     -0.36756300452412     -0.13349656191756
  C   0.93486819604652     -1.32983143706385      0.57374930219175
  N   1.13877223846497     -2.19560347035496      1.34085425046611
  C   1.78948290667697      0.82241042281974     -0.24269674072999
  H   1.63053915954104      1.62465629816671     -0.96288149257257
  H   2.76262914625342      0.36853917866771     -0.43667366331929
  H   1.80059288102362      1.24318605556926      0.76435220300156
