15

C	-0.548191	0.050397	-1.43343
C	0.0	0.0	0.0
F	-1.968519	0.104391	-1.315245
H	1.091573	0.0	0.0
N	-0.021224	1.085271	-2.212703
H	-0.391888	1.070313	-3.151896
H	-0.130631	1.982138	-1.76279
C	-0.269963	-1.237245	-2.104083
N	-0.093753	-2.236727	-2.69421
C	-0.496257	-1.188153	0.681836
N	-0.894446	-2.166532	1.19518
N	-0.397928	1.204955	0.811368
O	-0.491766	1.048453	2.021847
O	-0.528717	2.278461	0.226415
Cl	3.115776	0.0	0.0
