15

C	-0.311706	-0.018928	-1.501811
C	0.0	0.0	0.0
F	0.09105	1.216873	-2.01886
H	1.095809	0.0	0.0
N	0.424034	-1.101872	-2.027884
H	1.405392	-1.01128	-1.758189
H	0.33378	-1.154533	-3.034144
C	-1.745422	-0.163669	-1.830354
N	-2.875389	-0.314169	-2.110239
C	-0.516955	-1.175096	0.678909
N	-0.959169	-2.107865	1.239711
N	-0.513519	1.215546	0.710591
O	-1.355675	1.906308	0.142807
O	-0.06169	1.400792	1.833687
Cl	3.161301	0.0	0.0
