15

C	-0.317147	-0.050112	-1.506802
C	0.0	0.0	0.0
F	-0.117651	1.264632	-1.976996
H	1.092749	0.0	0.0
N	0.553727	-0.995814	-2.063154
H	1.517564	-0.830056	-1.765287
H	0.471262	-1.054111	-3.068704
C	-1.720117	-0.37422	-1.840729
N	-2.81578	-0.660909	-2.150717
C	-0.533045	-1.152024	0.704557
N	-0.964539	-2.075812	1.287627
N	-0.569075	1.253801	0.590388
O	-1.796921	1.33582	0.586386
O	0.213733	2.094719	1.009574
Cl	3.209596	0.0	0.0
