15

C	-0.532701	0.000102	-1.439643
C	0.0	0.0	0.0
F	-1.950541	-0.098979	-1.355902
H	1.091823	0.0	0.0
N	-0.103218	1.089135	-2.207028
H	-0.392335	1.964037	-1.796008
H	-0.384373	1.000185	-3.172815
C	-0.095635	-1.249014	-2.093875
N	0.211272	-2.235037	-2.652055
C	-0.478396	-1.179576	0.711613
N	-0.862873	-2.151554	1.246543
N	-0.41605	1.211012	0.794449
O	-0.830395	2.20482	0.198896
O	-0.26308	1.129818	2.005385
Cl	3.113684	0.0	0.0
