15

C	-0.500384	0.026189	-1.454593
C	0.0	0.0	0.0
F	0.079177	-1.05821	-2.080847
H	1.091442	0.0	0.0
N	-1.915239	-0.105176	-1.522754
H	-2.376391	0.272891	-0.70504
H	-2.300367	0.285866	-2.371907
C	-0.010607	1.236713	-2.159312
N	0.22755	2.195442	-2.794996
C	-0.517806	-1.173847	0.688048
N	-0.93226	-2.100476	1.278847
N	-0.49327	1.243713	0.687825
O	0.27008	2.198204	0.725524
O	-1.651503	1.232267	1.11935
Cl	3.160277	0.0	0.0
