20

C	-0.535904	-0.040814	-1.434043
C	0.0	0.0	0.0
Cl	0.381578	-1.215339	-2.408618
H	1.094664	0.0	0.0
C	-2.011696	-0.36796	-1.560908
H	-2.335625	-0.248282	-2.595322
H	-2.61153	0.287636	-0.930549
H	-2.169534	-1.404098	-1.263916
N	-0.290687	1.338194	-2.050564
O	-1.26671	2.091733	-2.094963
O	0.84858	1.632182	-2.377695
C	-0.43116	-1.247508	0.77047
H	-1.50018	-1.241917	1.00982
H	-0.192688	-2.159903	0.219637
H	0.13012	-1.280807	1.706954
C	-0.439627	1.264689	0.738552
H	-0.065818	1.204085	1.7634
H	-1.527752	1.383531	0.775251
H	-0.002969	2.161255	0.29499
Cl	3.489564	0.0	0.0
