20

C	-0.384032	0.099776	-1.481038
C	0.0	0.0	0.0
Cl	-2.113942	0.541967	-1.705831
H	1.096147	0.0	0.0
C	0.490546	1.07434	-2.246135
H	0.262999	2.091161	-1.921654
H	1.539744	0.853249	-2.030801
H	0.296034	1.001816	-3.318795
N	-0.207727	-1.292121	-2.101884
O	0.92044	-1.543213	-2.515584
O	-1.148395	-2.078155	-2.084804
C	-0.512052	-1.260362	0.685369
H	-0.045606	-2.159038	0.279159
H	-0.251031	-1.21211	1.745207
H	-1.598128	-1.358994	0.595442
C	-0.4282	1.244934	0.776186
H	0.07622	1.228152	1.745034
H	-0.130537	2.168195	0.275433
H	-1.508579	1.269507	0.942869
Cl	3.463563	0.0	0.0
