20

C	-0.487538	-0.008408	-1.454223
C	0.0	0.0	0.0
Cl	0.413023	-1.220898	-2.401453
H	1.094681	0.0	0.0
C	-1.969205	-0.259046	-1.650814
H	-2.232007	-0.138354	-2.702181
H	-2.564185	0.439384	-1.063292
H	-2.197681	-1.280607	-1.348664
N	-0.137382	1.3566	-2.052775
O	1.041589	1.607665	-2.247308
O	-1.07731	2.13921	-2.22237
C	-0.46587	-1.252415	0.736602
H	0.051419	-1.299963	1.697631
H	-1.544613	-1.242518	0.928476
H	-0.209908	-2.159585	0.185681
C	-0.449279	1.261484	0.737081
H	0.00042	2.159466	0.309511
H	-1.537842	1.382861	0.750795
H	-0.100417	1.193971	1.770358
Cl	3.518558	0.0	0.0
