20

C	-0.388122	0.078805	-1.478701
C	0.0	0.0	0.0
Cl	-2.14063	0.422397	-1.699877
H	1.096067	0.0	0.0
C	0.424139	1.102372	-2.24529
H	1.482135	0.952103	-2.021192
H	0.246971	1.005698	-3.318181
H	0.123802	2.102658	-1.934297
N	-0.136196	-1.298504	-2.102594
O	-1.026325	-2.141968	-2.061279
O	0.992843	-1.476715	-2.548593
C	-0.504545	-1.251586	0.706847
H	-1.591487	-1.352371	0.629887
H	-0.041684	-2.155981	0.309676
H	-0.232011	-1.187125	1.763275
C	-0.428962	1.255366	0.758516
H	-1.513866	1.303472	0.888279
H	-0.091509	2.16963	0.267196
H	0.040737	1.231389	1.744944
Cl	3.457816	0.0	0.0
