20

C	-0.357083	-0.067823	-1.491829
C	0.0	0.0	0.0
Cl	-0.157818	1.514188	-2.300859
H	1.096435	0.0	0.0
C	0.493577	-1.070883	-2.241348
H	1.535695	-0.771977	-2.107425
H	0.361766	-2.071825	-1.836359
H	0.2307	-1.082847	-3.300245
N	-1.838559	-0.424985	-1.611808
O	-2.666079	0.429467	-1.308403
O	-2.111433	-1.586449	-1.914772
C	-0.468975	-1.263791	0.725246
H	-0.149966	-2.181246	0.229842
H	-1.559113	-1.288552	0.834689
H	-0.026687	-1.266121	1.723898
C	-0.490023	1.235393	0.745526
H	-0.095507	2.151474	0.307872
H	-0.120246	1.17777	1.772668
H	-1.581442	1.295936	0.768356
Cl	3.464337	0.0	0.0
