11
Coordinates from ORCA-job run
  C   -0.45841510650512      0.13597821132065      0.41123637549666
  C   0.77657440855399     -0.07429015252007     -0.47024334882139
  H   -0.50062092887787     -0.65916724854418      1.16835428387554
  H   0.67503528808632     -0.99889999371386     -1.04690839878705
  H   -0.35050611596879      1.08411027220473      0.94294825916403
  H   0.84795361021894      0.74773119263063     -1.18589815724420
  N   -1.63590896153886      0.21884676165104     -0.44752274343603
  H   -2.41515509584288      0.60721189563853      0.06802970541116
  H   -1.90981488740577     -0.70831562705977     -0.74923715191414
  C   2.00289868838962     -0.14940784919384      0.32217198240089
  N   2.96795910089042     -0.20379746241386      0.98706919385453
