15

C	0.0	0.0	0.0
C	-0.582722	-0.229381	-1.392822
Cl	1.784814	0.0	0.0
H	-1.681711	-0.299288	-1.235106
H	-0.317222	1.008234	0.271532
C	-0.478889	-0.981631	1.056408
H	-0.056287	-1.971205	0.889918
H	-1.567971	-1.025485	1.028637
H	-0.154721	-0.621029	2.035472
N	-0.114384	-1.524858	-1.994273
O	-0.499838	-2.54869	-1.436333
O	0.614374	-1.482274	-2.98318
C	-0.262382	0.867388	-2.297424
N	-0.016977	1.795121	-2.973425
Cl	-3.588088	0.0	0.0
