15

C	0.0	0.0	0.0
C	-0.483464	0.119309	-1.458025
Cl	1.784544	0.0	0.0
H	0.393822	0.220325	-2.107116
H	-0.32878	0.892265	0.527034
C	-0.446955	-1.263368	0.71494
H	-1.536305	-1.278728	0.752389
H	-0.041153	-1.259283	1.728752
H	-0.073467	-2.149351	0.196465
N	-1.207999	1.425376	-1.748872
O	-0.939799	2.377651	-1.032353
O	-1.872262	1.452211	-2.773397
C	-1.227913	-1.023625	-1.973379
N	-1.621801	-2.012321	-2.471043
Cl	-3.40664	0.0	0.0
