15

C	0.0	0.0	0.0
C	-0.588755	0.152848	-1.401547
Cl	1.783905	0.0	0.0
H	-1.686943	0.043577	-1.262662
H	-0.31826	0.894244	0.538674
C	-0.479725	-1.236508	0.742817
H	-0.154922	-1.162493	1.783072
H	-1.569557	-1.270111	0.705116
H	-0.057216	-2.141606	0.307757
N	-0.120041	-0.939984	-2.31988
O	0.677329	-0.655062	-3.210688
O	-0.566452	-2.060828	-2.093961
C	-0.274703	1.448448	-1.990878
N	-0.069388	2.520235	-2.424038
Cl	-3.592781	0.0	0.0
