15

C	0.0	0.0	0.0
C	-0.573375	-0.016758	-1.417937
Cl	1.782033	0.0	0.0
H	-1.67176	-0.099757	-1.282597
H	-0.323044	0.950745	0.427391
C	-0.484926	-1.146101	0.870736
H	-0.154542	-0.969562	1.896553
H	-0.072278	-2.095382	0.530366
H	-1.574767	-1.175916	0.839058
N	-0.101023	-1.221352	-2.182855
O	-0.608071	-2.293464	-1.865393
O	0.762197	-1.06534	-3.044334
C	-0.2322	1.18867	-2.162786
N	0.008432	2.186316	-2.733261
Cl	-3.599554	0.0	0.0
