18

C	-0.459441	0.040005	-1.441027
C	0.0	0.0	0.0
F	0.072217	-1.078099	-2.124997
H	1.095844	0.0	0.0
N	-1.886018	0.053324	-1.590351
H	-2.127786	-0.062286	-2.568639
H	-2.266594	-0.726509	-1.06754
C	0.071924	1.22177	-2.162063
N	0.425143	2.159581	-2.772781
C	-0.455647	-1.281507	0.688142
H	-1.524811	-1.295972	0.950433
H	-0.224762	-2.154396	0.073677
H	0.115276	-1.381849	1.614756
C	-0.451289	1.240419	0.758068
H	-0.06264	2.146324	0.284555
H	-1.542058	1.327665	0.835424
H	-0.024911	1.202833	1.764793
F	2.647692	0.0	0.0
