18

C	-0.46936	0.051877	-1.436651
C	0.0	0.0	0.0
F	0.048712	-1.066487	-2.132102
H	1.09585	0.0	0.0
N	-1.896936	0.076564	-1.573927
H	-2.148589	-0.034834	-2.549998
H	-2.279533	-0.699938	-1.04825
C	0.064405	1.233363	-2.156563
N	0.417973	2.170303	-2.768217
C	-0.452948	-1.285402	0.682906
H	-0.233984	-2.154542	0.058761
H	-1.518664	-1.297407	0.958703
H	0.129616	-1.395528	1.600964
C	-0.443842	1.235663	0.770726
H	-1.533487	1.319186	0.866382
H	-0.000317	1.195007	1.769937
H	-0.066864	2.145381	0.295229
F	2.646518	0.0	0.0
