18

C	-0.432447	-0.000595	-1.448109
C	0.0	0.0	0.0
F	-0.008665	-1.165324	-2.082751
H	1.096636	0.0	0.0
N	-1.867583	0.04038	-1.621205
H	-2.104225	0.275064	-2.57828
H	-2.257806	0.744441	-1.00889
C	0.227859	1.112726	-2.192115
N	0.617726	2.032339	-2.811643
C	-0.49239	-1.243868	0.723706
H	-0.182319	-2.140581	0.184846
H	-0.02007	-1.274793	1.709968
H	-1.581892	-1.271813	0.851708
C	-0.419801	1.280215	0.713054
H	-1.500415	1.349999	0.913254
H	0.097104	1.315191	1.675519
H	-0.10604	2.169734	0.158308
F	2.641873	0.0	0.0
