18

C	-0.126721	0.123756	-1.528407
C	0.0	0.0	0.0
F	-1.303606	0.821758	-1.917107
H	1.097185	0.0	0.0
N	1.020045	0.823474	-1.988517
H	1.844323	0.580924	-1.38674
H	1.204672	0.661956	-2.96898
C	-0.304424	-1.199661	-2.193184
N	-0.413251	-2.239203	-2.73085
C	-0.617753	-1.246357	0.601662
H	-1.693422	-1.314074	0.395252
H	-0.138012	-2.153024	0.227087
H	-0.485069	-1.229795	1.687506
C	-0.496373	1.279826	0.655863
H	-0.063801	2.150003	0.159595
H	-0.176968	1.293415	1.702695
H	-1.5885	1.364981	0.621271
F	2.753094	0.0	0.0
