18

C	-0.133795	0.154157	-1.526048
C	0.0	0.0	0.0
F	-1.297274	0.887974	-1.892766
H	1.09876	0.0	0.0
N	1.024452	0.833424	-1.983176
H	1.202308	0.68152	-2.966744
H	1.846999	0.580677	-1.383023
C	-0.349618	-1.150315	-2.215024
N	-0.479936	-2.175547	-2.775512
C	-0.612628	-1.258393	0.581659
H	-0.457765	-1.269276	1.664877
H	-1.6928	-1.31711	0.395214
H	-0.143937	-2.157655	0.175638
C	-0.492314	1.265917	0.685677
H	-1.58422	1.352547	0.66092
H	-0.164935	1.257414	1.730024
H	-0.062706	2.146239	0.205123
F	2.753597	0.0	0.0
