18

C	-0.117142	-0.095913	-1.535995
C	0.0	0.0	0.0
F	-0.224925	1.216478	-2.05206
H	1.096071	0.0	0.0
N	1.043701	-0.700434	-2.10426
H	1.842697	-0.552365	-1.446509
H	0.904518	-1.67645	-2.320869
C	-1.353376	-0.77922	-1.994325
N	-2.343289	-1.341003	-2.286611
C	-0.437011	-1.304593	0.651405
H	-0.132059	-1.302316	1.701845
H	-1.521012	-1.463538	0.604836
H	0.059244	-2.156679	0.178451
C	-0.662846	1.214047	0.612111
H	-0.231519	2.132798	0.216456
H	-0.511038	1.209097	1.696341
H	-1.745181	1.230435	0.425401
F	2.739578	0.0	0.0
