18

C	-0.120986	0.042999	-1.536939
C	0.0	0.0	0.0
F	-0.209611	1.394211	-1.932878
H	1.096097	0.0	0.0
N	1.033962	-0.52123	-2.166452
H	1.835128	-0.414483	-1.503356
H	0.894019	-1.493519	-2.402514
C	-1.368246	-0.579564	-2.051889
N	-2.36715	-1.084206	-2.410406
C	-0.439278	-1.356141	0.536428
H	-0.144368	-1.438275	1.587093
H	0.063532	-2.167329	0.001305
H	-1.523248	-1.511918	0.467251
C	-0.658882	1.155412	0.722484
H	-0.242598	2.106835	0.394768
H	-0.48091	1.061718	1.797906
H	-1.744579	1.178057	0.562132
F	2.734765	0.0	0.0
