17

C	0.0	0.0	0.0
C	-0.510471	-0.171669	-1.461245
Br	1.959946	0.0	0.0
H	-1.605475	-0.28805	-1.354975
N	-0.47715	1.22861	0.561691
H	-0.256996	2.017783	-0.036783
H	-1.496046	1.145771	0.639433
C	-0.442219	-1.152942	0.887671
H	-0.011163	-2.099311	0.568598
H	-0.117504	-0.925208	1.903668
H	-1.532691	-1.21376	0.855753
N	0.007144	-1.40363	-2.148501
O	-0.485876	-2.4691	-1.787262
O	0.882219	-1.273163	-3.001811
C	-0.203513	0.995385	-2.27711
N	-0.016288	1.963762	-2.915424
Br	-3.742344	0.0	0.0
