16

C	-0.324085	-0.034353	-1.50668
C	0.0	0.0	0.0
Cl	0.168149	1.529184	-2.240175
H	1.092224	0.0	0.0
C	0.53471	-1.141701	-2.111215
H	0.180627	-2.11348	-1.758751
H	0.477788	-1.109572	-3.198543
H	1.550594	-0.964452	-1.748304
C	-1.749038	-0.208553	-1.795051
N	-2.883174	-0.374942	-2.053713
C	-0.518898	-1.194722	0.637724
N	-0.901102	-2.194951	1.123686
N	-0.597837	1.198454	0.661689
O	0.13936	2.158466	0.864385
O	-1.800116	1.148917	0.941829
F	2.514016	0.0	0.0
