16

C	-0.390049	0.106276	-1.484033
C	0.0	0.0	0.0
Cl	0.043057	-1.478962	-2.230627
H	1.091502	0.0	0.0
C	-1.873998	0.342017	-1.732999
H	-2.16064	1.313167	-1.329713
H	-2.447968	-0.448519	-1.246909
H	-2.080954	0.324762	-2.804579
C	0.413257	1.114678	-2.183247
N	0.960238	1.90518	-2.858333
C	-0.573583	-1.158667	0.642455
N	-1.032421	-2.121204	1.13974
N	-0.369591	1.21498	0.755557
O	-0.492368	1.111446	1.973003
O	-0.446099	2.276195	0.130835
F	2.41746	0.0	0.0
