16

C	-0.305019	-0.03639	-1.5125
C	0.0	0.0	0.0
Cl	0.154391	1.54902	-2.224348
H	1.092184	0.0	0.0
C	0.597529	-1.113571	-2.111724
H	0.557063	-1.078286	-3.20166
H	0.26721	-2.098129	-1.770284
H	1.604151	-0.908345	-1.725961
C	-1.718934	-0.251453	-1.83007
N	-2.838742	-0.45566	-2.126131
C	-0.518981	-1.197092	0.633053
N	-0.899241	-2.197847	1.120266
N	-0.612552	1.197354	0.652908
O	0.124906	2.141682	0.911626
O	-1.828342	1.16038	0.865455
F	2.520002	0.0	0.0
