13

C	-0.542382	-0.009941	-1.420303
C	0.0	0.0	0.0
F	-1.940388	0.062671	-1.367989
H	1.092768	0.0	0.0
H	-0.339219	0.943177	0.447272
C	-0.093879	1.158896	-2.198646
N	0.189622	2.121835	-2.807267
C	-0.206798	-1.252134	-2.136594
N	0.024932	-2.232734	-2.737916
N	-0.487313	-1.189438	0.681521
H	0.273011	-1.595468	1.20946
H	-1.249554	-0.977184	1.307505
Cl	3.363007	0.0	0.0
