13

C	-0.503761	0.006945	-1.435569
C	0.0	0.0	0.0
F	-0.037993	-1.117992	-2.091862
H	1.098999	0.0	0.0
H	-0.355777	0.913737	0.484864
C	-1.982776	-0.035188	-1.473014
N	-3.155766	-0.017809	-1.506648
C	-0.059749	1.20209	-2.177708
N	0.280036	2.147522	-2.784597
N	-0.563297	-1.18234	0.654953
H	0.111863	-1.932398	0.559523
H	-0.64734	-0.995838	1.645501
Cl	3.400174	0.0	0.0
