13

C	-0.523125	-0.017091	-1.435382
C	0.0	0.0	0.0
F	-0.067656	1.087236	-2.130592
H	1.096258	0.0	0.0
H	-0.349055	0.935054	0.448709
C	-0.106544	-1.23861	-2.149638
N	0.197567	-2.204064	-2.743102
C	-2.002771	0.035169	-1.431308
N	-3.172451	0.137825	-1.404789
N	-0.54297	-1.178675	0.669911
H	0.223422	-1.804206	0.89598
H	-1.004961	-0.926352	1.532251
Cl	3.411222	0.0	0.0
