13

C	-0.523027	0.025272	-1.434929
C	0.0	0.0	0.0
F	-0.098786	1.169437	-2.084003
H	1.096276	0.0	0.0
H	-0.34861	0.922294	0.476167
C	-0.080375	-1.153558	-2.200875
N	0.234315	-2.083543	-2.843942
C	-2.00391	0.041576	-1.426058
N	-3.175717	0.107782	-1.396729
N	-0.517513	-1.210262	0.628934
H	0.261634	-1.76229	0.962071
H	-1.118782	-0.995866	1.411625
Cl	3.385817	0.0	0.0
