14

C	-0.332292	0.072507	-1.467428
C	0.0	0.0	0.0
Br	-2.277706	0.072983	-1.854538
H	1.113848	0.0	0.0
C	0.233556	1.266673	-2.077078
N	0.646917	2.248072	-2.575302
N	0.210062	-1.152555	-2.228357
O	0.252554	-2.203053	-1.610015
O	0.492475	-0.975231	-3.405701
C	-0.553309	-1.12586	0.723168
N	-0.980376	-1.98287	1.407355
C	-0.39118	1.239974	0.646819
N	-0.679381	2.250231	1.17661
F	2.392966	0.0	0.0
