14

C	-0.472693	-0.376045	-1.403419
C	0.0	0.0	0.0
Br	0.496897	-1.934956	-2.041331
H	1.096701	0.0	0.0
C	-1.900409	-0.656641	-1.485424
N	-3.049954	-0.907677	-1.47828
N	-0.15407	0.772904	-2.380974
O	-0.9667	0.954719	-3.281427
O	0.88985	1.371732	-2.193667
C	-0.429691	-1.014673	0.946353
N	-0.748666	-1.845778	1.714884
C	-0.516399	1.307064	0.364873
N	-0.913633	2.378136	0.645873
F	2.409654	0.0	0.0
