14

C	-0.299338	0.284389	-1.456596
C	0.0	0.0	0.0
Br	0.113725	2.127126	-1.907726
H	1.113534	0.0	0.0
C	0.463217	-0.594698	-2.336637
N	1.028168	-1.299422	-3.087118
N	-1.806571	0.099089	-1.789984
O	-2.090679	-0.504717	-2.817819
O	-2.587661	0.578759	-0.983334
C	-0.424537	-1.346914	0.326537
N	-0.723786	-2.459516	0.564301
C	-0.49226	0.979136	0.941713
N	-0.816927	1.758137	1.760276
F	2.400889	0.0	0.0
