15

C	0.0	0.0	0.0
C	-0.401075	-0.127222	-1.463451
F	1.399153	0.0	0.0
H	-0.073134	0.78261	-1.984164
H	-1.490709	-0.185727	-1.497247
N	-0.451969	1.254229	0.522181
H	-1.455017	1.306846	0.338106
H	-0.34878	1.201579	1.531194
N	-0.401016	-1.111274	0.821164
H	-0.194148	-1.957661	0.298664
H	-1.416454	-1.051718	0.897557
N	0.171528	-1.361494	-2.010266
H	1.155232	-1.213462	-2.192945
H	-0.280331	-1.579096	-2.887981
Br	-3.824525	0.0	0.0
