15

C	0.0	0.0	0.0
C	-0.366685	-1.031135	-1.080084
F	1.407726	0.0	0.0
H	-0.172652	-2.024623	-0.6555
H	0.363799	-0.877304	-1.879452
N	-0.442112	1.309512	-0.374438
H	-0.109289	1.98517	0.305085
H	-1.459052	1.297838	-0.330453
N	-0.47457	-0.412059	1.279657
H	-0.273477	0.278627	1.992009
H	-0.074181	-1.302673	1.544791
N	-1.692907	-1.002689	-1.647612
H	-2.426806	-0.996806	-0.941192
H	-1.812629	-0.146942	-2.175259
Br	-4.538706	0.0	0.0
