15

C	0.0	0.0	0.0
C	-0.371803	1.015403	-1.093306
F	1.407723	0.0	0.0
H	0.354539	0.855866	-1.894687
H	-0.179189	2.015297	-0.682996
N	-0.479316	0.425643	1.272998
H	-0.083697	1.322161	1.526332
H	-0.27293	-0.253951	1.994721
N	-0.438797	-1.315318	-0.359211
H	-0.124209	-1.978792	0.341287
H	-1.456731	-1.29951	-0.334976
N	-1.702348	0.978743	-1.653705
H	-1.82708	0.120415	-2.175442
H	-2.433626	0.982385	-0.94454
Br	-4.581799	0.0	0.0
