15

C	0.0	0.0	0.0
C	-0.463162	0.375325	-1.400834
F	1.378299	0.0	0.0
H	-0.021097	1.352736	-1.613182
H	-1.550953	0.478929	-1.36125
N	-0.42444	1.029681	0.918015
H	-1.443916	1.051863	0.876976
H	-0.168856	0.744948	1.858908
N	-0.409477	-1.360362	0.29268
H	-1.43002	-1.356846	0.30373
H	-0.088715	-1.602075	1.224873
N	-0.006716	-0.616137	-2.38724
H	0.00067	-1.509336	-1.905017
H	-0.719091	-0.68542	-3.104806
Br	-3.829495	0.0	0.0
