15

C	0.0	0.0	0.0
C	-0.421362	-0.581276	-1.337272
F	1.425147	0.0	0.0
H	-1.513808	-0.613997	-1.314503
H	-0.098651	0.123854	-2.120824
N	-0.450314	1.332444	0.250461
H	-1.462584	1.256561	0.366674
H	-0.272678	1.912097	-0.563161
N	-0.447867	-0.832609	1.047602
H	-0.239393	-1.794921	0.821698
H	-0.023526	-0.548567	1.919117
N	0.118684	-1.93256	-1.500514
H	-0.357328	-2.39598	-2.26457
H	1.102236	-1.867854	-1.729441
Br	-4.008113	0.0	0.0
