15

C	0.0	0.0	0.0
C	-0.425464	0.40852	-1.407022
F	1.379539	0.0	0.0
H	0.050806	1.378068	-1.602726
H	-1.507762	0.549925	-1.378433
N	-0.412104	0.924814	1.030444
H	-0.161711	1.867708	0.748654
H	-1.429881	0.876058	1.066223
N	-0.446912	-1.333705	0.281024
H	-1.457102	-1.344576	0.139031
H	-0.280861	-1.499518	1.268286
N	-0.009904	-0.570874	-2.424988
H	0.260706	-1.412235	-1.924883
H	-0.828054	-0.823494	-2.966872
Br	-3.814666	0.0	0.0
