15

C	0.0	0.0	0.0
C	-0.341621	-0.061008	-1.499819
F	1.410384	0.0	0.0
H	0.366188	0.617347	-1.983881
H	-0.091645	-1.076257	-1.832685
N	-0.462177	1.221438	0.581356
H	-0.204221	1.25072	1.562053
H	-1.479386	1.195598	0.531721
N	-0.474576	-1.163474	0.674633
H	0.005838	-1.992112	0.349122
H	-0.382071	-1.080242	1.678325
N	-1.677835	0.269883	-1.931259
H	-2.398005	-0.191758	-1.379336
H	-1.844203	1.26119	-1.823146
Br	-4.531888	0.0	0.0
