15

C	0.0	0.0	0.0
C	-0.33959	0.074958	-1.499644
F	1.410397	0.0	0.0
H	0.383747	-0.583329	-1.99072
H	-0.110915	1.099904	-1.820055
N	-0.475796	1.154852	0.687996
H	0.000984	1.988169	0.369017
H	-0.376739	1.062229	1.690225
N	-0.461337	-1.228617	0.567464
H	-1.478888	-1.201061	0.52049
H	-0.202424	-1.268245	1.547648
N	-1.667728	-0.277602	-1.939988
H	-2.39865	0.175593	-1.394967
H	-1.817503	-1.271967	-1.827618
Br	-4.515828	0.0	0.0
