15

C	0.0	0.0	0.0
C	-0.391985	-0.556147	-1.37878
F	1.408121	0.0	0.0
H	-0.39266	-1.658933	-1.310042
H	0.41369	-0.277291	-2.066792
N	-0.417386	1.343769	0.271884
H	-1.421556	1.308243	0.430215
H	-0.295307	1.8888	-0.573534
N	-0.499928	-0.817577	1.04401
H	-0.157222	-1.763969	0.961612
H	-0.238067	-0.42166	1.937075
N	-1.628105	0.04271	-1.847877
H	-2.404397	-0.126261	-1.203621
H	-1.894165	-0.370177	-2.733151
Br	-4.583566	0.0	0.0
