15

C	0.0	0.0	0.0
C	-0.395412	0.669615	-1.330963
F	1.408121	0.0	0.0
H	-0.437891	1.759322	-1.159487
H	0.427401	0.482382	-2.028853
N	-0.489478	0.73893	1.107928
H	-0.213128	0.283797	1.969108
H	-0.146788	1.688293	1.090044
N	-0.42693	-1.355441	0.163156
H	-1.421112	-1.319828	0.374484
H	-0.360674	-1.81693	-0.736621
N	-1.602783	0.075142	-1.871769
H	-1.841759	0.503167	-2.756377
H	-2.404123	0.200249	-1.248738
Br	-4.572287	0.0	0.0
