15
Coordinates from ORCA-job run
  C   -0.39556894043178     -0.43358530714545      0.24062385487960
  C   1.11709015105150     -0.11261946562986      0.20378881149300
  Br  -0.60886831241612     -2.34003362844422      0.52924334063761
  H   1.56829137110066     -0.47078308640555      1.13402527563844
  N   -0.96422918187376      0.24468936278908      1.49126982343567
  O   -0.19768061746915      0.38663504625313      2.43801019550490
  O   -2.14671380668214      0.55610514081882      1.45645399412117
  C   -1.14380629732234      0.01809408210221     -0.98906444524376
  H   -0.72240636795941     -0.46773616612313     -1.87044121300653
  H   -1.05872982432174      1.10275621907821     -1.09536490026899
  H   -2.19631354864352     -0.24330038773837     -0.90513632811253
  C   1.31145431418494      1.33948904551970      0.11758258163813
  N   1.43455353622184      2.50499744229866      0.04233639517060
  C   1.75135638892353     -0.77778010378657     -0.93631137189771
  N   2.25357113563752     -1.30592819358667     -1.85701601398961
