15
Coordinates from ORCA-job run
  C   -0.39552465464453     -0.42867074449978      0.25232226377009
  C   1.11623494218369     -0.10622182924054      0.20279958241940
  Br  -0.60484262354402     -2.32747149463336      0.58955558770350
  H   1.57024469142765     -0.43953127542175      1.14084410832198
  N   -0.95933716206614      0.28092579915489      1.48793102449087
  O   -0.19323797147770      0.43207532671632      2.43344701396622
  O   -2.13735492794583      0.60735968989883      1.44458506939313
  C   -1.14860602308413     -0.00950708618169     -0.98577111730004
  H   -0.73065711780030     -0.51880363020462     -1.85571734290959
  H   -1.06416894387962      1.07200599927316     -1.12119888536147
  H   -2.20082847791597     -0.26869504559611     -0.89059337212968
  C   1.30742296081457      1.34360085871169      0.07819949151940
  N   1.42811592554702      2.50672647716938     -0.03071653580342
  C   1.75090574850905     -0.79826117376558     -0.92096321155502
  N   2.26063363387626     -1.34653187138083     -1.82572367652536
