15
Coordinates from ORCA-job run
  C   -0.41715503485567     -0.44692339810729      0.06888179926853
  C   1.03577169493092     -0.15786437900865     -0.36520680530827
  Br  -0.63303203610803     -2.36651655298891      0.22436722089867
  H   1.14873017190574     -0.64283367883904     -1.34372769425860
  N   -0.67948558494369      0.15558415297573      1.44896013483073
  O   0.26353179187078      0.71000898748925      2.00471753759556
  O   -1.82263948003819      0.05486874133483      1.86995378667314
  C   -1.43445783167760      0.12882993984841     -0.89413001945697
  H   -2.43750908867675     -0.14331030595920     -0.57026488678687
  H   -1.35020014349327      1.21865951675402     -0.91594053278150
  H   -1.26224187685799     -0.26721023206373     -1.89643213464947
  C   2.05100935416003     -0.73218582810700      0.52219595219635
  N   2.89714953117483     -1.21822905332963      1.17486946478998
  C   1.24960072081165      1.28098837506403     -0.55777238881605
  N   1.39092781179722      2.42713371493719     -0.77047143419523
