15
Coordinates from ORCA-job run
  C   -0.36240545217087     -0.48453090407259      0.11023555091419
  C   1.03120062069365     -0.06528143272005     -0.40436245595783
  Br  -0.36007110296870     -2.40504065824677      0.37026541350518
  H   1.15701340304367     -0.58808159902644     -1.36161032328645
  N   -0.63290665791573      0.16010318647215      1.46954021043600
  O   0.26486012853559      0.84322606783046      1.95215261672201
  O   -1.73963920383880     -0.04089521797104      1.94799456187774
  C   -1.47513501743467     -0.07464657724035     -0.83189138342147
  H   -2.42828969057428     -0.43320918635141     -0.44735179474060
  H   -1.30257727171524     -0.50577258806064     -1.81948069610065
  H   -1.51087765580279      1.01498698642991     -0.91362339444751
  C   2.13839700110459     -0.47795547721895      0.46274119775656
  N   3.05869887330764     -0.83407146836974      1.09867264042276
  C   1.07807842169149      1.37545948405846     -0.67845901191227
  N   1.08365360404445      2.51670938448700     -0.95482313176768
