15
Coordinates from ORCA-job run
  C   -0.41742438718090     -0.44731075092810      0.06630083191213
  C   1.03253116962905     -0.15529108600448     -0.37552555855233
  Br  -0.63527265810445     -2.36812754256199      0.20148982921603
  H   1.13708978640843     -0.62823410686533     -1.36073736248600
  N   -0.66814234260278      0.13992549799613      1.45540270393492
  O   0.27967970422760      0.68798895575761      2.00921850298725
  O   -1.80795798631921      0.03499415843343      1.88437071282957
  C   -1.44118951090802      0.14116012435802     -0.88208527390032
  H   -2.44220538816095     -0.13208683828536     -0.55281313312826
  H   -1.27828021695087     -0.24464688736849     -1.89001627216196
  H   -1.35437527858328      1.23106056199807     -0.89301651789243
  C   2.05362163749335     -0.74174499172955      0.49708226321557
  N   2.90424258774505     -1.23559613264113      1.13798011861239
  C   1.24759739453995      1.28547272228125     -0.55122818367989
  N   1.39008548876703      2.43443631555992     -0.74742266090667
