15
Coordinates from ORCA-job run
  C   -0.36366223154441     -0.36246147916556      0.10132206080390
  C   0.99513473391302      0.32800987104984     -0.15895115358191
  Br  -0.23125378856596     -2.24077632895710     -0.29933065263061
  H   0.88135137223459      1.37988992789833      0.12647487882622
  N   -0.68862902310659     -0.16462564435469      1.59056152951987
  O   -0.33904901227549      0.92043359308246      2.04913607868070
  O   -1.33040163084874     -1.02686871616645      2.16600677899034
  C   -1.49570442812505      0.28231597427784     -0.67683766857528
  H   -1.32496901155024      0.17179011001627     -1.74817016288205
  H   -1.55489154031484      1.34423879081619     -0.42205054498538
  H   -2.43788975175792     -0.20369950528495     -0.41940053278624
  C   1.33210286603813      0.26454571087322     -1.58220564890275
  N   1.58234255082293      0.24697020183188     -2.72940929294075
  C   2.06294971428916     -0.24533863949635      0.66407928334937
  N   2.91256918079141     -0.69442386642092      1.33877504711456
