15
Coordinates from ORCA-job run
  C   -0.31532762392221     -0.39804853413651      0.09509106272070
  C   0.95167202277069      0.46835973763364     -0.08116108746253
  Br  0.11440853820035     -2.25418987584847     -0.20766404487232
  H   0.68068441713900      1.49883251914191      0.17533093121896
  N   -0.80524928005185     -0.22733897321837      1.53911310697891
  O   -1.61364400718641     -1.04358453412437      1.95047631945053
  O   -0.41032406921857      0.77575381017957      2.12839869137244
  C   -1.45453428456544      0.04785410618258     -0.80142753895390
  H   -1.69643633965550      1.09439368850822     -0.59112070859620
  H   -1.17336271014757     -0.05670229126081     -1.84962359708683
  H   -2.33133969826201     -0.56987366900601     -0.60623290454688
  C   1.38831594975298      0.43535965760857     -1.47914727328771
  N   1.71262502653740      0.43630873255977     -2.60773585153997
  C   2.03725485761745      0.05526719150900      0.81209280145094
  N   2.91425720099167     -0.26339156572872      1.52461009315388
