15
Coordinates from ORCA-job run
  C   -0.36720810865945     -0.35766371943382      0.06647504630415
  C   1.00684335864343      0.33967338382675     -0.04435288243273
  Br  -0.18726289561732     -2.22967660179359     -0.36325320665340
  H   0.87396631589233      1.37771192874742      0.28121729951365
  N   -0.84894997951338     -0.22219537707956      1.51671953348920
  O   -0.32871108038954      0.67383837186190      2.17698459831933
  O   -1.76717419678296     -0.94603252837993      1.86589466781679
  C   -1.42382106493410      0.29908838196899     -0.80136095592273
  H   -1.14683142504997      0.22589847699328     -1.85338855674836
  H   -1.52197835054647      1.35301719125181     -0.52209956925903
  H   -2.37956613355124     -0.20339698243379     -0.65028023109297
  C   1.45200092984006      0.34265385806899     -1.44014404191554
  N   1.78385705414568      0.37292048326431     -2.56614557038131
  C   2.01669605933092     -0.27479133988447      0.82140076240849
  N   2.83813951719202     -0.75204552697829      1.51133310655448
