15
Coordinates from ORCA-job run
  C   -0.33226786552113     -0.38296440994253      0.10032868987451
  C   0.97132016325797      0.41509517390651     -0.12416685194523
  Br  -0.03487586889231     -2.24697031833609     -0.29782465967433
  H   0.77954409728439      1.44791343899542      0.18841362313094
  N   -0.72148115835118     -0.24360492574148      1.57805095730387
  O   -1.55491956451967     -1.02445171766174      2.00762592133655
  O   -0.22628764611738      0.70595821550199      2.18020443002283
  C   -1.49541286549437      0.16491071526190     -0.70429734904048
  H   -2.39455090782233     -0.40787750311164     -0.47622892197816
  H   -1.65955897586670      1.21444121275932     -0.44035572540518
  H   -1.28631784209613      0.08689246261936     -1.77149696826387
  C   1.31720548674173      0.41548878209367     -1.54761282519262
  N   1.56975048048466      0.44305007458561     -2.69406214304874
  C   2.08386501502161     -0.09591023090410      0.68084901811106
  N   2.98398745189083     -0.49297097002620      1.32157280476884
