15
Coordinates from ORCA-job run
  C   -0.34569940517647     -0.45741006775327      0.27398226918866
  C   1.12711545986529      0.00305785582198      0.16860318086231
  Br  -0.36563427137590     -2.35755152130886      0.66397409152775
  H   1.63820672700249     -0.26427672421891      1.09847068253110
  N   -0.93490707473648      0.23057311603187      1.50996818134034
  O   -0.16117662930400      0.45698335133299      2.43394892889529
  O   -2.13471352359725      0.46773991023478      1.48822683180738
  C   -1.17098924985212     -0.14432768001900     -0.94916382120315
  H   -2.19063346760577     -0.49868356322546     -0.81529405383317
  H   -0.73177642567472     -0.63489146964923     -1.81910109405247
  H   -1.19392103302552      0.93610937722415     -1.11292793186643
  C   1.17673551154068      1.46127713799181      0.01007177872786
  N   1.18253171455179      2.62847963206688     -0.12024756272145
  C   1.78936917331912     -0.65319269221692     -0.96053438927251
  N   2.31749249406888     -1.17388666231282     -1.87097709193150
