15
Coordinates from ORCA-job run
  C   -0.41297752705126     -0.39251699667995      0.28167900747782
  C   1.11272459679237     -0.15502477502285      0.19184742237156
  Br  -0.71632538452891     -2.25463420490489      0.73253326636157
  H   1.56506134147958     -0.46172367089321      1.13983342947426
  N   -0.91459198410235      0.41698775041939      1.48237493837815
  O   -0.13110017185189      0.55903295628910      2.41488111201525
  O   -2.06572375979594      0.82696912577795      1.42761607616454
  C   -1.16461063480058     -0.00593192140519     -0.96766943092189
  H   -0.78870201013140     -0.58569987835218     -1.81204493900231
  H   -2.22699591877020     -0.20339928565109     -0.84267821751366
  H   -1.02709603505031      1.05994100672956     -1.16710606700907
  C   1.37694265755197      1.27410025782771     -0.01249828279671
  N   1.55446579970262      2.42285985302713     -0.18044090034740
  C   1.68949235496305     -0.93920997222871     -0.90212114365772
  N   2.14943667559327     -1.56175024493276     -1.78520627099440
