15
Coordinates from ORCA-job run
  C   -0.35832770874989     -0.36830342174122      0.09667090750234
  C   0.99301131851249      0.34403153271916     -0.14102222982418
  Br  -0.18609161941436     -2.24618876517382     -0.29108173590285
  H   0.85677597933287      1.39472614304197      0.13851209591764
  N   -0.71711165327806     -0.16949954630575      1.57768182305800
  O   -1.37070415203908     -1.03294862924898      2.13803968744419
  O   -0.38372472669113      0.91732949518552      2.04428373662227
  C   -1.48656763460218      0.25292614662808     -0.70594185100558
  H   -2.42449329980792     -0.24933444599529     -0.46489534265674
  H   -1.29328302860084      0.14270685105672     -1.77334389588163
  H   -1.57019525320027      1.31424002119412     -0.45554541201342
  C   1.35615444087142      0.28090358174224     -1.55776670528672
  N   1.62427891704255      0.26122533814205     -2.70087946513338
  C   2.05567307391706     -0.20817310102751      0.70272979401213
  N   2.90460534670733     -0.63464120021726      1.39255859314792
