15
Coordinates from ORCA-job run
  C   -0.38374817663116     -0.33828312033299      0.07003051766537
  C   1.02214957759091      0.28250842012478     -0.08627170908071
  Br  -0.34232086411309     -2.19329778493455     -0.45787485421792
  H   0.97118744032472      1.30808442786127      0.29707728271545
  N   -0.77642306430190     -0.24924490275841      1.55072468336333
  O   -0.16362710183216      0.57587847847500      2.22382840131593
  O   -1.71945461391829     -0.93212530397550      1.91587963710825
  C   -1.44473318439151      0.42189451110729     -0.70247867530990
  H   -1.46526305907752      1.46323203444971     -0.36564925269090
  H   -1.23003383599703      0.38989990948827     -1.77092183813726
  H   -2.41898089373157     -0.03325183977536     -0.52267872587465
  C   1.38992159829183      0.33299023558266     -1.50360887439818
  N   1.66389687265588      0.40524246103340     -2.64317298765095
  C   2.03768617325194     -0.43506357469313      0.68887278289326
  N   2.86074313187895     -0.99946395165244      1.30724361229886
