15
Coordinates from ORCA-job run
  C   -0.38304096901708     -0.40209608003508      0.30886572670752
  C   1.12657621829757     -0.11212387095829      0.13767737728425
  Br  -0.59576690785904     -2.26732065125241      0.79716136432039
  H   1.63717171367393     -0.38388317460148      1.06654659488764
  N   -0.85504867299360      0.40510059596582      1.52300443233512
  O   -2.03119367739560      0.74062468904438      1.53511686723629
  O   -0.02351614854357      0.62163435240156      2.39780648328567
  C   -1.21046750968095     -0.05851871380286     -0.90489485055887
  H   -1.12285528045895      1.00944550049665     -1.12096071004432
  H   -0.85551658766191     -0.63311060940193     -1.76181307766395
  H   -2.25708759687852     -0.29368411472726     -0.72477930263222
  C   1.32816124160779      1.32072841311810     -0.10736840432414
  N   1.45436078778458      2.47031868535114     -0.31208490797379
  C   1.67540249419418     -0.89703238840651     -0.97022063678848
  N   2.11282089493116     -1.51908263319182     -1.86505695607111
