15
Coordinates from ORCA-job run
  C   -0.43449040577609     -0.42675891464295      0.08598070244615
  C   1.02400311310080     -0.21158231989260     -0.37170893642310
  Br  -0.72852114307264     -2.33051280571880      0.29841051403890
  H   1.10506327901910     -0.72891724322855     -1.33675924296885
  N   -0.65505372793558      0.22461822133433      1.45097471632613
  O   0.31650727317738      0.75544486880826      1.98000732965292
  O   -1.79608787953038      0.18288754441277      1.88737309850639
  C   -1.43833448467253      0.16400647100388     -0.88204867935191
  H   -2.44783178839071     -0.05615435067897     -0.53929331350352
  H   -1.30849245935047      1.24821667162192     -0.93643862330223
  H   -1.29527684859939     -0.26743090725560     -1.87429810356318
  C   2.02474618003202     -0.80238566214378      0.52141135582837
  N   2.85760524778753     -1.30411752593056      1.17926702828169
  C   1.29543558762291      1.21092995058095     -0.60810119245567
  N   1.48172805658805      2.34375600172968     -0.85477665351211
