15
Coordinates from ORCA-job run
  C   -0.37037613747177     -0.35034549476550      0.08211660199292
  C   1.01034427311898      0.32829319581343     -0.05791052228541
  Br  -0.20665963317583     -2.24232039147976     -0.25768398049270
  H   0.88661238564201      1.38136903777120      0.21938546978384
  N   -0.85408163859691     -0.14144924689420      1.52326973668632
  O   -0.32775419864968      0.78062413609220      2.14149715405650
  O   -1.77878652920339     -0.84039525835161      1.90451706378755
  C   -1.41927411988776      0.27329724740275     -0.81867766107166
  H   -2.37895209716896     -0.21492069528710     -0.64767770073842
  H   -1.13972805951187      0.14988199806283     -1.86525902238733
  H   -1.51084407612756      1.33959063673204     -0.58887905632729
  C   1.45935900309076      0.26276644220236     -1.45081701644227
  N   1.79752822098279      0.24019133002201     -2.57511800952805
  C   2.01153994558995     -0.25530935510531      0.83885819587019
  N   2.82307266136925     -0.71127358221534      1.55437874709578
