15
Coordinates from ORCA-job run
  C   -0.33417626728136     -0.46693400340350      0.27234630861209
  C   1.12506515421498      0.03765921977753      0.17923474425826
  Br  -0.30009320994371     -2.36557708484136      0.66919794350408
  H   1.63588222125572     -0.21240317794798      1.11400046548531
  N   -0.95633475496822      0.20710904819094      1.49949835951006
  O   -2.16289466289753      0.40543863852490      1.46611994267927
  O   -0.19855514467786      0.46293303505208      2.42905474090073
  C   -1.15628442654697     -0.18405114689586     -0.96021397283910
  H   -0.69467284757809     -0.66547835484054     -1.82368567731596
  H   -2.16648414490840     -0.56729880641445     -0.83446532380447
  H   -1.20900115514278      0.89452541384299     -1.12970425066019
  C   1.13198822735138      1.49671685035784      0.01986867923733
  N   1.10190254813366      2.66356902193464     -0.11014054040548
  C   1.81636256227785     -0.60025111447293     -0.94285456066025
  N   2.36629590071133     -1.10695753886429     -1.84825685850168
