15
Coordinates from ORCA-job run
  C   -0.44819347426843     -0.45032249134210      0.03251100522903
  C   1.08049010442469     -0.32606398147520     -0.17084038682955
  Br  -1.04016875649268     -2.10880371799821     -0.78061981823063
  H   1.55628614302678     -1.22027420756613      0.24297642562207
  N   -0.67953557912998     -0.61437164574091      1.53833983470763
  O   -1.73497145989390     -0.18470041820749      1.98297637651785
  O   0.19841303808665     -1.19290963988415      2.16928867734224
  C   -1.23053780895891      0.72525368465932     -0.49790914371423
  H   -0.92078398488615      1.63821272101039      0.01708197249638
  H   -2.29493013763133      0.57455123289535     -0.33122324943362
  H   -1.04658006153797      0.83060007575560     -1.56820405297403
  C   1.57720533605265      0.84863354062206      0.55534922943515
  N   1.93487577887147      1.79948602267822      1.14461476493897
  C   1.39906156362044     -0.21336792447705     -1.59549687295611
  N   1.64936929871666     -0.10592325092970     -2.73784476215115
