15
Coordinates from ORCA-job run
  C   -0.34275565835896     -0.37031702214640      0.10906258415815
  C   0.98322904936832      0.38561964447808     -0.13000226864745
  Br  -0.09359804789674     -2.25233931250844     -0.23419794943024
  H   0.81854526539586      1.43185961336865      0.15176151564449
  N   -0.73579815857204     -0.17849798097087      1.57980255841028
  O   -0.21976581490680      0.77533379012870      2.15713906434637
  O   -1.59177234777047     -0.92464656094664      2.02648538147911
  C   -1.48652725412499      0.18446915846401     -0.71822281910388
  H   -2.40194912612014     -0.35679700336051     -0.47832259374906
  H   -1.27416446097621      0.06882484852386     -1.78134819420177
  H   -1.62356644002950      1.24550475316439     -0.48683151782826
  C   1.33631749697055      0.33607458548596     -1.55092436996279
  N   1.59496860056961      0.32589939565315     -2.69630560441418
  C   2.07673430239549     -0.13347660797248      0.69572281744141
  N   2.96110259405602     -0.53851130136146      1.35318139585781
