15
Coordinates from ORCA-job run
  C   -0.39225924648422     -0.32435175789770      0.08867654631297
  C   1.02810933628695      0.25043402625266     -0.10830142935432
  Br  -0.40473793035281     -2.20215046380762     -0.35331205878226
  H   1.00802658399757      1.29372667635039      0.22682328695474
  N   -0.76746367143467     -0.15597521879490      1.56699934756021
  O   -1.71955073333256     -0.80114284278361      1.97461482072659
  O   -0.13199380339790      0.68937649557517      2.19225706430644
  C   -1.44016200816745      0.42735134637075     -0.70963435593087
  H   -2.42415760445878      0.00708205688719     -0.50069500570558
  H   -1.23633131836284      0.33986613910195     -1.77708303879973
  H   -1.43042194582976      1.48327570090821     -0.42157428562202
  C   1.38419202320438      0.22468945852533     -1.52909901037085
  N   1.64988052215975      0.23690234796464     -2.67283593545055
  C   2.03115911648850     -0.45717113840769      0.69182794851540
  N   2.84471067968384     -1.01291282624477      1.33033610563981
