15
Coordinates from ORCA-job run
  C   -0.43180703920041     -0.47951274372563      0.08450402318061
  C   1.02005182238312     -0.17355722022153     -0.37338477527016
  Br  -0.59700964666096     -2.39225115289039      0.28560859872307
  H   1.18484455663718     -0.76416428000467     -1.28324081646350
  N   -0.61536104400865      0.20679530515487      1.44606710653440
  O   -0.82635834530593      1.41419471549467      1.36597225744522
  O   -0.48924334254279     -0.44853243322603      2.46881368954493
  C   -1.46666237247850      0.04262125751141     -0.89036692566480
  H   -2.46724513312790     -0.18717121166275     -0.52214824442420
  H   -1.33267338040936     -0.44564663498387     -1.85702207377250
  H   -1.37016446385739      1.12143356706971     -1.00627120573875
  C   2.01133122323327     -0.58762223202238      0.62484060402277
  N   2.81946147396599     -0.90871849389530      1.41428437844005
  C   1.20198671376758      1.24188484749657     -0.71659183251398
  N   1.35784897760469      2.36024670990538     -1.04006478404324
