15
Coordinates from ORCA-job run
  C   -0.37883237853093     -0.47144226386890      0.11047012109165
  C   1.03035490374927     -0.10093789128301     -0.39946267911533
  Br  -0.44265508937262     -2.39017409837571      0.37555345026583
  H   1.14221632263078     -0.63048808998831     -1.35470867968821
  N   -0.63288216733620      0.18614285514542      1.46656116380176
  O   0.28497211738742      0.84139738274134      1.95015813274588
  O   -1.74721337978564      0.02310254412747      1.94171390956272
  C   -1.47307074501864     -0.02661522121918     -0.83754968937178
  H   -1.47323239837331      1.06361458660722     -0.91959187176685
  H   -1.30927967859971     -0.46344633839598     -1.82417930355325
  H   -2.43937965411027     -0.35408524842696     -0.45802410198124
  C   2.11885571571851     -0.54927428173821      0.47350563147296
  N   3.02248082036595     -0.93885724305139      1.11378915827272
  C   1.12682615970735      1.33651048097372     -0.67777704254778
  N   1.17183945156805      2.47555282675248     -0.95945819918910
