15
Coordinates from ORCA-job run
  C   -0.42459498887051     -0.43410101958232      0.09897724431225
  C   1.03134785160869     -0.19952625029796     -0.35761393460139
  Br  -0.67328535026598     -2.33549231301348      0.37889751850406
  H   1.13158424745434     -0.74879867883775     -1.30295204406410
  N   -0.67035436405751      0.26095074271239      1.43784268463294
  O   0.28428861365695      0.83453162330280      1.95281160563130
  O   -1.81304858462344      0.20718311904859      1.86854450049756
  C   -1.43581294885216      0.09621301851910     -0.89607616668249
  H   -1.33282755257990      1.18077393042360     -0.98823803633323
  H   -2.44202329129061     -0.13698562614950     -0.55227165435705
  H   -1.27454460405957     -0.36634211608396     -1.87137912980334
  C   2.04002402687443     -0.73299668766367      0.56218510386427
  N   2.88049830712900     -1.19052312061337      1.24221539229350
  C   1.26932637215279      1.21985664589778     -0.64364729952014
  N   1.42942226572348      2.34725673233773     -0.93029578437415
