15
Coordinates from ORCA-job run
  C   -0.39156067538510     -0.50024080390311      0.02566381421781
  C   1.10578413471705     -0.18672474043451     -0.20295128926788
  Br  -0.80065944687773     -2.19030317811647     -0.83393574049574
  H   1.69463637241463     -1.02960469056360      0.17143800697820
  N   -0.56625091468983     -0.74089398036921      1.52893002810102
  O   0.39097435350608     -1.22608556246955      2.12226130795047
  O   -1.65608370079721     -0.46058350149033      2.00841253670636
  C   -1.32113764907836      0.58960356952454     -0.44680631251522
  H   -2.35543364705930      0.30663034531960     -0.26413382233777
  H   -1.17712314973124      0.75161421470445     -1.51612798657111
  H   -1.11005887494576      1.51571116023154      0.09395635347336
  C   1.47738381826564      1.01585092128863      0.55179395429699
  N   1.74100588531167      1.98357059525957      1.16282530863457
  C   1.37694243772215      0.00495853952163     -1.62908775553778
  N   1.59158105662731      0.16649711149679     -2.77223840363324
