15
Coordinates from ORCA-job run
  C   -0.39459002371109     -0.32179605869445      0.08478478169912
  C   1.03000942487184      0.24768978917708     -0.09716196190143
  Br  -0.41056864335725     -2.19847791669603     -0.36235484435557
  H   1.01127640033391      1.29006502696575      0.24072201593791
  N   -0.78332206961350     -0.15674842470097      1.55967162493146
  O   -0.14530773388055      0.67790096760364      2.19667309602638
  O   -1.74646986274873     -0.79400764121232      1.95369535131499
  C   -1.43176542474842      0.43603693224353     -0.72168926836995
  H   -1.21925464369885      0.34847598509505     -1.78754115111272
  H   -1.41931937333677      1.49178714113316     -0.43274693258984
  H   -2.41942971610803      0.01999922175761     -0.52174503088977
  C   1.39909258751584      0.22354755650025     -1.51484059931606
  N   1.67620400449640      0.23395393917726     -2.65581720788226
  C   2.02280001887484     -0.46726938050457      0.70904066205687
  N   2.82864505511036     -1.03115713784503      1.35030946445088
