15
Coordinates from ORCA-job run
  C   -0.43489762598670     -0.46391267397387      0.02192578106576
  C   1.08302603673567     -0.28413189426527     -0.21578511132014
  Br  -1.00222245198056     -2.09626233225033     -0.85875121147272
  H   1.59559874419704     -1.18348342840209      0.13881146171625
  N   -0.61896903135295     -0.71082967611786      1.52312075444451
  O   -1.67542086210494     -0.34108692251246      2.01658769304941
  O   0.29497278803487     -1.28975633856736      2.10052581940329
  C   -1.26513538370539      0.71298268724295     -0.42615407364407
  H   -2.31924596570247      0.52246343435526     -0.23719101351045
  H   -1.11625342665528      0.87668490452004     -1.49457089018589
  H   -0.96593426629314      1.60808467754676      0.12521339886839
  C   1.56874346789002      0.86665577632016      0.55482725748265
  N   1.92393266879889      1.79834588987435      1.17548449575762
  C   1.35814499109534     -0.09124535036292     -1.64095902952169
  N   1.57466031702956      0.07549124659264     -2.78308533213290
