15
Coordinates from ORCA-job run
  C   -0.38347284728239     -0.32232545669474      0.12388497140143
  C   1.02164464402181      0.27075923918256     -0.12238265981044
  Br  -0.32666635209568     -2.24098472973265     -0.06967548349661
  H   0.96130250635316      1.34734722643680      0.07379924852627
  N   -0.79550129149137      0.02268542000072      1.56098804885119
  O   -0.19508199684854      0.95712559957512      2.08604976738219
  O   -1.74047743851515     -0.59134759159970      2.02884644311624
  C   -1.43779980725231      0.28279863702274     -0.78316656153310
  H   -2.41175781427400     -0.14133317690844     -0.53829916534251
  H   -1.20824551773253      0.06560344395967     -1.82664071335047
  H   -1.46871485393078      1.36679578917016     -0.63443684820114
  C   1.40804175230530      0.07267339920358     -1.52158326922264
  N   1.69703420760704     -0.05756582671175     -2.65228265049191
  C   2.03004895842588     -0.29312481848463      0.77891790624705
  N   2.84764585070957     -0.73710715441945      1.49498096592444
