15
Coordinates from ORCA-job run
  C   -0.43810472637868     -0.45872248867196      0.00588206417510
  C   1.08696213769578     -0.28705114987807     -0.18511107080079
  Br  -0.98881934371844     -2.08068347491100     -0.90490719188412
  H   1.58313045504149     -1.19048129186172      0.18242542987390
  N   -0.67243093975717     -0.71683559417636      1.49771885547082
  O   0.22961992785980     -1.28080183922763      2.10764828668333
  O   -1.75526161062216     -0.37272953643771      1.95094866310160
  C   -1.24732214226168      0.72712200260848     -0.45727588886308
  H   -0.96222144419748      1.61436911122929      0.11385521820682
  H   -2.30810860272872      0.54031008153392     -0.30582718449518
  H   -1.06173010874039      0.90217958638485     -1.51799987461658
  C   1.55861231879034      0.85722683367225      0.60361089812787
  N   1.90806186765630      1.77746325549849      1.24407354894701
  C   1.40716454233669     -0.09562374632250     -1.60117920710772
  N   1.66344766902433      0.06425825055970     -2.73586254681897
