15
Coordinates from ORCA-job run
  C   -0.38436417849089     -0.32229091903677      0.12139372559479
  C   1.02311226852833      0.27165706932486     -0.10892210596439
  Br  -0.32021080716267     -2.24268730491325     -0.05137244750274
  H   0.95694361776077      1.35004247139037      0.07553683129458
  N   -0.81996627487390      0.03590994124694      1.54826342153103
  O   -1.77265808699978     -0.57401750619796      2.00583113177586
  O   -0.22787128394722      0.97465001662111      2.07517841179034
  C   -1.42562017682912      0.27110626451908     -0.80819211552969
  H   -1.17962595369308      0.04299897484251     -1.84556505829822
  H   -1.46099716965651      1.35654946966064     -0.67153838447229
  H   -2.40248786028529     -0.15247316170764     -0.57398920701694
  C   1.43080315843164      0.06131800891214     -1.50025890221939
  N   1.73709409738294     -0.07648351540925     -2.62545431598323
  C   2.01894594323131     -0.28062124405496      0.81327912126552
  N   2.82690270660346     -0.71365856519783      1.54680989373476
