15
Coordinates from ORCA-job run
  C   -0.38033496010498     -0.50808839004964      0.03316767988682
  C   1.11215384990566     -0.16587089036893     -0.18505136285208
  Br  -0.73984720402670     -2.22764749516661     -0.78942772741297
  H   1.71493549223815     -0.98535246634101      0.21808905577982
  N   -0.56840917446367     -0.71613296797087      1.53971883665256
  O   0.39209027427117     -1.16400194753882      2.15655997629874
  O   -1.67070620822638     -0.45044204032005      1.99858234994185
  C   -1.32862374733202      0.54803016901523     -0.47720289959825
  H   -1.17410783415258      0.68821313946745     -1.54807947345851
  H   -2.35839868657281      0.24527834219598     -0.30103984531893
  H   -1.14640696826929      1.49131623980732      0.04395712401247
  C   1.44689739143216      1.06360130598781      0.54318194169341
  N   1.68142345479753      2.05185541458762      1.13287038340756
  C   1.39768976251909     -0.00422002222735     -1.61211991962513
  N   1.62364455798468      0.13346160892185     -2.75620611940736
