14

C	0.0	0.0	0.0
C	-0.419586	0.340348	-1.512672
Cl	1.783241	0.0	0.0
H	0.322601	-0.214034	-2.098799
C	-0.483522	0.971998	0.971563
N	-0.774127	1.812	1.741618
C	-0.44031	-1.361066	0.295739
N	-0.700482	-2.496717	0.450338
C	-0.149222	1.772327	-1.719737
N	0.071669	2.909512	-1.91056
N	-1.71608	-0.016321	-1.962552
H	-1.801994	-1.024261	-2.022344
H	-2.485328	0.292251	-1.347217
Cl	-4.081483	0.0	0.0
