14

C	0.0	0.0	0.0
C	-0.442265	0.06861	-1.520227
Cl	1.782583	0.0	0.0
H	0.491873	0.156478	-2.081588
C	-0.416194	1.166183	0.784165
N	-0.574446	2.133411	1.433332
C	-0.420531	-1.242542	0.65431
N	-0.531303	-2.264774	1.224268
C	-1.164734	1.320075	-1.834793
N	-1.551	2.333824	-2.288893
N	-1.058366	-1.171372	-1.929049
H	-1.986115	-1.183507	-1.497448
H	-1.16919	-1.155376	-2.936622
Cl	-3.1124	0.0	0.0
