14

C	0.0	0.0	0.0
C	-0.544749	0.113032	-1.441716
Cl	1.780296	0.0	0.0
H	-1.640083	0.032858	-1.285236
C	-0.422826	1.160683	0.792855
N	-0.596846	2.104197	1.470719
C	-0.417198	-1.25926	0.629427
N	-0.573848	-2.314724	1.121883
C	-0.083271	-1.020633	-2.247592
N	0.267069	-1.911112	-2.930823
N	-0.212219	1.408098	-1.992712
H	0.588017	1.370547	-2.607974
H	-1.010037	1.786708	-2.482155
Cl	-3.341872	0.0	0.0
