14

C	-0.342928	-0.135631	-1.480916
C	0.0	0.0	0.0
F	-0.196516	1.15031	-2.066243
H	1.094586	0.0	0.0
H	-0.387433	0.956336	0.353791
N	0.507549	-1.092566	-2.068918
H	0.407844	-1.121205	-3.07441
H	1.47488	-0.904327	-1.808912
C	-1.764561	-0.48632	-1.714223
N	-2.908365	-0.668835	-1.903839
N	-0.553142	-1.12365	0.754901
H	-0.877973	-0.803709	1.655227
H	0.190763	-1.79049	0.923982
Br	3.613786	0.0	0.0
