14

C	-0.541494	-0.055591	-1.418994
C	0.0	0.0	0.0
F	-0.17414	-1.21903	-2.050708
H	1.093142	0.0	0.0
H	-0.313058	0.968188	0.424973
N	-1.991616	-0.034829	-1.40953
H	-2.304089	0.831522	-0.986435
H	-2.328579	-0.051637	-2.366257
C	-0.001257	1.069621	-2.23399
N	0.313736	2.018557	-2.850192
N	-0.455918	-1.160941	0.746797
H	-1.294638	-0.968407	1.273065
H	0.281269	-1.447891	1.375613
Br	3.620049	0.0	0.0
