14

C	-0.561051	0.007678	-1.413072
C	0.0	0.0	0.0
F	-0.007697	-1.093326	-2.101329
H	1.096456	0.0	0.0
H	-0.363678	0.898563	0.503831
N	-1.978482	-0.074769	-1.372262
H	-2.199	-0.814291	-0.711431
H	-2.346539	-0.290247	-2.290066
C	-0.166937	1.209271	-2.177564
N	0.085657	2.170913	-2.800558
N	-0.540185	-1.1942	0.676325
H	-0.488647	-1.036873	1.674825
H	0.101326	-1.955182	0.479668
Br	3.640325	0.0	0.0
