15

C	0.0	0.0	0.0
C	-0.496487	0.013375	-1.453246
Br	1.972026	0.0	0.0
H	-0.141268	-0.857603	-2.012223
H	-1.603975	-0.034615	-1.322745
N	-0.499395	1.099724	0.773818
H	-1.529856	0.96221	0.737275
H	-0.289354	1.972921	0.296263
C	-0.447245	-1.293128	0.656122
H	-1.546029	-1.281835	0.627903
H	-0.100155	-1.309776	1.690468
H	-0.055664	-2.163424	0.123456
C	-0.139253	1.23199	-2.16473
N	0.141525	2.226971	-2.723554
H	-3.090355	0.0	0.0
