15

C	0.0	0.0	0.0
C	-0.502279	-0.037984	-1.450957
Br	1.971101	0.0	0.0
H	-1.610199	-0.052643	-1.315247
H	-0.221228	0.885042	-1.968197
N	-0.522152	1.140411	0.695649
H	-0.349435	1.976509	0.142562
H	-1.551282	0.971368	0.675635
C	-0.439934	-1.252797	0.734681
H	-0.033614	-2.152263	0.268799
H	-0.110501	-1.195086	1.773388
H	-1.537675	-1.257004	0.6914
C	-0.062399	-1.18285	-2.235019
N	0.287782	-2.112277	-2.863566
H	-3.08481	0.0	0.0
