15

C	0.0	0.0	0.0
C	-0.607026	0.107148	-1.383782
Br	2.030043	0.0	0.0
H	-0.375557	1.070904	-1.848089
H	-1.721858	0.082102	-1.128053
N	-0.416787	1.136101	0.732792
H	-0.033197	1.995538	0.362397
H	-0.195352	1.05274	1.715512
C	-0.476788	-1.257685	0.682932
H	-0.154123	-2.148654	0.142246
H	-1.579145	-1.166928	0.674818
H	-0.102171	-1.310787	1.709102
C	-0.239239	-0.972654	-2.282666
N	0.035499	-1.856	-3.007766
H	-3.214541	0.0	0.0
