15

C	0.0	0.0	0.0
C	-0.527367	-0.066443	-1.431412
Br	1.964786	0.0	0.0
H	-0.246202	0.845809	-1.96228
H	-1.635532	-0.076856	-1.284677
N	-0.518868	1.226832	0.545475
H	-0.308024	1.24855	1.540938
H	-1.551101	1.094609	0.463206
C	-0.423271	-1.243697	0.773696
H	-0.081119	-1.17108	1.810086
H	-1.521401	-1.244314	0.74647
H	-0.023268	-2.160431	0.333377
C	-0.104377	-1.237228	-2.183296
N	0.222254	-2.177873	-2.805887
H	-3.089543	0.0	0.0
