17

C	0.0	0.0	0.0
C	-0.498314	0.117504	-1.4349
F	1.405645	0.0	0.0
H	-1.590932	0.145286	-1.347181
C	-0.359573	1.213929	0.7652
N	-0.531445	2.179101	1.41
C	-0.489921	-1.243966	0.702653
H	-0.092883	-1.268255	1.720137
H	-0.154302	-2.114865	0.141658
H	-1.582237	-1.219149	0.729053
N	-0.121611	-1.094998	-2.158316
H	-0.67881	-1.16505	-3.00006
H	0.854746	-1.035309	-2.425567
N	-0.03788	1.387061	-1.979793
H	0.964693	1.353062	-2.125603
H	-0.489836	1.560935	-2.868432
Br	-3.944087	0.0	0.0
