17

C	0.0	0.0	0.0
C	-0.551081	0.187015	-1.419572
F	1.395471	0.0	0.0
H	-1.562092	0.591019	-1.289449
C	-0.365333	1.194449	0.793509
N	-0.603752	2.110801	1.487027
C	-0.482438	-1.254667	0.691707
H	-1.575073	-1.238354	0.727877
H	-0.126701	-2.115709	0.12609
H	-0.077261	-1.289373	1.705453
N	-0.582396	-1.110837	-2.111557
H	-1.409665	-1.601151	-1.776858
H	-0.766266	-0.912259	-3.090657
N	0.267946	1.169811	-2.090884
H	1.161483	0.751175	-2.321904
H	-0.187924	1.472821	-2.942347
Br	-3.903586	0.0	0.0
