17

C	0.0	0.0	0.0
C	-0.530872	0.083753	-1.437474
F	1.388709	0.0	0.0
H	-1.591612	-0.187459	-1.373444
C	-0.374922	1.202672	0.774126
N	-0.574865	2.17227	1.405118
C	-0.489918	-1.254728	0.687505
H	-0.050205	-1.322684	1.685624
H	-1.579207	-1.214233	0.75622
H	-0.181531	-2.108734	0.084071
N	0.168834	-0.915199	-2.221569
H	1.075119	-0.534676	-2.47333
H	-0.35313	-1.101032	-3.068426
N	-0.326459	1.435646	-1.974478
H	-0.707294	1.434306	-2.916119
H	-0.912065	2.079057	-1.447227
Br	-3.929806	0.0	0.0
