17

C	0.0	0.0	0.0
C	-0.510385	0.089775	-1.43072
F	1.415845	0.0	0.0
H	-1.602045	0.132627	-1.332864
C	-0.357749	1.222653	0.748117
N	-0.535201	2.171913	1.414915
C	-0.481786	-1.230438	0.730664
H	-0.148705	-2.112624	0.185961
H	-0.079025	-1.232303	1.745672
H	-1.574399	-1.20462	0.761501
N	-0.163463	-1.142755	-2.135238
H	0.800026	-1.093717	-2.447349
H	-0.75952	-1.238026	-2.94737
N	-0.044365	1.342742	-2.008713
H	-0.507313	1.501891	-2.894594
H	0.955736	1.295115	-2.167565
Br	-3.947928	0.0	0.0
