17

C	0.0	0.0	0.0
C	-0.563255	0.160714	-1.418181
F	1.390403	0.0	0.0
H	-1.557739	0.601468	-1.287212
C	-0.350915	1.219341	0.766868
N	-0.534779	2.199113	1.386241
C	-0.483574	-1.238151	0.719757
H	-1.576012	-1.225743	0.755087
H	-0.124698	-2.113365	0.176482
H	-0.081519	-1.249087	1.734589
N	-0.651928	-1.156514	-2.069869
H	-0.866774	-0.976584	-3.046083
H	-1.484101	-1.608786	-1.693636
N	0.275686	1.094715	-2.134358
H	-0.190463	1.394258	-2.981071
H	1.144879	0.635785	-2.379134
Br	-3.902197	0.0	0.0
