17

C	-0.512248	-0.010961	-1.435395
C	0.0	0.0	0.0
F	-0.138313	1.11828	-2.079576
H	1.094368	0.0	0.0
N	0.181257	-1.165831	-2.21353
O	1.053414	-0.895312	-3.022011
O	-0.2612	-2.28918	-1.964388
N	-1.923422	-0.12779	-1.536752
H	-2.214666	-1.042382	-1.219145
H	-2.203256	-0.006236	-2.503531
C	-0.453516	-1.187847	0.85556
H	-1.541064	-1.229214	0.961035
H	-0.085849	-2.121035	0.432438
H	-0.015983	-1.072618	1.84811
C	-0.467354	1.246101	0.607266
N	-0.868183	2.212597	1.140298
Cl	3.287504	0.0	0.0
