17

C	-0.240532	-0.037128	-1.504585
C	0.0	0.0	0.0
F	-0.110067	-1.361929	-1.940256
H	1.098758	0.0	0.0
N	-1.682707	0.262059	-1.933849
O	-1.85512	0.477054	-3.130752
O	-2.566619	0.211615	-1.083662
N	0.596207	0.861147	-2.154319
H	1.550391	0.781655	-1.80071
H	0.545593	0.770154	-3.159429
C	-0.514368	-1.196456	0.791731
H	-1.603093	-1.24556	0.785776
H	-0.100804	-2.111349	0.370218
H	-0.163504	-1.11004	1.821477
C	-0.448745	1.271851	0.55548
N	-0.794626	2.28409	1.04042
Cl	3.292644	0.0	0.0
