17

C	-0.536185	0.037602	-1.438963
C	0.0	0.0	0.0
F	0.0513	1.074263	-2.078389
H	1.094171	0.0	0.0
N	-0.10686	-1.241817	-2.158101
O	0.883327	-1.19262	-2.86814
O	-0.809628	-2.230905	-1.945916
N	-1.947141	0.133736	-1.638464
H	-2.389495	-0.733871	-1.36766
H	-2.30854	0.898189	-1.078552
C	-0.454621	-1.21291	0.817148
H	-0.095303	-1.090889	1.840024
H	-1.542417	-1.321128	0.837241
H	-0.010046	-2.122366	0.415669
C	-0.479372	1.227355	0.632861
N	-0.942821	2.18296	1.136077
Cl	3.282866	0.0	0.0
