17

C	-0.353242	-0.15782	-1.488951
C	0.0	0.0	0.0
F	-1.582717	-0.729889	-1.639101
H	1.094752	0.0	0.0
N	-0.437219	1.23087	-2.123485
O	-1.548943	1.686566	-2.362308
O	0.641011	1.78035	-2.312993
N	0.591898	-0.896479	-2.256638
H	1.530486	-0.568527	-2.018706
H	0.533175	-1.869567	-1.980913
C	-0.429621	-1.238948	0.792367
H	-1.515413	-1.333015	0.844137
H	-0.020129	-1.170836	1.801158
H	-0.011462	-2.136535	0.331005
C	-0.54933	1.205959	0.602695
N	-1.008237	2.154429	1.123153
Cl	3.290527	0.0	0.0
