17

C	-0.320987	-0.141013	-1.488612
C	0.0	0.0	0.0
F	-1.600971	-0.583423	-1.711539
H	1.094839	0.0	0.0
N	-0.324487	1.272197	-2.15541
O	-1.374243	1.906752	-2.140612
O	0.74343	1.646131	-2.630771
N	0.603439	-1.008012	-2.076087
H	1.546175	-0.817526	-1.735538
H	0.580474	-0.965085	-3.08539
C	-0.469408	-1.240947	0.765635
H	-0.071205	-2.130996	0.278771
H	-0.078645	-1.196798	1.783575
H	-1.558786	-1.300016	0.797985
C	-0.531207	1.210496	0.609313
N	-0.987401	2.144783	1.156369
Cl	3.28422	0.0	0.0
