17

C	-0.262403	0.063205	-1.511458
C	0.0	0.0	0.0
F	0.0312	-1.158639	-2.030477
H	1.097639	0.0	0.0
N	-1.7554	0.281726	-1.772252
O	-2.138094	1.444785	-1.872859
O	-2.468783	-0.715908	-1.80361
N	0.459102	1.050791	-2.22363
H	0.106868	1.969215	-1.985911
H	1.434797	0.979431	-1.934599
C	-0.542913	-1.236088	0.709108
H	-0.156888	-2.127978	0.21741
H	-0.192908	-1.235024	1.74286
H	-1.634764	-1.266126	0.700612
C	-0.447963	1.236334	0.630421
N	-0.811783	2.229467	1.142686
Cl	3.266083	0.0	0.0
