14

C	-0.339721	-0.019897	-1.493667
C	0.0	0.0	0.0
F	-0.05399	1.244056	-1.979607
H	1.092474	0.0	0.0
C	0.480826	-0.985398	-2.248009
N	1.058673	-1.744478	-2.932912
C	-1.770777	-0.271548	-1.757523
N	-2.924112	-0.385801	-1.946469
N	-0.434883	-1.239381	0.659039
O	-0.637691	-2.216431	-0.069415
O	-0.508344	-1.240873	1.883684
C	-0.550349	1.159546	0.657441
N	-0.972845	2.127993	1.174001
F	2.402977	0.0	0.0
