14

C	-0.327387	-0.050972	-1.496924
C	0.0	0.0	0.0
F	-0.097868	1.219914	-1.993875
H	1.094695	0.0	0.0
C	0.544743	-0.982969	-2.234685
N	1.188344	-1.691323	-2.914357
C	-1.741915	-0.37615	-1.774652
N	-2.8803	-0.57379	-1.987491
N	-0.412708	-1.240463	0.669885
O	-0.549865	-2.235129	-0.047884
O	-0.52074	-1.227288	1.891788
C	-0.570714	1.158946	0.638617
N	-1.016842	2.121596	1.14591
F	2.402049	0.0	0.0
