14

C	-0.409102	0.015188	-1.471524
C	0.0	0.0	0.0
F	0.021421	-1.161501	-2.047831
H	1.092378	0.0	0.0
C	-1.86578	0.120019	-1.714742
N	-3.008312	0.227334	-1.966179
C	0.250074	1.153603	-2.138332
N	0.733182	2.059726	-2.708548
N	-0.534092	-1.271395	0.601094
O	-1.759721	-1.380121	0.693647
O	0.283145	-2.11655	0.945536
C	-0.564552	1.133995	0.696398
N	-0.99095	2.074773	1.259081
F	2.434108	0.0	0.0
