14

C	-0.356346	-0.022982	-1.484152
C	0.0	0.0	0.0
F	0.329396	-1.01864	-2.134826
H	1.104981	0.0	0.0
C	-1.802403	-0.207896	-1.737982
N	-2.95605	-0.29993	-1.940878
C	0.051809	1.266501	-2.080752
N	0.354245	2.272368	-2.606569
N	-0.473981	-1.206198	0.705212
O	-0.828764	-2.170842	0.025628
O	-0.422957	-1.181379	1.932036
C	-0.504788	1.185947	0.649472
N	-0.895701	2.174463	1.153755
F	2.396934	0.0	0.0
