14

C	-0.351323	0.240047	-1.451233
C	0.0	0.0	0.0
F	-1.726134	0.226939	-1.677572
H	1.110775	0.0	0.0
C	0.150121	1.578949	-1.824765
N	0.508567	2.645852	-2.159506
C	0.264632	-0.731358	-2.37716
N	0.689989	-1.415669	-3.231674
N	-0.460585	-1.314762	0.480098
O	-0.588632	-2.212327	-0.352571
O	-0.631156	-1.443356	1.689545
C	-0.498017	1.0549	0.852389
N	-0.864163	1.946166	1.527492
F	2.393411	0.0	0.0
