14

C	-0.338846	-0.255837	-1.466542
C	0.0	0.0	0.0
F	0.254698	-1.415696	-1.899693
H	1.109723	0.0	0.0
C	-1.789517	-0.337097	-1.739398
N	-2.942489	-0.33303	-1.965306
C	0.21687	0.855357	-2.267611
N	0.643839	1.704379	-2.95752
N	-0.513547	-1.058373	0.891561
O	-1.021707	-2.058503	0.380375
O	-0.355	-0.878415	2.095304
C	-0.494567	1.284601	0.434356
N	-0.886893	2.345198	0.759127
F	2.400613	0.0	0.0
