18

C	0.0	0.0	0.0
C	-0.267445	-0.00995	-1.550882
Br	1.967848	0.0	0.0
H	0.498655	0.634682	-1.992066
C	-0.471216	1.308787	0.614019
H	-0.147682	1.364009	1.657971
H	-1.569346	1.287029	0.579405
H	-0.082515	2.181893	0.081865
N	-0.568454	-1.1665	0.604022
H	-0.431632	-1.110611	1.609891
H	-1.590051	-1.07006	0.449241
C	-1.624859	0.514727	-2.032784
H	-2.464227	0.122735	-1.438001
H	-1.649152	1.602484	-1.922313
H	-1.742839	0.274007	-3.094009
C	-0.002588	-1.348965	-2.090141
N	0.207315	-2.379192	-2.614098
H	-3.484633	0.0	0.0
