18

C	0.0	0.0	0.0
C	-0.246909	-0.009994	-1.554821
Br	1.967895	0.0	0.0
H	0.454373	0.725711	-1.961926
C	-0.469702	1.310155	0.611158
H	-1.569098	1.27972	0.578842
H	-0.141507	1.368586	1.6536
H	-0.083912	2.18192	0.073243
N	-0.57791	-1.165667	0.593629
H	-0.446843	-1.115183	1.600648
H	-1.600714	-1.041264	0.437053
C	-1.629707	0.360611	-2.103304
H	-2.42287	-0.283925	-1.729502
H	-1.565584	0.338336	-3.19777
H	-1.903821	1.366112	-1.782076
C	0.160314	-1.304932	-2.113265
N	0.436998	-2.319056	-2.636731
H	-3.374719	0.0	0.0
