18

C	0.0	0.0	0.0
C	-0.247104	0.057156	-1.569916
Br	1.982149	0.0	0.0
H	0.528386	0.700819	-1.995949
C	-0.489792	1.27798	0.648605
H	-0.099552	2.161432	0.138595
H	-1.587792	1.259873	0.601887
H	-0.175309	1.292457	1.693485
N	-0.568334	-1.107521	0.682972
H	-0.400301	-1.971283	0.177043
H	-1.589281	-0.935689	0.703398
C	-1.614257	0.593008	-2.006507
H	-2.432684	0.21076	-1.370316
H	-1.620064	1.682479	-1.908899
H	-1.793035	0.341739	-3.056288
C	-0.014334	-1.27886	-2.123111
N	0.145542	-2.353044	-2.573537
H	-3.492404	0.0	0.0
