17
Coordinates from ORCA-job run
  C   -0.49258892925770      0.14576190289315     -0.26810073470393
  C   0.99569508498021      0.38874934858350     -0.04516741724119
  F   -0.63686026089992     -0.31981192168532     -1.59322423771083
  H   1.31230828729911      1.13025043546253     -0.78657602282007
  H   1.12742006038676      0.85045878563028      0.93986817219836
  C   -1.28201309275177      1.43819640875871     -0.17886422056714
  H   -1.24331447506171      1.84892744307078      0.83286607248392
  H   -2.32620882653928      1.25705115431694     -0.44270426691135
  H   -0.87468538087869      2.17671865837455     -0.87281694648480
  C   -1.06812717679638     -0.93025720824951      0.63294686161355
  H   -0.92202974414882     -0.67428496159175      1.68548431093136
  H   -0.59209170044971     -1.89146159875452      0.43650462171245
  H   -2.13866245809564     -1.03848589409520      0.44586671656257
  C   1.86472725373692     -0.85883945061903     -0.16936543648289
  H   1.70004224831522     -1.55573187025429      0.65467507998437
  H   1.65310619376321     -1.37679475931289     -1.10623204671816
  H   2.92328291639818     -0.58944647252794     -0.16416050584623
