17
Coordinates from ORCA-job run
  C   -0.52759299449666     -0.11074188519709     -0.21272674527991
  C   0.85921073793455     -0.61408604179189      0.17084265835477
  F   -0.62107097982073     -0.20136768081643     -1.61863283172506
  H   0.92279614486191     -0.65448789928153      1.26406672997139
  H   0.93450268136097     -1.64608971578981     -0.18840587907769
  C   -0.75857586804391      1.34574806359586      0.14262376218122
  H   -0.62484509664655      1.50962985991894      1.21498509114976
  H   -1.77459612978894      1.63856229218136     -0.13072533768490
  H   -0.06442017884018      1.98861044696147     -0.39958343050601
  C   -1.61479903156943     -1.00772187942304      0.34847849360375
  H   -1.62655956391321     -0.96873307185226      1.44032943308664
  H   -1.44851850445253     -2.04109369400321      0.03639253918604
  H   -2.59099418953674     -0.68870563696534     -0.02305362901989
  C   2.00983957613137      0.20904688058266     -0.39978437461453
  H   2.07437703715273      1.19651054617004      0.06127288582923
  H   1.88615161214421      0.33874516499763     -1.47619363015055
  H   2.96309474752313     -0.29582574928737     -0.22788573530425
