18

C	0.0	0.0	0.0
C	-0.550416	0.005097	-1.426218
Br	2.034263	0.0	0.0
H	-1.657682	-0.057353	-1.188759
N	-0.4268	1.195168	0.648363
H	0.244354	1.943713	0.593292
H	-0.725109	1.03183	1.597417
C	-0.498985	-1.214753	0.740699
H	-1.601497	-1.106373	0.724314
H	-0.123358	-1.221817	1.767746
H	-0.199943	-2.137812	0.243213
C	-0.134326	-1.16814	-2.18273
N	0.182008	-2.118015	-2.800494
C	-0.286656	1.289682	-2.203793
H	0.785548	1.491925	-2.289354
H	-0.707596	1.212853	-3.209578
H	-0.781467	2.11202	-1.685131
H	-3.206513	0.0	0.0
