18

C	0.0	0.0	0.0
C	-0.556704	-0.097907	-1.436361
Br	1.954566	0.0	0.0
H	-1.659323	-0.119008	-1.205817
N	-0.499427	1.154186	0.699671
H	-1.529907	1.014652	0.679668
H	-0.294189	1.996083	0.171474
C	-0.436526	-1.228313	0.784495
H	-1.534634	-1.234681	0.750917
H	-0.034586	-2.146027	0.351924
H	-0.099425	-1.128345	1.817555
C	-0.204901	-1.347115	-2.098049
N	0.042866	-2.347882	-2.664365
C	-0.248694	1.08905	-2.345032
H	0.828137	1.216901	-2.482205
H	-0.669402	2.003372	-1.922205
H	-0.71149	0.938996	-3.323299
H	-3.080674	0.0	0.0
