13

C	-0.465303	0.111006	-1.449886
C	0.0	0.0	0.0
Cl	-0.299466	-1.481087	-2.25847
H	1.088897	0.0	0.0
H	-1.5248	0.362976	-1.506301
H	-0.358637	0.887478	0.529259
N	0.313621	1.08384	-2.175486
H	1.301807	0.903673	-1.998599
H	0.102389	2.007715	-1.812859
N	-0.61529	-1.151051	0.69801
O	-1.848569	-1.121901	0.784468
O	0.101018	-2.049652	1.126552
Br	3.54248	0.0	0.0
