13

C	-0.523422	0.103087	-1.41129
C	0.0	0.0	0.0
Cl	-2.432713	0.195677	-1.283009
H	1.092096	0.0	0.0
H	-0.29515	1.101533	-1.780789
H	-0.364436	0.83062	0.598899
N	-0.069966	-0.866445	-2.292907
H	-0.168345	-1.804877	-1.935077
H	-0.418828	-0.759755	-3.232319
N	-0.457735	-1.219289	0.709299
O	-0.791537	-1.096036	1.885018
O	-0.444274	-2.29005	0.098239
Br	3.490942	0.0	0.0
