13

C	-0.555642	-0.008501	-1.407217
C	0.0	0.0	0.0
Cl	-0.032952	1.566573	-2.182902
H	1.088941	0.0	0.0
H	-0.07066	-0.78453	-1.995283
H	-0.389879	0.832871	0.584237
N	-1.965772	-0.197095	-1.410027
H	-2.42757	0.559991	-0.920623
H	-2.32577	-0.242794	-2.354361
N	-0.449874	-1.24522	0.675524
O	-1.071616	-1.134677	1.73408
O	-0.16872	-2.308029	0.128407
Br	3.518228	0.0	0.0
