13

C	-0.372617	-0.054628	-1.459381
C	0.0	0.0	0.0
Cl	-2.161717	-0.309771	-1.660979
H	1.092787	0.0	0.0
H	-0.198659	0.92145	-1.915722
H	-0.389504	-0.850051	0.55394
N	0.338758	-1.157926	-2.043645
H	0.309871	-1.093776	-3.053132
H	1.312222	-1.10699	-1.742884
N	-0.487688	1.226234	0.665408
O	-0.894109	1.115581	1.821383
O	-0.432527	2.283619	0.039786
Br	3.458863	0.0	0.0
