16

C	-0.455733	-0.065689	-1.459739
C	0.0	0.0	0.0
F	-0.245784	1.180893	-2.048836
H	1.095029	0.0	0.0
C	0.349721	-1.102168	-2.21318
H	0.091556	-1.072797	-3.274387
H	1.406454	-0.869154	-2.057757
H	0.142296	-2.090657	-1.804913
C	-1.908782	-0.335193	-1.541899
N	-3.060258	-0.563035	-1.594015
N	-0.362765	-1.242926	0.675539
H	-1.18785	-1.133352	1.251115
H	0.424345	-1.504422	1.262324
C	-0.508172	1.198545	0.660263
N	-0.933118	2.130388	1.239074
H	2.716919	0.0	0.0
