16

C	-0.436985	0.001755	-1.472774
C	0.0	0.0	0.0
F	0.003195	-1.207644	-2.01911
H	1.100931	0.0	0.0
C	-1.934272	0.065769	-1.687193
H	-2.168461	-0.06063	-2.74708
H	-2.393271	-0.731284	-1.103232
H	-2.318871	1.028331	-1.346424
C	0.24399	1.090525	-2.196964
N	0.769909	1.967489	-2.77468
N	-0.596995	-1.165532	0.651885
H	-0.4073	-1.106632	1.645216
H	-0.098277	-1.980259	0.30611
C	-0.462301	1.226407	0.637936
N	-0.822492	2.213931	1.167315
H	2.748582	0.0	0.0
