16

C	-0.420896	0.051964	-1.458129
C	0.0	0.0	0.0
F	-1.820946	0.172339	-1.569206
H	1.095389	0.0	0.0
C	0.238988	1.214109	-2.170202
H	-0.003444	1.199388	-3.234459
H	-0.118668	2.148712	-1.733198
H	1.320881	1.136861	-2.017753
C	-0.068729	-1.22257	-2.112315
N	0.226053	-2.200556	-2.690249
N	-0.419104	-1.229833	0.653753
H	-1.253744	-1.099848	1.210276
H	0.34281	-1.529941	1.252161
C	-0.45194	1.208893	0.68482
N	-0.828072	2.157017	1.271538
H	2.678512	0.0	0.0
