16

C	-0.517913	-0.019878	-1.442076
C	0.0	0.0	0.0
F	0.074032	-1.087606	-2.096569
H	1.094734	0.0	0.0
C	-2.021391	-0.210498	-1.536224
H	-2.547331	0.635444	-1.089285
H	-2.318448	-0.307199	-2.582233
H	-2.265121	-1.128223	-1.000805
C	-0.133267	1.215546	-2.158543
N	0.055081	2.196127	-2.776613
N	-0.368321	-1.242771	0.680497
H	-1.024177	-1.07573	1.43494
H	0.497679	-1.609446	1.074671
C	-0.487027	1.187692	0.683302
N	-0.904711	2.125591	1.259594
H	2.652108	0.0	0.0
