16

C	-0.451055	-0.055689	-1.461937
C	0.0	0.0	0.0
F	-0.230188	1.191885	-2.044402
H	1.097937	0.0	0.0
C	0.350382	-1.094528	-2.216431
H	0.133178	-2.083912	-1.815496
H	0.09777	-1.056225	-3.278877
H	1.40825	-0.870319	-2.053692
C	-1.905641	-0.31403	-1.551772
N	-3.058267	-0.533446	-1.610392
N	-0.366026	-1.247809	0.665692
H	-1.19726	-1.141126	1.232218
H	0.413942	-1.510329	1.260667
C	-0.510352	1.195707	0.663289
N	-0.948929	2.140446	1.209905
H	2.716455	0.0	0.0
