16

C	-0.517983	0.0299	-1.442483
C	0.0	0.0	0.0
F	0.055415	-1.036886	-2.121277
H	1.100875	0.0	0.0
C	-2.025008	-0.129835	-1.542522
H	-2.534022	0.720749	-1.084626
H	-2.320812	-0.205958	-2.591269
H	-2.28923	-1.04922	-1.018442
C	-0.096647	1.270783	-2.127275
N	0.150643	2.257312	-2.714365
N	-0.378002	-1.267401	0.6311
H	0.495282	-1.687905	0.938358
H	-0.958603	-1.115976	1.444363
C	-0.490269	1.159211	0.726135
N	-0.901412	2.070666	1.347431
H	2.652099	0.0	0.0
