14

C	-0.596036	-0.068435	-1.396266
C	0.0	0.0	0.0
Br	0.005711	1.657034	-2.277432
H	1.088275	0.0	0.0
H	-0.370756	0.888783	0.509844
C	-0.067731	-1.128063	-2.255682
N	0.262791	-1.941238	-3.03664
N	-2.010184	-0.1836	-1.33108
H	-2.43014	-0.202703	-2.251807
H	-2.406575	0.573275	-0.787423
N	-0.479042	-1.164982	0.790448
O	-1.053607	-0.927006	1.85411
O	-0.26496	-2.282991	0.332055
Br	3.429034	0.0	0.0
