14

C	-0.343364	0.11079	-1.484024
C	0.0	0.0	0.0
Br	-0.15664	-1.865757	-2.167363
H	1.088707	0.0	0.0
H	-0.452193	-0.866596	0.466717
C	-1.74997	0.394261	-1.771575
N	-2.882281	0.617719	-2.000483
N	0.518494	1.001489	-2.100471
H	1.48559	0.886942	-1.791256
H	0.426125	1.057563	-3.104088
N	-0.506153	1.202058	0.716721
O	0.113217	2.255352	0.595584
O	-1.538966	1.051757	1.377511
Br	3.444071	0.0	0.0
