14

C	-0.597858	-0.038206	-1.396208
C	0.0	0.0	0.0
Br	0.00173	1.706248	-2.236417
H	1.088315	0.0	0.0
H	-0.369466	0.878091	0.528835
C	-0.071828	-1.078232	-2.279524
N	0.255608	-1.8736	-3.079054
N	-2.011854	-0.154018	-1.335011
H	-2.40849	0.590247	-0.776827
H	-2.430715	-0.152446	-2.25664
N	-0.477322	-1.180068	0.768622
O	-0.278969	-2.288513	0.280107
O	-1.033762	-0.963199	1.846847
Br	3.427772	0.0	0.0
