16

C	0.0	0.0	0.0
C	-0.190116	0.063626	-1.558875
Cl	1.803327	0.0	0.0
H	0.415842	-0.761612	-1.94802
H	0.332395	0.976797	-1.876953
C	-0.273554	1.32253	0.739663
H	0.172899	1.258343	1.737991
H	0.202329	2.150425	0.200496
H	-1.340842	1.499873	0.825029
C	-0.756594	-1.109245	0.58584
N	-0.731516	-2.132734	1.205968
C	-1.540051	-0.001165	-2.26736
H	-2.184497	0.835693	-2.017581
H	-2.088804	-0.910323	-2.017752
H	-1.346982	0.011717	-3.359408
H	-2.194928	0.0	0.0
