16

C	0.0	0.0	0.0
C	-0.560027	-0.080522	-1.41234
Cl	1.803688	0.0	0.0
H	-0.21875	0.81294	-1.948436
H	-1.654435	-0.009417	-1.245533
C	-0.523568	1.236909	0.706168
H	-1.622538	1.129658	0.702126
H	-0.137887	1.302483	1.726233
H	-0.223359	2.126279	0.14535
C	-0.355527	-1.207004	0.764739
N	-0.526319	-2.189017	1.386975
C	-0.216111	-1.350999	-2.173682
H	-0.649336	-2.220838	-1.673934
H	-0.641079	-1.304942	-3.180381
H	0.862971	-1.503287	-2.265021
H	-3.262519	0.0	0.0
