16
Coordinates from ORCA-job run
  C   0.76736055875567     -0.58159380510910      0.02810659207794
  C   -0.56182851625383      0.08534113627637     -0.31982903456219
  F   0.91501252299294     -1.63269263801830     -0.87837425432508
  H   -0.50035720404371      0.49509594848881     -1.32943826862900
  H   0.69981052096003     -1.02448362403654      1.02585182809673
  C   1.96122812421544      0.33532846998918     -0.08754395997372
  H   1.92353398714335      1.12419455430400      0.66589819146688
  H   1.99709242090524      0.79398438873599     -1.07775660199582
  H   2.87575411349063     -0.23961705224690      0.06515142081138
  N   -0.70646925346755      1.26994316467189      0.57989915406101
  O   -0.67156670052934      2.38724858995465      0.06836498970550
  O   -0.82029243802789      1.03605575285922      1.78272996251384
  C   -1.75199117855289     -0.83863192135978     -0.15715664467734
  H   -2.67990604087991     -0.32460074646552     -0.41570615714207
  H   -1.81889418433168     -1.19226028897183      0.87223501767257
  H   -1.63048673237649     -1.69431192907214     -0.82143223510064
