14

C	-0.397008	-0.118532	-1.412826
C	0.0151	-0.144113	0.073158
Br	0.349959	1.365437	-2.374397
H	1.088074	-0.390097	0.076653
H	-0.099215	-1.034138	-1.920636
N	-1.894905	-0.063176	-1.553101
O	-2.424162	-0.966227	-2.197353
O	-2.484002	0.859387	-0.996519
C	-0.737186	-1.25936	0.67974
N	-1.347944	-2.156331	1.130545
N	-0.113427	1.061737	0.845388
H	-0.864253	1.645958	0.506812
H	0.786257	1.533751	0.797349
Cl	3.124066	0.755388	0.227729
