14

C	-0.257442	0.101861	-1.368208
C	-0.102403	-0.2492	0.106392
Br	-2.073354	0.553078	-1.853609
H	0.917942	-0.634565	0.19757
H	0.390738	0.949506	-1.593236
N	0.195791	-1.016491	-2.26656
O	0.378431	-0.732285	-3.444093
O	0.357746	-2.126418	-1.762578
C	-1.045083	-1.282431	0.549202
N	-1.786505	-2.082155	0.983966
N	-0.309928	0.977782	0.872135
H	0.539981	1.522387	0.703431
H	-0.316749	0.737035	1.85735
Cl	2.582064	1.474893	-0.46069
