14

C	-0.808522	0.018965	-1.41782
C	0.069247	-0.06597	-0.172058
Br	-0.580322	-1.478364	-2.623391
H	1.123914	-0.114522	-0.458284
H	-1.866609	0.091535	-1.174726
N	-0.471673	1.28214	-2.158621
O	-1.413145	2.033737	-2.397645
O	0.697773	1.456763	-2.467176
C	-0.284858	-1.293268	0.56103
N	-0.657291	-2.228184	1.167666
N	-0.128801	1.161525	0.570976
H	0.764346	1.333698	1.052574
H	-0.852059	1.040236	1.270044
Cl	2.831107	0.748612	1.515875
