12
Coordinates from ORCA-job run
  C   -0.42012682643527     -0.07195611620756      0.64708710993714
  C   0.45964238685388      0.19843101234717     -0.54960771840373
  F   0.08035253888627     -1.10593513260482      1.37251707040961
  H   0.01211513546096      1.01382306303262     -1.11941840329817
  H   -0.53692953266725      0.80199814545897      1.28730499869978
  H   0.45700045890827     -0.70547837231223     -1.17695235078945
  N   -1.80147344556570     -0.44457770939510      0.16740922992146
  O   -2.16689119781278     -1.60632054047224      0.27537078908245
  O   -2.43059570804676      0.48556745882255     -0.32928589469787
  N   1.76585402203657      0.60718643286409     -0.05636692696425
  H   2.30657293461617      1.02533614539730     -0.80094578499700
  H   2.27447923376565     -0.19807438693075      0.28388788110003
