12
Coordinates from ORCA-job run
  C   -0.37059846081696     -0.55589381552531      0.67262672783064
  C   0.73802267495494     -0.40291992533772     -0.33905389078121
  F   -0.75655114367767     -1.86236110206380      0.76196270090718
  H   1.57607389366231     -1.03602842560319     -0.02146253016462
  H   -0.13113576560389     -0.17787958850477      1.66627140730912
  H   0.35688895793315     -0.79849220961972     -1.28166738707545
  N   -1.56290059394481      0.23912372427291      0.21068441733753
  O   -2.02224489732932     -0.06063186718972     -0.88603203193334
  O   -1.97797289542621      1.11175178765326      0.96627586360731
  N   1.04296743851178      1.01265702648932     -0.47666945597078
  H   1.78570082141565      1.29440601011642      0.14749266479784
  H   1.32174997032102      1.23526838531232     -1.42042848586423
