12
Coordinates from ORCA-job run
  C   -0.44973423456607      0.05081158034486      0.53134718919175
  C   0.56475247561064     -0.00138061601382     -0.60040896449562
  F   -0.07269556863739     -0.78297749414573      1.53685387957044
  H   0.58617104475876     -1.03196575821589     -0.96773798194207
  H   -0.60461690762036      1.05310164332271      0.93388752358811
  H   0.21459870704290      0.63835804403853     -1.41257984440913
  N   -1.78819595160009     -0.39612218315499      0.00440930072950
  O   -2.35703856750811      0.43593895212007     -0.69740008826979
  O   -2.16725538113575     -1.53032256039728      0.26019707222488
  N   1.90571027759003      0.38644953128905     -0.21407441430562
  H   2.22869255143612     -0.18024750641092      0.55882696664800
  H   1.94061155462931      1.35835636722341      0.06467936146955
