12
Coordinates from ORCA-job run
  C   -0.39675018261659      0.00988775151703      0.57525245242928
  C   0.50379347021829      0.04594091365431     -0.65018344406967
  F   0.07917511999301     -0.88753300560253      1.47899739663916
  H   0.07318898908006      0.73504420624289     -1.37911114660625
  H   -0.51555048898617      0.98035294610013      1.05959035006771
  H   0.49353155011269     -0.95761878490470     -1.08636606717403
  N   -1.77763295547167     -0.41359748067331      0.14921413868218
  O   -2.41890653814971      0.46217288606696     -0.42568445895232
  O   -2.12133142957056     -1.56996856785758      0.34987126309531
  N   1.87402437237301      0.42103028613167     -0.36997014808524
  H   2.27517759544385     -0.19632716125743      0.32334403719873
  H   1.93228049757378      1.37061601058255     -0.02595437322487
