12
Coordinates from ORCA-job run
  C   -0.40330584891292     -0.57820231825608      0.60742458073869
  C   0.76223777030212     -0.33560185189294     -0.33140153051836
  F   -0.68754740095702     -1.90068746324348      0.69688284107224
  H   0.41342051558365     -0.48738167592713     -1.36375338349516
  H   -0.21398465604093     -0.16242247637327      1.59843242047601
  H   1.48153017055911     -1.12729131777939     -0.10851596582395
  N   -1.63930651303671      0.12545259872200      0.08717126958852
  O   -2.64947865175771     -0.52983241162324     -0.11538057704249
  O   -1.50083738285564      1.33337136090682     -0.09299308154916
  N   1.38426037895977      0.94955202430312     -0.05637074802637
  H   0.78505041018534      1.69824485568382     -0.37629583685380
  H   2.26696120797094      1.01479867547982     -0.54519998856618
