12
Coordinates from ORCA-job run
  C   -0.44584020906590     -0.19352597911510      0.60371305076668
  C   0.48068694579833      0.29985239785947     -0.48144107269210
  F   0.02889882923882     -1.34994406027254      1.13571534051476
  H   0.05272424465208      1.21158497127266     -0.90037692412708
  H   -0.59277680425652      0.54056647795791      1.39544473838985
  H   0.50702256436916     -0.46594241927718     -1.27110707483065
  N   -1.80445660958599     -0.46126007661586      0.00399223398796
  O   -2.16802151715590     -1.62072975406997     -0.13132305824274
  O   -2.41693796341477      0.54963417363889     -0.32843566861584
  N   1.76431687256091      0.60051673261816      0.13358528525310
  H   2.25904666861598     -0.25805157848284      0.33648093700848
  H   2.33533697824379      1.14729911448638     -0.49624778741239
