12
Coordinates from ORCA-job run
  C   -0.31712917530465     -0.59359914452151      0.62588322156189
  C   0.77388504043279     -0.44358470984829     -0.42944911365318
  F   -0.72795250316979     -1.88742746925040      0.68439615500547
  H   1.57763096160504     -1.12743530917879     -0.14384225541525
  H   -0.02629992668043     -0.25192148901858      1.61973354698769
  H   0.35635151254466     -0.81072446530770     -1.37118655199417
  N   -1.48843162792089      0.26012086708833      0.22477558201306
  O   -1.47249161742322      1.41244978966830      0.65536816710495
  O   -2.30682142874962     -0.22449353505230     -0.54569274331546
  N   1.31363755800183      0.88396266363841     -0.61987919926538
  H   1.71110854984209      1.24762633864067      0.23587547359901
  H   0.60751265682220      1.53402646314185     -0.93698228262864
