12
Coordinates from ORCA-job run
  C   -0.40856343091552     -0.05384344881156      0.56373551605273
  C   0.51795067468715      0.11615354048340     -0.63044160687279
  F   0.03783410855769     -1.05892664635443      1.36316317209676
  H   0.50611509897999     -0.82733581867029     -1.18469436859317
  H   -0.52601884085144      0.85356606584955      1.15825011249321
  H   0.11098931211799      0.89370204373476     -1.27948492485868
  N   -1.78534347083894     -0.40429096427962      0.06406076515909
  O   -2.39941835263541      0.54033223126498     -0.42507230699769
  O   -2.15205058358866     -1.56902529265249      0.13056375073554
  N   1.88622967184835      0.43625013735211     -0.27984856778660
  H   2.26401892967238     -0.26356899250887      0.34496432177161
  H   1.94725688296642      1.33798714459245      0.17480413680000
