12
Coordinates from ORCA-job run
  C   -0.36070320302711     -0.51578840808889      0.70591936791324
  C   0.76926015426468     -0.45442358507226     -0.28470522712992
  F   -0.83935759143084     -1.78992537583188      0.83899981686465
  H   0.44937348310849     -0.94266322837732     -1.21039553472298
  H   -0.09651679392126     -0.11685816261522      1.68371994277539
  H   1.59160082944695     -1.03573865706307      0.13951023392647
  N   -1.52645005294632      0.31927884114806      0.23088170553278
  O   -2.26070163033472      0.77504557872655      1.10198080629529
  O   -1.68947316717096      0.42546593353002     -0.98371611414993
  N   1.15934602328969      0.94217787334581     -0.42375489581456
  H   0.65648119358367      1.36659375223008     -1.19102059946364
  H   2.14814075513772      1.02583543806809     -0.60841950202677
