12
Coordinates from ORCA-job run
  C   -0.31955036185007     -0.58185488608494      0.63585904086800
  C   0.77560844320124     -0.45502953340585     -0.41749419603222
  F   -0.73793958055549     -1.87207575547917      0.71635855273361
  H   1.57867470183871     -1.13216827306531     -0.11455353333485
  H   -0.03097621024564     -0.22332894175079      1.62446363889987
  H   0.36191548496081     -0.84138567699513     -1.35312859360255
  N   -1.48505089846646      0.27043329668740      0.21465926238469
  O   -2.29038420648653     -0.21917018587911     -0.56676023925031
  O   -1.48167085620801      1.42284992584942      0.64489600375365
  N   1.31439675162266      0.86931713930034     -0.63225665716973
  H   0.61005102743867      1.51139862919412     -0.96894821841129
  H   1.70592570475009      1.25201426162902      0.21790493916111
