12
Coordinates from ORCA-job run
  C   -0.32986534908809     -0.58113600190569      0.61966291760342
  C   0.77443670445927     -0.43333517681691     -0.42382221578059
  F   -0.71684094820897     -1.88002632923550      0.70266178486486
  H   1.56212742851915     -1.13499954438547     -0.13696327658824
  H   -0.05501419907784     -0.21170294277158      1.60835079093339
  H   0.36413442121073     -0.78256914101067     -1.37583436779180
  N   -1.51379938934471      0.24081555525875      0.18741693538717
  O   -2.36603036906311     -0.30104021898515     -0.50318827725764
  O   -1.47305024300768      1.42594315692876      0.51511874407056
  N   1.34315913764851      0.88534134583849     -0.59142402899640
  H   0.64197608413230      1.56052082395550     -0.86466483577286
  H   1.76976672182047      1.21118847312949      0.26568582932814
