14

C	0.0	0.0	0.0
C	-0.202408	-0.101559	-1.559355
F	1.381178	0.0	0.0
H	0.481585	-0.926698	-1.818329
H	-0.389211	0.917337	0.442691
C	-0.440751	-1.199702	0.719341
N	-0.549428	-2.218187	1.297293
C	0.328078	1.176734	-2.236544
H	0.32789	1.037537	-3.322227
H	-0.335731	2.012149	-2.008861
H	1.344283	1.41122	-1.912917
C	-1.461156	-0.461553	-2.222143
N	-2.1632	-0.77687	-3.114819
Br	-3.287404	0.0	0.0
