14

C	0.0	0.0	0.0
C	-0.511805	0.015506	-1.440014
F	1.378928	0.0	0.0
H	-1.605487	0.126799	-1.353969
H	-0.359219	0.880558	0.536639
C	-0.411866	-1.215118	0.725967
N	-0.577765	-2.181766	1.370917
C	-0.168364	-1.26675	-2.197285
H	0.906887	-1.459203	-2.181857
H	-0.692426	-2.10632	-1.736589
H	-0.496239	-1.188136	-3.235279
C	0.041999	1.188649	-2.11478
N	0.489979	2.117315	-2.677573
Br	-3.572027	0.0	0.0
