14

C	0.0	0.0	0.0
C	-0.509785	-0.002292	-1.442352
F	1.378963	0.0	0.0
H	-1.59986	0.138406	-1.360424
H	-0.357012	0.890012	0.522178
C	-0.412462	-1.20569	0.739228
N	-0.54814	-2.202355	1.344342
C	-0.203409	-1.309423	-2.172735
H	-0.507223	-1.234624	-3.21839
H	0.862451	-1.545304	-2.132186
H	-0.771632	-2.117342	-1.708824
C	0.078532	1.141656	-2.138541
N	0.555231	2.042914	-2.72202
Br	-3.561444	0.0	0.0
