14

C	0.0	0.0	0.0
C	-0.516594	0.19156	-1.425049
F	1.377903	0.0	0.0
H	-0.057047	1.116998	-1.789109
H	-0.352591	0.829343	0.619883
C	-0.462427	-1.26659	0.58696
N	-0.774224	-2.282315	1.084502
C	-2.041549	0.304545	-1.444998
H	-2.542395	-0.570455	-1.034042
H	-2.379433	1.150799	-0.845837
H	-2.400622	0.448329	-2.463577
C	-0.024038	-0.892596	-2.278489
N	0.366741	-1.741127	-2.988115
Br	-5.162189	0.0	0.0
