14

C	0.0	0.0	0.0
C	-0.5166	-0.022438	-1.437221
F	1.378002	0.0	0.0
H	-0.120579	0.881931	-1.914983
H	-0.350373	0.90875	0.497489
C	-0.440802	-1.174254	0.770894
N	-0.724939	-2.088162	1.450235
C	-2.046904	-0.019794	-1.479208
H	-2.463497	0.841465	-0.95657
H	-2.398168	0.010643	-2.511049
H	-2.481346	-0.895841	-1.000398
C	0.054639	-1.171436	-2.146849
N	0.50093	-2.080111	-2.741599
Br	-5.173938	0.0	0.0
