14
Coordinates from ORCA-job run
  C   0.53850193588168      0.15546723766136     -0.28860808229020
  C   -0.97645369099540      0.06105393996440     -0.09009616249579
  H   0.79398012539892      0.27898880299664     -1.34497724653634
  H   -1.19977268057523      0.37707194481260      0.93544092354788
  H   -1.44225554082023      0.79031459078951     -0.76403473643613
  N   1.23205633183638     -0.93559391679320      0.27176476937382
  H   2.22474390059738     -0.76226996000093      0.34451260761841
  H   0.85769794875757     -1.20339055511695      1.17062047298526
  N   0.91539604565937      1.52656539735893      0.30586127397215
  O   1.53796378628796      1.54742185738585      1.36323033331853
  O   0.52923555522781      2.50790811940554     -0.32382264359568
  N   -1.42866005549322     -1.31579531823985     -0.24021638377038
  H   -2.43989848770222     -1.34307018858008     -0.19930001057518
  H   -1.14353517406078     -1.68367195164383     -1.13937511511634
