14
Coordinates from ORCA-job run
  C   0.73244861963066     -0.00425434397475     -0.38634846358369
  C   -0.69093697007038     -0.39480357567185     -0.76286453302099
  H   1.34577103301395      0.14806719732024     -1.27805269538804
  H   -1.08063217029150      0.32310642075151     -1.49054683003699
  H   -0.62898621885812     -1.37562789306050     -1.23797318300998
  N   1.29953599382357     -0.94949873060021      0.49266488722027
  H   2.18990993139258     -0.64341675773560      0.85920611177827
  H   0.65382014749509     -1.10786243166508      1.25703874667620
  N   0.63174405259045      1.41984586269117      0.21239658964122
  O   0.19114451756560      2.29117335079783     -0.53468257858696
  O   0.98069598973928      1.58685453595304      1.37683312286746
  N   -1.48468837298695     -0.50407751307301      0.45954478515119
  H   -1.90690560770481      0.38651900025193      0.68989111354118
  H   -2.23092094533943     -1.17502512198473      0.34289292675088
