16

C	-0.640988	-0.029624	-1.372329
C	0.0	0.0	0.0
Br	0.29538	-1.455044	-2.477065
H	1.096654	0.0	0.0
N	-2.034987	-0.195444	-1.348113
H	-2.271639	-1.074798	-0.906874
H	-2.421742	-0.146013	-2.282558
N	-0.337475	1.248555	-2.137044
O	-1.160227	1.569935	-2.996232
O	0.706338	1.8261	-1.887552
C	-0.431445	-1.192923	0.721283
N	-0.804123	-2.132377	1.325512
N	-0.366731	1.241176	0.671729
H	-1.117356	1.108642	1.335447
H	0.469847	1.561659	1.154738
H	2.606097	0.0	0.0
