16

C	-0.247608	0.158239	-1.490112
C	0.0	0.0	0.0
Br	-2.159619	0.666524	-1.92774
H	1.095583	0.0	0.0
N	0.643843	1.091934	-1.983274
H	0.73992	1.023468	-2.987399
H	1.554074	0.962938	-1.508472
N	-0.135045	-1.216877	-2.243026
O	0.516662	-1.209913	-3.283725
O	-0.71295	-2.189008	-1.775806
C	-0.543002	-1.169828	0.668075
N	-0.964626	-2.016533	1.368767
N	-0.336044	1.236272	0.694743
H	-1.187361	1.131856	1.230697
H	0.433917	1.446031	1.322972
H	2.61097	0.0	0.0
