16

C	-0.140847	0.003047	-1.534791
C	0.0	0.0	0.0
Br	-0.037887	1.997533	-2.192584
H	1.097713	0.0	0.0
N	0.815962	-0.813377	-2.052409
H	0.841826	-0.881599	-3.059026
H	1.730631	-0.655243	-1.57562
N	-1.524068	-0.346716	-2.06952
O	-1.5861	-0.897289	-3.163836
O	-2.479555	-0.047613	-1.360502
C	-0.465907	-1.298588	0.477847
N	-0.837801	-2.3402	0.876909
N	-0.51259	1.070428	0.808756
H	0.135705	1.844974	0.747229
H	-1.420449	1.366569	0.476835
H	2.683295	0.0	0.0
