16

C	-0.228884	0.17781	-1.497754
C	0.0	0.0	0.0
Br	-0.057252	2.142566	-1.977103
H	1.093362	0.0	0.0
N	0.647571	-0.662458	-2.160298
H	1.590301	-0.565988	-1.744833
H	0.632767	-0.563366	-3.166627
N	-1.665051	-0.102457	-1.942112
O	-2.549207	0.078957	-1.111656
O	-1.834325	-0.478605	-3.09791
C	-0.426931	-1.35033	0.372465
N	-0.779127	-2.407424	0.750155
N	-0.484766	1.032181	0.873034
H	-1.405601	0.817033	1.227179
H	0.172615	1.133409	1.636264
H	2.676804	0.0	0.0
