16

C	-0.197118	0.114698	-1.489976
C	0.0	0.0	0.0
Br	-2.087915	0.514476	-2.06571
H	1.103902	0.0	0.0
N	0.671127	1.110372	-1.939871
H	0.7547	1.097384	-2.948655
H	1.594451	0.932913	-1.492455
N	0.058977	-1.251195	-2.201804
O	0.752927	-1.203879	-3.213214
O	-0.462028	-2.255887	-1.738965
C	-0.568531	-1.138878	0.696011
N	-0.940291	-2.022003	1.377354
N	-0.436179	1.243629	0.668113
H	-0.244074	1.993016	0.007953
H	0.231163	1.379123	1.428056
H	2.621556	0.0	0.0
