13
Coordinates from ORCA-job run
  C   -1.15639838950962      0.23572814879384     -0.10355366631112
  C   0.34675671299930      0.27634836695571     -0.40815772170506
  F   -1.37207652838358      0.63307130820984      1.19897379436244
  H   0.47907659938939     -0.06757211891209     -1.44129026471877
  H   -1.70215503797912      0.92381617279103     -0.75556486122745
  C   -1.68096883486683     -1.12589329918500     -0.28861667170870
  N   -2.08135509129709     -2.21595260731638     -0.45839931536003
  C   1.15174501110144     -0.61350687404261      0.54318340083792
  H   2.21459293161434     -0.54804348063244      0.30808972111186
  H   1.00287699925860     -0.29591009208167      1.57499896257425
  H   0.83761293223082     -1.65415383710862      0.44246039279209
  C   0.79767577610752      1.66902674965533     -0.33841729536549
  N   1.16161691933481      2.78304156287305     -0.27370647528194
