13
Coordinates from ORCA-job run
  C   -1.18176621468734      0.07134716001958      0.06394459991076
  C   0.25847332836351      0.44755292285430     -0.30832290412074
  F   -1.29075780266113     -0.03098078503485      1.43456314957035
  H   0.30990859148189      0.49284127764159     -1.40297832655181
  H   -1.88184137727564      0.84320657676168     -0.26844994245925
  C   -1.54928139756789     -1.21389695068429     -0.54991903986207
  N   -1.82329771611906     -2.23170271502296     -1.06587579123414
  C   1.27405169058116     -0.57036795584202      0.21840590822832
  H   1.08010618354722     -1.55419944431748     -0.21282710559642
  H   1.21155154354297     -0.63990256366582      1.30408771458281
  H   2.28514986780753     -0.26602336025071     -0.05370154493427
  C   0.53816191200629      1.78955120672336      0.20988497770051
  N   0.76854139098047      2.86057463081761      0.63118830476597
