13
Coordinates from ORCA-job run
  C   -1.17995949254427      0.10252144437377     -0.05100218572285
  C   0.29883235812210      0.42756435848281     -0.30008187558270
  F   -1.41937176639455      0.06045994418186      1.30616631128743
  H   0.45376860256203      0.42446135182881     -1.38588299222693
  H   -1.82386469639319      0.87663382680189     -0.47819012560968
  C   -1.52451526689221     -1.19800521929552     -0.64563116816012
  N   -1.77782612602462     -2.22974474081633     -1.14420259656492
  C   1.23159809741368     -0.59111894404743      0.36115982292311
  H   2.27187490760824     -0.32353258148116      0.17351472743633
  H   1.05088153650791     -1.58759840894330     -0.04612555821126
  H   1.06617020585934     -0.61226274799776      1.43801550542234
  C   0.56636677666647      1.78350986524189      0.18727135662219
  N   0.78604486350909      2.86611185167045      0.58398877838707
