13
Coordinates from ORCA-job run
  C   -0.99027823869772     -0.49205872943201     -0.08624841149819
  C   0.30238956021846      0.32929300630219     -0.18212225114476
  F   -1.01552130767773     -1.39411932613951     -1.13144841606046
  H   0.25927425006778      0.89734927106275     -1.11820739071557
  H   -1.00881628964681     -1.06004196755836      0.84927125966489
  C   -2.18261036234465      0.36377975609767     -0.16458601247385
  N   -3.12755256419608      1.05624876312241     -0.23692354548715
  C   1.53371162741586     -0.58002635606411     -0.17770067448373
  H   1.48841682155690     -1.26787884144015     -1.02147016517945
  H   1.58294102550676     -1.15628928971785      0.74868649914533
  H   2.44252521033311      0.01719848643417     -0.25930695146815
  C   0.33750743709658      1.27796248167852      0.93229636999018
  N   0.37801283036753      2.00958274565428      1.84975968971092
