13
Coordinates from ORCA-job run
  C   -1.01987515581096     -0.27665226948558     -0.62122280071560
  C   0.39449576829383      0.29122123136760     -0.48366771961277
  F   -1.76293044120809      0.53055733430154     -1.45496900483417
  H   0.79661589651552      0.35217778053869     -1.50126771497432
  H   -0.96627597237522     -1.27018928312214     -1.07775140033222
  C   -1.68807155711444     -0.38432859705102      0.68370339198924
  N   -2.19647790428009     -0.49305175225762      1.73602753878791
  C   1.27940395586175     -0.61446526451270      0.37747318228883
  H   1.31094382122721     -1.62290352958503     -0.04195925203647
  H   2.29706896974550     -0.22430280735766      0.40808452670386
  H   0.90188031514028     -0.66875130920418      1.39982234710633
  C   0.33823883729833      1.65027209993839      0.05898785588802
  N   0.31498346670640      2.73041636642970      0.51773904974136
