13
Coordinates from ORCA-job run
  C   -0.98433516546271     -0.51115081633940      0.02997756598874
  C   0.28780438885607      0.30281381962913     -0.24078164638637
  F   -1.03826482772802     -1.55262762847183     -0.87588582603755
  H   0.19392113714002      0.72843434063620     -1.24623238129679
  H   -0.95220876283591     -0.94164252405235      1.03578183302939
  C   -2.19457714987459      0.30965672702724     -0.11449706326979
  N   -3.15694817470782      0.97006659070279     -0.23833027420089
  C   1.53492307957031     -0.58129148256372     -0.16139712786537
  H   1.46399173123263     -1.38768736166303     -0.89066112584431
  H   1.63822881861356     -1.01215881869719      0.83680049365192
  H   2.42739776985878      0.00800287032759     -0.37496603350722
  C   0.35534830086983      1.40381316108694      0.72131389150471
  N   0.42371885446785      2.26277112237764      1.51887769423352
