14

C	0.0	0.0	0.0
C	-0.527186	-0.178538	-1.422836
F	1.387672	0.0	0.0
H	-0.207231	0.661649	-2.045382
H	-1.627319	-0.177181	-1.351875
C	-0.383811	1.342879	0.486563
N	-0.557189	2.428721	0.897482
C	-0.480926	-1.083304	0.941193
H	-1.572272	-1.0652	0.970643
H	-0.071876	-0.903241	1.937307
H	-0.124747	-2.05019	0.577719
C	-0.039622	-1.420543	-2.01425
N	0.357364	-2.412723	-2.499858
Cl	-3.653675	0.0	0.0
