14

C	0.0	0.0	0.0
C	-0.531114	0.241728	-1.408847
F	1.387547	0.0	0.0
H	-0.292741	-0.631034	-2.024781
H	-1.627039	0.321584	-1.323429
C	-0.376746	1.12399	0.885498
N	-0.585148	2.051623	1.573875
C	-0.48994	-1.321009	0.552244
H	-0.086591	-1.470214	1.555414
H	-1.581794	-1.30583	0.578663
H	-0.136395	-2.126076	-0.097602
C	0.046482	1.429709	-2.029726
N	0.515233	2.370487	-2.552255
Cl	-3.665483	0.0	0.0
