14

C	0.0	0.0	0.0
C	-0.235805	0.270139	-1.505787
F	1.39039	0.0	0.0
H	0.301555	-0.544058	-2.004056
H	0.335055	1.179755	-1.72078
C	-0.406599	1.134352	0.846865
N	-0.56423	2.067253	1.542269
C	-0.506455	-1.325244	0.507692
H	-1.598986	-1.304062	0.493604
H	-0.143315	-1.488618	1.524297
H	-0.129678	-2.118766	-0.143072
C	-1.52361	0.411966	-2.186514
N	-2.291158	0.60943	-3.055213
Cl	-3.559861	0.0	0.0
