14

C	0.0	0.0	0.0
C	-0.529767	0.250264	-1.408366
F	1.387419	0.0	0.0
H	-0.2836	-0.618055	-2.028257
H	-1.627778	0.321251	-1.329433
C	-0.380266	1.116631	0.892985
N	-0.599656	2.037701	1.58683
C	-0.490436	-1.325205	0.542845
H	-1.583257	-1.308434	0.578151
H	-0.143458	-2.125203	-0.116277
H	-0.080495	-1.482991	1.542043
C	0.043906	1.444442	-2.020284
N	0.50767	2.391513	-2.535907
Cl	-3.663606	0.0	0.0
