15

C	-0.333717	-0.01903	-1.487809
C	0.0	0.0	0.0
Cl	-2.103602	0.055642	-1.780211
H	1.09088	0.0	0.0
H	0.069335	0.92142	-1.865408
N	0.269758	-1.099988	-2.213359
H	1.277261	-1.009077	-2.097183
H	-0.021294	-1.978941	-1.803215
N	-0.426016	-1.185813	0.786885
O	-1.041793	-2.08741	0.212808
O	-0.07468	-1.198503	1.96121
N	-0.532429	1.235161	0.636052
O	-0.078575	2.279996	0.179294
O	-1.401084	1.142578	1.496612
Cl	3.158532	0.0	0.0
