15

C	-0.57508	-0.006001	-1.408908
C	0.0	0.0	0.0
Cl	0.226686	1.230892	-2.407235
H	1.087904	0.0	0.0
H	-0.280209	-0.962602	-1.850353
N	-1.995564	0.263589	-1.398407
H	-2.452889	-0.498887	-0.91134
H	-2.335451	0.285373	-2.352115
N	-0.40841	-1.233479	0.748281
O	-1.156985	-2.04478	0.19385
O	0.061943	-1.355434	1.870914
N	-0.535865	1.15995	0.775142
O	-1.495882	0.9612	1.516934
O	0.003793	2.237055	0.562056
Cl	3.196042	0.0	0.0
