15

C	-0.42853	0.050227	-1.457079
C	0.0	0.0	0.0
Cl	-0.390972	-1.683449	-2.122246
H	1.086747	0.0	0.0
H	-1.469828	0.342883	-1.565419
N	0.450111	0.940764	-2.088616
H	0.263715	1.059413	-3.074829
H	1.425754	0.716749	-1.907267
N	-0.596593	-1.146756	0.737802
O	0.148484	-2.016987	1.16471
O	-1.824231	-1.117061	0.848862
N	-0.481588	1.213252	0.741213
O	-1.314964	1.945782	0.214114
O	-0.008804	1.353439	1.865477
Cl	3.240144	0.0	0.0
