9
Coordinates from ORCA-job run
  C   0.29253529387255     -0.54983427602865      0.11656284324824
  C   -0.97564745577185      0.30619169218262      0.04807218561372
  H   0.44311351399344     -0.93612680060061      1.12820705800924
  H   -1.13935164634046      0.67593650673344     -0.96469607192433
  H   0.21051852292655     -1.41505163438937     -0.54675164079202
  H   -0.90101590749160      1.16369191996858      0.71769582393087
  H   -1.84228245782663     -0.28764113671814      0.34313445780514
  C   1.48513568240621      0.20787397257297     -0.26586245033560
  N   2.42599445423180      0.83595975627915     -0.57636220555525
