9
Coordinates from ORCA-job run
  C   0.29562482778315     -0.54273395182213      0.14074090767784
  C   -0.98090466419027      0.29202362254264      0.00142193549757
  H   0.25334874679230     -1.42322353963336     -0.50599664577695
  H   -1.10354541506696      0.64447740055464     -1.02327818343614
  H   0.41012604280578     -0.90475426050066      1.16599401668587
  H   -0.95007400194426      1.16015878544657      0.66066861438392
  H   -1.85109822934363     -0.31119725941534      0.26532865250854
  C   1.49190278104271      0.22478297376145     -0.20926302606172
  N   2.43561991212116      0.86046622906619     -0.49461627147894
