15

C	0.0	0.0	0.0
C	-0.487245	0.126211	-1.495545
Cl	1.797185	0.0	0.0
H	0.036436	1.023289	-1.863532
C	-0.42451	1.17672	0.759101
N	-0.661116	2.157547	1.361657
C	-0.465797	-1.238793	0.614036
N	-0.791748	-2.256388	1.101989
N	-1.883534	0.318262	-1.658494
H	-2.213914	1.21669	-1.332011
H	-2.483601	-0.369882	-1.203206
N	-0.105637	-1.102516	-2.16424
H	-0.687183	-1.172668	-2.989547
H	0.867433	-1.089078	-2.43872
Br	-4.703955	0.0	0.0
