15

C	0.0	0.0	0.0
C	-0.584251	0.133177	-1.431526
Cl	1.786634	0.0	0.0
H	-1.622821	-0.199226	-1.317717
C	-0.419145	1.095184	0.879076
N	-0.655862	1.995631	1.595699
C	-0.39108	-1.297086	0.568335
N	-0.595999	-2.363257	1.015794
N	0.112898	-0.769765	-2.306851
H	-0.494824	-1.048347	-3.064839
H	0.945056	-0.326351	-2.678016
N	-0.484705	1.534335	-1.834104
H	-1.203295	2.046861	-1.325879
H	-0.758869	1.574977	-2.810583
Br	-3.67705	0.0	0.0
