15

C	0.0	0.0	0.0
C	-0.584885	-0.02149	-1.436186
Cl	1.78664	0.0	0.0
H	-1.626324	0.290177	-1.292986
C	-0.39286	1.249365	0.665351
N	-0.588383	2.281376	1.190504
C	-0.419348	-1.160592	0.791149
N	-0.643841	-2.122668	1.427032
N	-0.470256	-1.382486	-1.955948
H	-0.760832	-1.345159	-2.927841
H	-1.171553	-1.948499	-1.481806
N	0.101795	0.958284	-2.234253
H	0.93201	0.552512	-2.650087
H	-0.512729	1.302121	-2.958965
Br	-3.674437	0.0	0.0
