15

C	0.0	0.0	0.0
C	-0.481584	0.104913	-1.498688
Cl	1.7974	0.0	0.0
H	0.051991	0.991216	-1.880686
C	-0.428844	1.184284	0.741085
N	-0.682715	2.17004	1.329402
C	-0.465629	-1.231029	0.629244
N	-0.784497	-2.241881	1.135231
N	-1.876569	0.307313	-1.672989
H	-2.193014	1.219193	-1.369074
H	-2.485504	-0.358966	-1.197951
N	-0.10874	-1.13853	-2.145049
H	-0.684478	-1.215798	-2.973485
H	0.86705	-1.141269	-2.411763
Br	-4.688446	0.0	0.0
