15

C	0.0	0.0	0.0
C	-0.500917	-0.118026	-1.532922
Cl	1.784351	0.0	0.0
H	0.433046	-0.227938	-2.090977
C	-0.426902	1.21962	0.684393
N	-0.701557	2.19456	1.279498
C	-0.409304	-1.177191	0.766998
N	-0.641316	-2.169594	1.351833
N	-1.094869	1.151216	-1.877581
H	-1.312383	1.109188	-2.867397
H	-1.993197	1.207194	-1.391299
N	-1.323633	-1.253331	-1.843859
H	-2.214179	-1.169554	-1.347634
H	-0.875547	-2.125433	-1.585619
Br	-3.792457	0.0	0.0
