14
Coordinates from ORCA-job run
  C   0.92176638579891     -0.33831608299847     -0.00868923914482
  C   -0.53123285512456      0.08206613095222     -0.19180952592569
  H   1.22080925485193     -0.35778402844160      1.03846320321068
  H   -0.72738220583337      0.16302250355372     -1.26413572992521
  H   1.09357127533008     -1.31706350759153     -0.46318384537213
  N   1.85647964126339      0.60596569609470     -0.69885299130250
  O   2.90607582021940      0.87196403124073     -0.12178910414513
  O   1.51680258361614      1.01132285512092     -1.80727429334324
  C   -0.74390512772380      1.40599129001164      0.40024975249904
  N   -0.91801645029191      2.45201419605790      0.90418993968626
  C   -1.47161730171346     -0.95107033934241      0.43763172792466
  H   -1.27908708340828     -1.05269465465376      1.50756097973565
  H   -1.33170361378619     -1.92414200491651     -0.03852900624437
  H   -2.51156032319827     -0.65027608508757      0.30516813234681
