14
Coordinates from ORCA-job run
  C   0.78196266613134     -0.01968366552583     -0.90120721345114
  C   -0.67143599674629      0.10630214694699     -0.43258263790844
  H   1.04991756213130      0.77048185261256     -1.60243479423712
  H   -1.29073701044681     -0.14700455396987     -1.30157913447481
  H   0.95485114155663     -1.00408116441339     -1.33373731142970
  N   1.70040409178212      0.09731799732387      0.26646666191260
  O   2.16921216963149     -0.94590993780277      0.71913960266589
  O   1.87889835258443      1.22668633383484      0.71604777721702
  C   -1.00482625559505      1.48608275041426     -0.06413347454745
  N   -1.31407827975466      2.57910318078184      0.23262914248147
  C   -1.00078583306256     -0.85760460559246      0.71234028694475
  H   -2.06894330350686     -0.82980476667848      0.93108056306724
  H   -0.72323880704877     -1.87730268857468      0.43821458626378
  H   -0.46020049765632     -0.58558287935688      1.61975594549591
