14
Coordinates from ORCA-job run
  C   0.87525148527457      0.64090608378698     -0.19828327213176
  C   -0.58469068592893      0.20433887470777     -0.33503634542587
  H   1.15618750140135      1.34415224515819     -0.98367242754219
  H   -0.71807356193817     -0.20492006643533     -1.34141408285659
  H   1.08901797269331      1.05661283471526      0.78522895825419
  N   1.74633049358073     -0.55946315474457     -0.36242517360055
  O   2.48874348129354     -0.85849953561216      0.56911949394578
  O   1.63387176049188     -1.17198086337638     -1.42183432794298
  C   -1.42660311391469      1.39581531461883     -0.21087943491254
  N   -2.09175053594958      2.35573718848166     -0.08957476538141
  C   -0.96911472584131     -0.85184226272583      0.70500761068108
  H   -2.02403452516984     -1.11229760232411      0.61061746752536
  H   -0.38106070398770     -1.75927964171527      0.55646340209427
  H   -0.79307484200516     -0.48027941453504      1.71668289729321
