17

C	-0.407397	0.003897	-1.449145
C	0.0	0.0	0.0
Br	0.536878	-1.458299	-2.488943
H	1.117108	0.0	0.0
N	-1.876475	-0.323499	-1.744204
O	-2.387699	-1.182566	-1.054204
O	-2.369376	0.23138	-2.716003
N	-0.099621	1.274975	-1.952866
H	-0.318011	1.306577	-2.944518
H	0.900407	1.427828	-1.827182
N	-0.189049	-1.243438	0.809988
O	-0.025745	-2.320413	0.256572
O	-0.364552	-1.079799	2.009974
N	-0.55851	1.096906	0.803734
O	-1.774535	1.223191	0.822754
O	0.244828	1.745566	1.489295
Cl	2.90183	0.0	0.0
