17

C	-0.364355	0.013072	-1.493041
C	0.0	0.0	0.0
Br	0.201984	-1.687157	-2.21554
H	1.089498	0.0	0.0
N	-1.873801	0.204058	-1.713303
O	-2.321104	1.174395	-1.106228
O	-2.48954	-0.515884	-2.47795
N	0.271378	1.052815	-2.24101
H	0.111225	1.929161	-1.751054
H	1.275834	0.88019	-2.206517
N	-0.575116	-1.153223	0.735518
O	0.095268	-1.624303	1.646351
O	-1.699574	-1.519291	0.393286
N	-0.422494	1.232781	0.750203
O	0.024107	2.29596	0.334724
O	-1.131215	1.090244	1.739641
Cl	3.149449	0.0	0.0
