17

C	-0.391251	0.047488	-1.478839
C	0.0	0.0	0.0
Br	-0.056127	-1.779123	-2.278534
H	1.11732	0.0	0.0
N	-1.917296	0.108756	-1.781723
O	-2.622882	-0.647235	-1.128827
O	-2.221742	0.567488	-2.881988
N	0.317829	0.994638	-2.234715
H	0.106952	0.926515	-3.218499
H	1.311114	0.820973	-2.095456
N	-0.469106	-1.094907	0.899008
O	0.437219	-1.628859	1.556397
O	-1.645014	-1.071223	1.26348
N	-0.21755	1.252382	0.761801
O	-0.094281	1.152774	1.982363
O	-0.005593	2.288849	0.132341
Cl	2.745864	0.0	0.0
