17

C	-0.435927	-0.03957	-1.488364
C	0.0	0.0	0.0
Br	-2.387542	-0.254776	-1.646477
H	1.116867	0.0	0.0
N	-0.151225	1.277106	-2.201017
O	-0.798662	2.300901	-1.70177
O	-0.213507	1.15181	-3.506785
N	0.194057	-1.132751	-2.190294
H	1.197826	-0.928915	-2.304203
H	-0.223756	-1.260342	-3.117737
N	-0.360099	-1.229596	0.74239
O	0.128908	-2.315232	0.190373
O	-0.160909	-1.105517	2.035077
N	-0.480319	1.174354	0.768673
O	0.36966	1.529293	1.714529
O	-1.728315	1.080591	1.12891
Cl	2.601899	0.0	0.0
