17

C	-0.481079	0.05106	-1.455388
C	0.0	0.0	0.0
Br	0.554321	1.38381	-2.493672
H	1.116547	0.0	0.0
N	-0.371362	-1.296033	-2.233546
O	-0.166343	-1.219713	-3.438852
O	-0.940945	-2.236557	-1.691919
N	-1.887515	0.285295	-1.609375
H	-2.073953	1.219953	-1.277491
H	-2.151199	0.244681	-2.586665
N	-0.520021	-1.099483	0.861847
O	0.314957	-1.552618	1.66058
O	-1.736346	-1.151161	1.028882
N	-0.237195	1.217185	0.808255
O	0.078741	2.281771	0.260087
O	-0.261158	1.069968	2.030321
Cl	2.741824	0.0	0.0
