17

C	-0.510267	0.020202	-1.481036
C	0.0	0.0	0.0
Br	0.483879	1.378693	-2.532447
H	1.116467	0.0	0.0
N	-0.161258	-1.254071	-2.203277
O	-0.692488	-1.328816	-3.39073
O	1.125475	-1.545133	-2.127619
N	-1.930034	0.285001	-1.576751
H	-2.090962	1.230616	-1.200483
H	-2.216516	0.315238	-2.563451
N	-0.478999	-1.243427	0.660942
O	-1.764351	-1.448167	0.540466
O	0.302984	-2.267842	0.41461
N	-0.34244	1.210858	0.753738
O	-0.239805	1.043784	2.055089
O	0.246401	2.294943	0.268563
Cl	2.597874	0.0	0.0
