17

C	-0.459511	0.011225	-1.479892
C	0.0	0.0	0.0
Br	0.536566	1.464969	-2.374161
H	1.116159	0.0	0.0
N	-0.014275	-1.227139	-2.232099
O	-0.491282	-1.257113	-3.443866
O	1.283326	-1.463596	-2.117259
N	-1.871743	0.264957	-1.672405
H	-2.041195	0.6551	-2.603661
H	-2.384561	-0.625856	-1.616494
N	-0.46412	-1.234055	0.688588
O	-1.742269	-1.480265	0.5635
O	0.341715	-2.248729	0.466669
N	-0.446848	1.191722	0.751945
O	0.271832	1.367768	1.830683
O	-1.754177	1.230817	0.930455
Cl	2.620139	0.0	0.0
