17

C	0.0	0.0	0.0
C	-0.172169	-0.240939	-1.552979
F	1.345409	0.0	0.0
H	0.171663	0.718818	-1.946446
C	-0.486312	1.288364	0.486462
N	-0.504353	2.413845	0.833228
N	-0.381356	-1.123052	0.941866
O	-0.454584	-2.248266	0.467833
O	-0.409966	-0.821822	2.128397
N	-1.485961	-0.429968	-2.264336
O	-1.9006	0.552255	-2.873785
O	-1.925591	-1.567402	-2.354645
C	0.725713	-1.355347	-2.098865
H	0.680657	-1.312394	-3.190132
H	1.76059	-1.225257	-1.794222
H	0.360343	-2.326088	-1.77699
Cl	-2.962508	0.0	0.0
