17

C	0.0	0.0	0.0
C	-0.572207	-0.236882	-1.395636
F	1.3494	0.0	0.0
H	-1.561805	-0.691262	-1.246763
C	-0.445248	1.263754	0.601357
N	-0.586781	2.337008	1.058282
N	-0.360991	-1.136963	0.986289
O	0.057428	-0.945737	2.123714
O	-0.940039	-2.12257	0.569658
N	0.277396	-1.23982	-2.136175
O	0.89323	-2.082692	-1.489744
O	0.250382	-1.1909	-3.364793
C	-0.72163	1.045319	-2.186058
H	-1.055769	0.809539	-3.19353
H	-1.488847	1.646348	-1.698656
H	0.218755	1.600331	-2.242006
Cl	-3.344852	0.0	0.0
