17

C	0.0	0.0	0.0
C	-0.375059	-0.368052	-1.474628
F	1.355739	0.0	0.0
H	0.605116	-0.325193	-1.963635
C	-0.451866	1.275395	0.560871
N	-0.493343	2.305726	1.128294
N	-0.307845	-1.098897	1.04329
O	0.025289	-2.233548	0.720503
O	-0.688654	-0.747094	2.147622
N	-1.080315	0.768928	-2.191282
O	-0.673684	1.897702	-1.927311
O	-1.860386	0.495757	-3.091662
C	-0.989671	-1.714636	-1.798211
H	-1.217591	-1.722218	-2.863515
H	-0.27054	-2.501996	-1.58364
H	-1.907562	-1.859787	-1.236715
Cl	-3.006	0.0	0.0
