17

C	0.0	0.0	0.0
C	-0.585126	-0.24053	-1.38914
F	1.355213	0.0	0.0
H	-1.638704	-0.500578	-1.234406
C	-0.454236	1.270368	0.576648
N	-0.631631	2.36086	0.975562
N	-0.362702	-1.138846	0.956325
O	-0.365892	-0.866783	2.149237
O	-0.489426	-2.244308	0.447107
N	0.065945	-1.393179	-2.094817
O	1.289175	-1.377935	-2.235969
O	-0.686908	-2.238418	-2.569905
C	-0.4494	0.980988	-2.279838
H	-1.080722	1.780636	-1.889624
H	-0.807678	0.727782	-3.278603
H	0.588747	1.317287	-2.34371
Cl	-3.398382	0.0	0.0
