15

C	0.0	0.0	0.0
C	-0.515309	0.041052	-1.498705
F	1.376236	0.0	0.0
H	-0.566814	1.086097	-1.805999
C	-0.456467	1.189649	0.728132
N	-0.700548	2.193952	1.2864
C	-0.429664	-1.235941	0.673263
N	-0.654456	-2.244799	1.231418
N	-1.694748	-0.648686	-1.826444
H	-1.63723	-1.615238	-1.525942
H	-2.531728	-0.245686	-1.368465
N	0.616782	-0.563483	-2.299499
O	1.284092	0.183499	-3.008109
O	0.772677	-1.774782	-2.176061
Cl	-4.085812	0.0	0.0
