15

C	0.0	0.0	0.0
C	-0.509294	0.08599	-1.441664
F	1.380734	0.0	0.0
H	-1.599922	0.230383	-1.359941
C	-0.418752	1.091661	0.899435
N	-0.53361	1.931996	1.712715
C	-0.413324	-1.290957	0.584218
N	-0.574166	-2.339078	1.089165
N	-0.179168	-1.092422	-2.152214
H	0.775476	-1.072516	-2.483191
H	-0.80223	-1.21827	-2.936435
N	0.068139	1.349557	-2.078216
O	-0.074801	2.403972	-1.466963
O	0.593526	1.235833	-3.183825
Cl	-3.305966	0.0	0.0
