11
Coordinates from ORCA-job run
  C   -0.63172990177809     -0.69873644402521      0.11219941578945
  C   0.48448325552450      0.25723950965754     -0.36691387051538
  F   -0.76805868575528     -1.68856044244280     -0.82838734884024
  H   0.17349527693906      0.67288685906764     -1.33291572808674
  H   -0.35082819518208     -1.15782602910500      1.06390020480289
  C   -1.89670330794321      0.03168199314159      0.25586282738611
  N   -2.90415452071997      0.62426771952738      0.36550694070876
  C   1.73081475935543     -0.49265094586429     -0.55127505601574
  N   2.71994539036558     -1.10845138436295     -0.69186288823413
  C   0.66163856112011      1.34808805322705      0.59501691409463
  N   0.78109736807395      2.21206111117905      1.38086858891040
