11
Coordinates from ORCA-job run
  C   -0.69334500573033     -0.65399680974460     -0.08023563183024
  C   0.60897516000640      0.10878524195691      0.24261030196218
  F   -0.87269707232736     -0.66967938647997     -1.43814730301049
  H   0.72932788413047      0.13573256939317      1.33312301460081
  H   -0.60189000224941     -1.68711067271779      0.26797359291201
  C   -1.83630478988901     -0.00632670946302      0.57562604585830
  N   -2.73547379097656      0.50368199596568      1.13180541248059
  C   0.53591273813429      1.48562063145227     -0.25714830500790
  N   0.46054743493015      2.59027696034387     -0.64629121244649
  C   1.75175139792323     -0.60291046505757     -0.33980608588396
  N   2.65319604604813     -1.20507335564897     -0.78950982963481
