11
Coordinates from ORCA-job run
  C   -0.68517348739798     -0.61185595495347     -0.25954791613985
  C   0.60570165376970      0.04538377833982      0.27356692361939
  F   -0.84497544774825     -0.26999153198570     -1.57619059728404
  H   0.71082638654008     -0.21555047982585      1.33436674610222
  H   -0.58850827838610     -1.69968653663669     -0.19415562018130
  C   -1.84414384703457     -0.16720404225567      0.52463284789466
  N   -2.76087175275093      0.17038525362783      1.17559645991089
  C   0.52811561146324      1.50490075323862      0.15331047115598
  N   0.45034803951162      2.67299576569543      0.06998946623807
  C   1.76094704677808     -0.48386477083713     -0.45926761678512
  N   2.66873407525512     -0.94551223440719     -1.04230116453091
