11
Coordinates from ORCA-job run
  C   -0.63362403486420     -0.65515839215610      0.26493061433356
  C   0.47828853801291      0.17227281238098     -0.41897211739385
  F   -0.79258482518188     -1.81528834631001     -0.45052806780728
  H   0.15014111295324      0.38637705607740     -1.44321460233546
  H   -0.33827072999837     -0.91209936837530      1.28583739906130
  C   -1.89174209601198      0.10084723249343      0.27649389392266
  N   -2.89368282779080      0.71259270430969      0.27593172871579
  C   1.71652140339695     -0.61120417909228     -0.47087204070780
  N   2.70006792628769     -1.25066747087718     -0.50427200960182
  C   0.68170120265684      1.43415127525920      0.29731475856413
  N   0.82218433053959      2.43817667629017      0.88935044324876
