11
Coordinates from ORCA-job run
  C   -0.78407586309761     -0.56294505757132     -0.36839528540901
  C   0.58924755722473      0.13093405357914     -0.49536733033147
  F   -1.61845947484780     -0.01562077931277     -1.31102125063762
  H   0.91850000682026     -0.00683040856547     -1.53243980188965
  H   -0.66759594287433     -1.62905844652127     -0.58388787797010
  C   -1.35071150201208     -0.38473598794223      0.97303475147720
  N   -1.79808910088328     -0.25134045198361      2.05020606241730
  C   1.55500987794018     -0.50851427318266      0.40199044436383
  N   2.30773350426493     -1.05902053146535      1.11514144261232
  C   0.47524870686776      1.56753977636832     -0.22752810429337
  N   0.37319223059726      2.71859210659723     -0.02173305033943
