11
Coordinates from ORCA-job run
  C   -0.80803044504105     -0.55478371183001     -0.32694550511732
  C   0.58056062491404      0.09358938729122     -0.51414659181593
  F   -1.64892292903928     -0.02277978979665     -1.27257594595744
  H   0.88016816232623     -0.09471348632896     -1.55222442888079
  H   -0.72669166452364     -1.63175107775829     -0.50015322615856
  C   -1.33765332352186     -0.30507683488739      1.01819542960981
  N   -1.75805207730878     -0.11576761384585      2.09779408758804
  C   1.55023472592515     -0.53630759312940      0.38585184267119
  N   2.30558694395963     -1.07765275570793      1.10319531665906
  C   0.51334602222999      1.54233374187569     -0.30120256932934
  N   0.44945396007956      2.70290973411756     -0.13778840926873
