11
Coordinates from ORCA-job run
  C   -0.67302251805507     -0.65416207123394     -0.18797382516292
  C   0.61165423013256      0.08465140203033      0.24275704324942
  F   -0.89761523474705     -0.41437668844978     -1.51766446157193
  H   0.76733873040102     -0.09425276739799      1.31432678303545
  H   -0.53309793863809     -1.73042138412359     -0.04964106621326
  C   -1.81546331342262     -0.19387677457304      0.61128657005416
  N   -2.71424294177618      0.16246554599507      1.27689838477045
  C   0.47490899568927      1.52814261730174      0.02242671765206
  N   0.35290842361425      2.68406576362564     -0.14017625224397
  C   1.75867081531140     -0.45397182272918     -0.49606873040479
  N   2.66596075149053     -0.91926382044525     -1.07717116316468
