11
Coordinates from ORCA-job run
  C   -0.68833828251000     -0.59406438603153     -0.29735973684288
  C   0.61618143171776      0.02557486508589      0.24733984465678
  F   -0.91566672540652     -0.11143673756886     -1.55864458692068
  H   0.77585696248469     -0.35280064446168      1.26518971978168
  H   -0.57231454567821     -1.68021622367962     -0.35846125719757
  C   -1.81447177231216     -0.26255654254366      0.58455217157488
  N   -2.70044981424672     -0.01453474739764      1.31352865862470
  C   0.50997908353333      1.48725179091836      0.30110251015833
  N   0.40996502130648      2.65525086194175      0.35727828587718
  C   1.74427357239140     -0.39123288582468     -0.59232779179588
  N   2.63398506871994     -0.76123535043834     -1.26219781791655
