11
Coordinates from ORCA-job run
  C   -0.62990217847855     -0.63328075420974      0.32292685534947
  C   0.47984228843871      0.13324219442322     -0.43185518114013
  F   -0.77605141935216     -1.85767316432152     -0.27876720363688
  H   0.15795929653104      0.24036547569155     -1.47470613186981
  H   -0.33870291667677     -0.78877442740622      1.36524001567984
  C   -1.89339339715924      0.11077499682767      0.25589292504981
  N   -2.89975832015626      0.71202100844815      0.19365576449593
  C   1.72631926441107     -0.63798842947729     -0.39596339788533
  N   2.71692560261279     -1.26608776277115     -0.35761260835575
  C   0.66525626414384      1.46278204795551      0.15563897486870
  N   0.79150551568553      2.52261881483984      0.64454998744413
