11
Coordinates from ORCA-job run
  C   -0.69650249727669     -0.65636597379042     -0.02260633601712
  C   0.63625176845447      0.10024872360118      0.15923154964650
  F   -1.06783087751075     -0.59098226426972     -1.33938168810652
  H   0.91037561840518      0.06036307554909      1.22119561465950
  H   -0.55292870459962     -1.70764780673103      0.24429514119095
  C   -1.73591838145984     -0.06381391754677      0.82860947866509
  N   -2.54888821853906      0.40182055575921      1.53578767081202
  C   0.49005515474641      1.50505927713242     -0.23555851598057
  N   0.36096801087102      2.63178352933267     -0.53725959205783
  C   1.68684400852049     -0.56010989870530     -0.62275552023009
  N   2.51857411838841     -1.12135530033133     -1.23155780258192
