11
Coordinates from ORCA-job run
  C   -0.77312040650909     -0.41623564501646     -0.35942783251670
  C   0.36585508122095      0.54654142040107      0.04580929969960
  F   -1.66790585108539      0.29112498192643     -1.12235607421414
  H   -0.08057165099230      1.36484800719065      0.62342695182556
  H   -0.37523758490636     -1.23856409531254     -0.96022055726437
  C   -1.44220541407516     -0.94103911237635      0.83685098276973
  N   -1.97439996455277     -1.35280145118574      1.79884769757220
  C   0.99493936322477      1.10177667838304     -1.15661644335125
  N   1.48848494992988      1.53786257877461     -2.12805025779626
  C   1.34702090562854     -0.15433843592424      0.87834358970481
  N   2.11714057211692     -0.74017492686047      1.54339264357081
