11
Coordinates from ORCA-job run
  C   -0.63829200022983     -0.64540252770337      0.27340637794648
  C   0.47649395174547      0.16478138973306     -0.42631249852213
  F   -0.81945783793602     -1.80662128342321     -0.43491345287970
  H   0.14120063804946      0.37716557438113     -1.44859890249064
  H   -0.33438200055501     -0.90136872823816      1.29206241265399
  C   -1.88736737295217      0.12513105269078      0.29709368967691
  N   -2.88363541542810      0.74603755382535      0.30872105301153
  C   1.70413668119968     -0.63458018351174     -0.48494077288692
  N   2.67859447622447     -1.28757674783013     -0.52437115594843
  C   0.70173974985210      1.42814328994473      0.28066633196646
  N   0.85996913002996      2.43329061013159      0.86618691747243
