11
Coordinates from ORCA-job run
  C   -0.71182677491115     -0.62688603704728     -0.12912267986064
  C   0.61810535480120      0.06855608395875      0.23063513410623
  F   -0.93732991623084     -0.48379470764542     -1.47248696263608
  H   0.77575891538270     -0.03065043844657      1.31230179667925
  H   -0.63253028199800     -1.69456591241371      0.09610927144488
  C   -1.81628572885022     -0.03692600468895      0.63754575591442
  N   -2.68422426192301      0.42363865611283      1.27981633763561
  C   0.56222845713132      1.49468915308331     -0.10672000803533
  N   0.50495528885632      2.63860252227576     -0.36300810962019
  C   1.72388716138571     -0.59481103625181     -0.46849214707369
  N   2.59626178635598     -1.15785227893691     -1.01557838855446
