11
Coordinates from ORCA-job run
  C   -0.65939991711032     -0.64350012354547     -0.26134398222126
  C   0.59828786345599      0.07266739436279      0.27440527693532
  F   -0.82338089188913     -0.32379625649651     -1.58293956155731
  H   0.70215851072953     -0.16949850122819      1.33981535363817
  H   -0.51862073774216     -1.72559745209575     -0.18225246059814
  C   -1.84036238346245     -0.23780630667141      0.51122253363955
  N   -2.76852726887281      0.07154321293913      1.16002017615254
  C   0.46310407055047      1.52628208662493      0.13499816567939
  N   0.33962702049013      2.68950075683913      0.04027691463028
  C   1.78406895763889     -0.41698493012872     -0.43667205971574
  N   2.72304477621187     -0.84380988059993     -0.99653035658281
