11
Coordinates from ORCA-job run
  C   -0.95180914145574      0.06809171678475      0.06555867059796
  C   0.51292127582795      0.04322342960524     -0.41996057385827
  F   -1.07176921735632      0.99726714296495      1.06482081791874
  H   0.60237437689495     -0.72174192899541     -1.20188863523867
  H   -1.60068479460154      0.36647274671526     -0.76319397446685
  C   -1.34741511280115     -1.25824734042984      0.55533104392603
  N   -1.65876228643068     -2.33082575316166      0.91675275463927
  C   1.41588976919828     -0.30383583843490      0.68233504890411
  N   2.13071545362414     -0.59713194644312      1.56572701397165
  C   0.86086529187670      1.34745088584098     -0.99398492137453
  N   1.10767438522342      2.39027688555375     -1.47249724501944
