11
Coordinates from ORCA-job run
  C   -0.85021771303756     -0.34645786043221     -0.24122361325849
  C   0.41179001341889      0.51451836506274     -0.00748682114716
  F   -1.78944253707554      0.44455273634173     -0.85364107934683
  H   0.12616261741225      1.35435698593591      0.63718140572240
  H   -0.61646548011872     -1.18604429819393     -0.90150304191850
  C   -1.37053137369605     -0.83923837128547      1.03979532330566
  N   -1.78155619790700     -1.22314759855758      2.07022634444059
  C   0.89545607433911      1.04090448181038     -1.28763139345721
  N   1.27119073284914      1.45341045874840     -2.32014085215804
  C   1.44677679885107     -0.27784054974792      0.66187314561843
  N   2.25683706496440     -0.93501434968204      1.20055058219915
