11
Coordinates from ORCA-job run
  C   -0.69222274212954     -0.58398598482636     -0.30993999886986
  C   0.60209058178504      0.02248059004862      0.27140636560414
  F   -0.85572690252887     -0.13525326985250     -1.59358007905997
  H   0.70293226697195     -0.31768747242917      1.30999801316060
  H   -0.59961689236681     -1.67391413200631     -0.33392741897406
  C   -1.84598746135237     -0.20276686523908      0.51453311302925
  N   -2.75403397021892      0.07560788976566      1.20418231871992
  C   0.53660260621319      1.48748903206484      0.26201235231301
  N   0.47573316650102      2.65959071569844      0.26863213091172
  C   1.75783186131375     -0.45699043548504     -0.49396680096245
  N   2.67239748581154     -0.87457006773910     -1.09934999587231
