11
Coordinates from ORCA-job run
  C   -0.81261529247755     -0.53568890838958     -0.34310251559862
  C   0.58295423084310      0.10325956275915     -0.50901341179884
  F   -1.64595317265333      0.03161660288449     -1.27500392927209
  H   0.88167146714600     -0.05726230423889     -1.55213334334157
  H   -0.74193496276111     -1.60805343928180     -0.54669466574777
  C   -1.34358852365842     -0.31904832659003      1.00715359229772
  N   -1.76608657780364     -0.15541142140535      2.09026300330481
  C   1.54453673418188     -0.56538386542647      0.37145773765992
  N   2.29272347389358     -1.13949757342314      1.07062814138902
  C   0.53085131119765      1.54558683601436     -0.25333712946393
  N   0.47844131209185      2.70188283709726     -0.05821747942866
