11
Coordinates from ORCA-job run
  C   -0.64248283758831     -0.64978781458285      0.25691952676713
  C   0.49313428354000      0.16235809106624     -0.40585657183005
  F   -0.77687257502749     -1.82530642402068     -0.43796520441391
  H   0.20126388473533      0.35192857560679     -1.44581215258997
  H   -0.38375246401775     -0.88416619596104      1.29302527090750
  C   -1.89961641474982      0.10656920294866      0.20771566030142
  N   -2.90106158854545      0.71734207802314      0.16013081250823
  C   1.73274071307294     -0.62054879402175     -0.39572516865211
  N   2.71682018738879     -1.25978590180400     -0.37753161910326
  C   0.67077588533915      1.44158724025568      0.28627506434694
  N   0.78905092585260      2.46080994248981      0.85682438175807
