11
Coordinates from ORCA-job run
  C   -0.72879811665702     -0.58326083189779     -0.21182003778929
  C   0.63199532535797      0.01579515610083      0.20163003072866
  F   -1.03129160407969     -0.16216077526274     -1.47961862054132
  H   0.85213639825830     -0.30726234167696      1.22718510931504
  H   -0.65464911640832     -1.67474996828204     -0.21888466546531
  C   -1.77585133058359     -0.16071673894169      0.72679849195727
  N   -2.59684451246905      0.16193113535432      1.50125267077595
  C   0.58061294619845      1.48127255126745      0.17193503223427
  N   0.52746441511792      2.65367705704229      0.16272870812426
  C   1.68211707406221     -0.49155648188838     -0.68789518309648
  N   2.51110852120283     -0.93196876181528     -1.39231153624306
