11
Coordinates from ORCA-job run
  C   -0.77329514712922     -0.58414684960353     -0.35792822992479
  C   0.60454006561558      0.10088379444804     -0.48321330702239
  F   -1.57622443222150     -0.09397225150503     -1.35773777162849
  H   0.96499297910233     -0.09884204546262     -1.49963188287477
  H   -0.65247614719164     -1.66120489077000     -0.50555649353071
  C   -1.38202310914907     -0.32593380939321      0.95158038396984
  N   -1.86373949325954     -0.12847520020012      2.00380820565151
  C   1.54141850447374     -0.48325049065992      0.47997764786172
  N   2.27143551193985     -0.98957064547477      1.24735160520774
  C   0.48486421767814      1.55100390004587     -0.30602486176425
  N   0.37950705014133      2.71250848857530     -0.17362529594542
