11
Coordinates from ORCA-job run
  C   -0.65908856860366     -0.65172716256895      0.19831219379346
  C   0.50328158558003      0.18438954475619     -0.38313728499713
  F   -0.80086179197350     -1.77166115173004     -0.58219670257158
  H   0.23289101129999      0.46170094100165     -1.40901985399158
  H   -0.42416484523948     -0.96518124085477      1.21910564220032
  C   -1.90237667042103      0.12855908590782      0.18014321093800
  N   -2.89415308366919      0.75588430477957      0.15282538674069
  C   1.72575129172008     -0.62443271999509     -0.41637525439186
  N   2.69574779536660     -1.28480154280327     -0.43707991170699
  C   0.69645112089104      1.40033356219562      0.41134099496875
  N   0.82752215504913      2.36593637931128      1.06608157901793
