11
Coordinates from ORCA-job run
  C   -0.66649675597299     -0.65758062855981      0.15664895213178
  C   0.50992980626124      0.19693357605649     -0.36704487490321
  F   -0.80762520727612     -1.73400336645394     -0.68260376058365
  H   0.25692448238296      0.52162960962705     -1.38352916331848
  H   -0.44703430539945     -1.02550835985885      1.16259889924485
  C   -1.90244578885052      0.13431973819411      0.16507498721208
  N   -2.88670733567407      0.77407552051996      0.16068107835476
  C   1.72806934844828     -0.61747008670785     -0.41874029108066
  N   2.69457462253405     -1.28216732475045     -0.45555987677020
  C   0.69765728316705      1.37510364215472      0.48358227968220
  N   0.82315385037957      2.31266767977857      1.17889177003054
