11
Coordinates from ORCA-job run
  C   -0.71346484780505     -0.63572718277297     -0.03902445269950
  C   0.63878965230489      0.08080588603009      0.16097246108821
  F   -1.08728109671323     -0.51921059506017     -1.35160605579074
  H   0.91331119690508      0.00516582628947      1.22087710892873
  H   -0.59575260658807     -1.69825313248808      0.19364423615475
  C   -1.73493415156725     -0.04449197451882      0.83447785283927
  N   -2.53428285578269      0.42049264168906      1.55757344229320
  C   0.52888906187936      1.49850731709987     -0.19759303488904
  N   0.42925614908912      2.63435618101123     -0.47570523757433
  C   1.67051399021884     -0.58628488084526     -0.64050071953584
  N   2.48495550805899     -1.15636008643441     -1.26411560081472
