11
Coordinates from ORCA-job run
  C   -0.65985343598973     -0.65523105835956      0.19006149834966
  C   0.49339103227669      0.19377970335953     -0.39121940553271
  F   -0.83540970407835     -1.74121985710877     -0.63008794803517
  H   0.19783063608070      0.51029640176931     -1.39868385298873
  H   -0.39836104462230     -1.01140953093446      1.19018262453182
  C   -1.89447635572234      0.13701175373668      0.24147773668945
  N   -2.87697040516941      0.77864472864381      0.27606969685628
  C   1.70806301501577     -0.62183500612718     -0.48771241125422
  N   2.67237960171533     -1.28684546445175     -0.55948369099485
  C   0.71802310007562      1.37790902395953      0.44197111626051
  N   0.87538356041803      2.31789930551285      1.12742463611796
