11
Coordinates from ORCA-job run
  C   -0.94560524973461     -0.10198624942782     -0.10081866218251
  C   0.56795034196496      0.09266533263674     -0.33126650077901
  F   -1.39903294994027      0.88916274067597      0.72861647692053
  H   0.92427818413672     -0.72202500258448     -0.97452863324232
  H   -1.46908386227699     -0.01811852325499     -1.05790786288531
  C   -1.20354342934075     -1.41981352016575      0.49324259906042
  N   -1.39899705222288     -2.48784520076106      0.93928296524726
  C   1.29441026853985      0.03835203556920      0.94150719673540
  N   1.87064208233313     -0.02399667585023      1.96206458632039
  C   0.79977820993251      1.36944092024434     -1.01519385308775
  N   0.95820345660832      2.38316414291810     -1.58499831210711
