11
Coordinates from ORCA-job run
  C   -0.77875853584614     -0.59321977079828     -0.33026419479747
  C   0.57130110962889      0.13294712304568     -0.51184844294847
  F   -1.65155844658792     -0.09141207630376     -1.26360943632915
  H   0.87547573909491     -0.02299468921439     -1.55407516595287
  H   -0.63990602248928     -1.66096377450623     -0.52281456352541
  C   -1.31537677271405     -0.39613075971280      1.02067848487794
  N   -1.73905273337238     -0.24966715638464      2.10555905695353
  C   1.58040498460939     -0.45565567626268      0.37239811278299
  N   2.37574516775465     -0.96187316160723      1.07218867757897
  C   0.42555239404937      1.57280739204868     -0.27913776773833
  N   0.29917311587257      2.72716254969564     -0.10807476090173
