11
Coordinates from ORCA-job run
  C   -0.78362662461609     -0.58535140911541     -0.33177277763652
  C   0.57240383815972      0.12972071413531     -0.51468272755612
  F   -1.65490883364084     -0.07428534658809     -1.26121268434412
  H   0.87580833870280     -0.02944504660259     -1.55657767034202
  H   -0.65395603857934     -1.65377040214320     -0.52712275040455
  C   -1.31392537200335     -0.38778909181242      1.02166702704501
  N   -1.73079710076621     -0.24194789568265      2.10946269020998
  C   1.57445710916629     -0.46761780809495      0.37180793175135
  N   2.35750177031743     -0.98440367545566      1.07745912922612
  C   0.43824185367113      1.57065238406086     -0.28170111332314
  N   0.32080105958846      2.72523757729878     -0.10632705462600
