16

C	0.0	0.0	0.0
C	-0.241799	0.082426	-1.538295
Cl	1.778998	0.0	0.0
H	0.40491	-0.679334	-1.976076
H	0.207335	1.049127	-1.791624
N	-0.655453	0.955263	0.738369
H	-1.715918	0.694411	0.501469
H	-0.482817	0.790835	1.724704
N	-0.316952	-1.460918	0.50196
O	-0.456084	-1.591933	1.712963
O	-0.367737	-2.373363	-0.31496
C	-1.602639	-0.017594	-2.212452
H	-2.276034	0.775131	-1.910429
H	-1.413398	0.016066	-3.295055
H	-2.101313	-0.947708	-1.957698
F	-2.857231	0.0	0.0
