16

C	0.0	0.0	0.0
C	-0.505759	-0.150047	-1.435661
Cl	1.76299	0.0	0.0
H	-1.594	-0.221036	-1.297639
H	-0.2859	0.831009	-1.869228
N	-0.588776	1.117967	0.585946
H	-1.62853	0.885634	0.442374
H	-0.380139	1.118481	1.578376
N	-0.320803	-1.294991	0.846784
O	-0.357492	-2.383941	0.286606
O	-0.463269	-1.126751	2.053576
C	0.053405	-1.24357	-2.337344
H	-0.247556	-1.028886	-3.368162
H	-0.335756	-2.22271	-2.066654
H	1.145571	-1.290846	-2.31612
F	-2.838626	0.0	0.0
