16

C	0.0	0.0	0.0
C	-0.481199	-0.037397	-1.44129
Cl	1.783188	0.0	0.0
H	0.047482	-0.83122	-1.969581
H	-1.546077	-0.270443	-1.347921
N	-0.598598	1.011546	0.732895
H	-1.645555	0.780171	0.550764
H	-0.378743	0.887978	1.715209
N	-0.29235	-1.419324	0.636082
O	-0.404948	-1.449424	1.857958
O	-0.336125	-2.39977	-0.096195
C	-0.294447	1.310892	-2.122431
H	0.741709	1.657783	-2.069051
H	-0.576697	1.239717	-3.178301
H	-0.930519	2.054399	-1.643705
F	-2.823538	0.0	0.0
