15
Coordinates from ORCA-job run
  C   -0.62052031214476     -0.22548728785695     -0.24664292040416
  C   0.78695329218189      0.32522434921316     -0.30539083921826
  Cl  -0.73929740209175     -1.89808556729419     -0.70575864924727
  H   1.04103206961485      0.38264821688688     -1.36925211124187
  H   0.73998361109282      1.34483043748755      0.08221578205602
  N   -1.49922751219430      0.65312275529034     -1.15728530433052
  O   -1.70783292746753      1.76963497021463     -0.69824505299082
  O   -1.84369317537674      0.21538707104462     -2.24057459069710
  N   -1.27936510142070     -0.05023201234115      1.12677151435015
  O   -2.43783056630540     -0.43169620565156      1.20586060052862
  O   -0.60993073979237      0.47426261512020      2.00710562277360
  C   1.83568800958074     -0.49401241141893      0.43787264014497
  H   1.57906957081056     -0.60556761918292      1.49010774584424
  H   1.95975895342538     -1.48203884537945     -0.00485636909720
  H   2.79521223008731      0.02300953386778      0.37807193152960
