14

C	-0.393781	-0.135637	-1.467934
C	0.0	0.0	0.0
Br	-0.368759	1.652336	-2.335601
H	1.093848	0.0	0.0
H	-1.432796	-0.462099	-1.594785
H	-0.423487	0.903163	0.451354
C	0.605261	-1.051619	-2.161842
H	0.488213	-1.067046	-3.247445
H	1.607336	-0.730002	-1.85516
H	0.443124	-2.062445	-1.770263
N	-0.427976	-1.239724	0.686027
H	-1.12369	-1.038628	1.393495
H	0.394854	-1.598452	1.154366
F	2.750534	0.0	0.0
