14

C	-0.379359	-0.153381	-1.471464
C	0.0	0.0	0.0
Br	-0.410572	1.63009	-2.343061
H	1.098877	0.0	0.0
H	-1.400568	-0.523181	-1.602934
H	-0.429116	0.905395	0.439448
C	0.658257	-1.02813	-2.15372
H	0.528703	-2.041962	-1.759523
H	1.647138	-0.676895	-1.837355
H	0.55263	-1.051734	-3.240835
N	-0.428737	-1.235228	0.693259
H	-1.107356	-1.022869	1.412903
H	0.398171	-1.604063	1.150638
F	2.75795	0.0	0.0
