14

C	-0.157801	0.044958	-1.503462
C	0.0	0.0	0.0
Br	-2.071617	0.255212	-2.104822
H	1.097193	0.0	0.0
H	0.115574	-0.929928	-1.913722
H	-0.432345	-0.915023	0.415261
C	0.706664	1.131063	-2.114103
H	0.353979	2.124095	-1.822504
H	1.702149	0.953795	-1.677461
H	0.730012	1.077634	-3.203522
N	-0.455718	1.175234	0.733023
H	-1.30001	1.555232	0.31436
H	0.27169	1.876784	0.68283
F	2.730704	0.0	0.0
