18

C	-0.559392	-0.020897	-1.44626
C	0.0	0.0	0.0
Br	0.33072	-1.412889	-2.478102
H	1.096307	0.0	0.0
C	-2.05446	-0.249677	-1.524065
H	-2.266419	-1.242204	-1.136891
H	-2.399643	-0.162366	-2.555412
H	-2.589711	0.48077	-0.917108
N	-0.21005	1.319911	-2.072266
O	-1.111948	2.163334	-2.062146
O	0.934807	1.513932	-2.453708
N	-0.532362	-1.181607	0.688043
H	-0.375487	-0.989593	1.67158
H	0.064162	-1.968753	0.448017
N	-0.403621	1.181466	0.736167
H	0.292124	1.904463	0.610946
H	-1.30828	1.535378	0.457901
Br	3.595656	0.0	0.0
