18

C	-0.401444	-0.02076	-1.481705
C	0.0	0.0	0.0
Br	-0.146039	1.719553	-2.32482
H	1.09574	0.0	0.0
C	0.383182	-1.062289	-2.246976
H	0.139363	-2.041137	-1.83412
H	1.444808	-0.864113	-2.084948
H	0.144008	-1.032573	-3.307798
N	-1.892043	-0.302317	-1.613402
O	-2.294446	-0.815557	-2.651469
O	-2.620035	0.017473	-0.67369
N	-0.408596	-1.305054	0.54115
H	0.302676	-1.608932	1.196228
H	-1.288621	-1.208371	1.033815
N	-0.418304	1.18447	0.712872
H	0.178912	1.305658	1.518495
H	-1.383703	1.115941	0.998917
Br	3.547851	0.0	0.0
