18

C	-0.442033	-0.030376	-1.474363
C	0.0	0.0	0.0
Br	0.35782	1.469467	-2.430174
H	1.099763	0.0	0.0
C	-0.037487	-1.316419	-2.159402
H	-0.338859	-1.303295	-3.209792
H	-0.497236	-2.151018	-1.636351
H	1.049787	-1.400402	-2.087795
N	-1.961702	0.129373	-1.507915
O	-2.47109	1.21499	-1.761386
O	-2.586798	-0.885702	-1.196333
N	-0.401478	-1.220759	0.666244
H	0.275742	-1.430709	1.388248
H	-1.319459	-1.097362	1.077397
N	-0.58039	1.17524	0.663229
H	-0.30147	2.010402	0.156015
H	-0.124805	1.238533	1.569827
Br	3.567572	0.0	0.0
