18

C	0.0	0.0	0.0
C	-0.328475	0.016186	-1.521802
Cl	1.858219	0.0	0.0
H	-0.067784	-0.96966	-1.911675
N	-0.49269	1.149684	0.635828
H	-0.139525	1.996828	0.215892
H	-0.321757	1.110715	1.6306
N	-0.520807	-1.132977	0.683898
H	-1.541042	-1.0071	0.712947
H	-0.294714	-1.989557	0.194476
N	0.568658	0.94131	-2.293486
O	0.626349	2.118799	-1.935431
O	1.149348	0.485699	-3.278724
C	-1.753917	0.413207	-1.839883
H	-1.854899	1.497299	-1.77227
H	-2.509812	0.028974	-1.114585
H	-2.010103	0.087443	-2.853062
H	-3.870158	0.0	0.0
