18

C	0.0	0.0	0.0
C	-0.497584	0.053972	-1.463629
Cl	1.840031	0.0	0.0
H	-1.585986	-0.145486	-1.31046
N	-0.428409	1.2159	0.617732
H	-0.461792	1.059567	1.61696
H	0.199167	1.976664	0.405337
N	-0.542432	-1.064712	0.768855
H	-0.387705	-1.934955	0.27356
H	-1.573347	-0.863367	0.703379
N	0.090763	-1.066993	-2.241981
O	-0.198535	-2.218519	-1.902956
O	0.849669	-0.808357	-3.180854
C	-0.292927	1.37019	-2.174135
H	-0.927018	2.105724	-1.679398
H	0.751527	1.688954	-2.15752
H	-0.604031	1.288208	-3.216165
H	-3.069783	0.0	0.0
