13
Coordinates from ORCA-job run
  C   0.95796673507189     -0.56201153607438      0.26242006741102
  C   -0.29392395250126      0.03259436249751     -0.40548774826974
  Cl  1.51317634390619     -2.03761337944100     -0.56789196272629
  H   -0.03489386535870      0.24207570726719     -1.44722116841687
  H   0.71464579528465     -0.85472697439814      1.28979854279556
  C   2.04925797898514      0.40756148549841      0.30127474642066
  N   2.94354315863900      1.16599842859311      0.35219308536762
  N   -0.54416485871671      1.30839572883578      0.24917804608494
  H   -0.97066570950863      1.16448652687205      1.15780241387687
  H   -1.17299437367318      1.87639129229151     -0.30435329448330
  N   -1.34365654347351     -0.96706428094419     -0.40938710425180
  H   -1.71107450993923     -1.10116631277085      0.52628452732741
  H   -2.10621619871567     -0.67392104822699     -1.00661015113608
