13
Coordinates from ORCA-job run
  C   0.98940594646810     -0.61214427248044      0.06293051717539
  C   -0.42667031729189     -0.00059814209132      0.14920137042072
  Cl  1.46746771856601     -1.02273296239044     -1.59301825213938
  H   -0.56575594805401      0.19987500582499      1.23014428752540
  H   1.00167683629003     -1.54067230641573      0.64087049150783
  C   1.95165640771159      0.31488373719435      0.65482714339953
  N   2.67647976911785      1.08906062196828      1.15884795935598
  N   -1.37836899409750     -0.96613109706953     -0.35869948969610
  H   -1.64260799544926     -1.61481061543492      0.37108534443876
  H   -2.21654957071665     -0.50962879102459     -0.69074978123309
  N   -0.47391433503630      1.19937222595096     -0.65603630337571
  H   -1.42978065962587      1.51801863811441     -0.76110574692340
  H   0.04696114211789      1.94550795785399     -0.20829754045593
