13
Coordinates from ORCA-job run
  C   0.97259721122642     -0.59319681148784      0.04201535023676
  C   -0.39874916925250      0.08165709965294      0.21005469280272
  Cl  1.37897397534882     -0.85258937231510     -1.67499264086185
  H   -0.48057847759883      0.30280549865663      1.28613282078917
  H   0.95866890161170     -1.58336309637116      0.50610557000101
  C   2.00913968373003      0.20915467192712      0.68380330524939
  N   2.83142599904284      0.83272929601674      1.24278537632393
  N   -1.42566685618912     -0.83042368760330     -0.27749310148867
  H   -1.46561803924996     -1.67483683571427      0.28348115959707
  H   -2.32886685853943     -0.37629489505414     -0.21474720573237
  N   -0.39608787693865      1.34417186911530     -0.47773698390503
  H   -0.52393184788051      1.19149233214321     -1.47092930831544
  H   -1.13130664531081      1.94869393103387     -0.13747903469669
