13
Coordinates from ORCA-job run
  C   0.91521637451785     -0.50608839185708      0.40353863463747
  C   -0.32126202847833      0.04476910861418     -0.32136194435008
  Cl  1.30394492856200     -2.17132548408442     -0.13386926934031
  H   -0.07560496447036      0.09300644939545     -1.39235445408921
  H   0.68882486460508     -0.56471260464952      1.47094840100898
  C   2.07211599017038      0.35359589695520      0.18153317846659
  N   3.01742365560910      1.02141556377304     -0.01321796919056
  N   -0.51539127365614      1.39229792655065      0.15997980447373
  H   -1.10603702655918      1.36967323138760      0.98278318696924
  H   -0.93863469596148      1.98611755425673     -0.53932440549981
  N   -1.46080788863606     -0.80322745068186     -0.00204848758906
  H   -1.30239989097198     -1.75784464596943     -0.30297725340968
  H   -2.27638804473065     -0.45667715369043     -0.49362942208695
