13
Coordinates from ORCA-job run
  C   1.02588954820703     -0.57103040008481     -0.21384313884192
  C   -0.45880704786901     -0.21086342393620     -0.34376718470288
  Cl  1.92674762483611     -0.17391859831370     -1.70948193927244
  H   -0.84184123905948     -0.80019421539890     -1.19048825456362
  H   1.09697151526299     -1.65032780924438     -0.07808280848591
  C   1.62950256101683      0.09820053252252      0.93394675856650
  N   2.09511064021366      0.60896547699101      1.88265468947306
  N   -0.59379880734192      1.22709286956451     -0.50193489548319
  H   -1.57389828573915      1.46670057171161     -0.58971463448850
  H   -0.11682389860385      1.55182488066938     -1.33517587487115
  N   -1.10453869008806     -0.69591824845984      0.85501415130858
  H   -2.09315578290350     -0.84372627105366      0.69961245627492
  H   -0.99235813793166     -0.00680536496754      1.59126067508656
