18

C	0.0	0.0	0.0
C	-0.36658	0.232742	-1.51763
Br	2.052922	0.0	0.0
H	0.579456	0.354397	-2.048375
C	-0.237932	1.215268	0.806083
N	-0.393252	2.179567	1.461722
N	-0.584424	-1.161051	0.550945
H	-1.62493	-0.902664	0.404888
H	-0.407764	-1.169142	1.551704
C	-1.184877	1.506697	-1.73778
H	-0.626553	2.401172	-1.447902
H	-1.422246	1.590102	-2.80502
H	-2.103003	1.411588	-1.154834
C	-1.079038	-0.979004	-2.114905
H	-1.16984	-0.828809	-3.196563
H	-2.068364	-1.047394	-1.664
H	-0.519555	-1.899568	-1.936409
F	-2.815856	0.0	0.0
