18

C	0.0	0.0	0.0
C	-0.35998	-0.215431	-1.54217
Br	1.986464	0.0	0.0
H	0.582327	-0.245445	-2.09422
C	-0.320967	1.376528	0.418956
N	-0.484798	2.498849	0.725728
N	-0.562264	-0.879613	0.96772
H	-0.399987	-1.832962	0.660297
H	-1.593926	-0.656945	0.818332
C	-1.20522	0.921688	-2.119829
H	-0.669269	1.87466	-2.094169
H	-2.124004	0.978596	-1.531885
H	-1.434678	0.69406	-3.167527
C	-1.070422	-1.550848	-1.741482
H	-2.016193	-1.502464	-1.199603
H	-1.262798	-1.694739	-2.809999
H	-0.46215	-2.399485	-1.408466
F	-2.807441	0.0	0.0
