18

C	0.0	0.0	0.0
C	-0.357208	-0.035007	-1.558448
Br	1.986549	0.0	0.0
H	0.587356	-0.020805	-2.107105
C	-0.326573	1.314485	0.580952
N	-0.482714	2.399353	1.004562
N	-0.557226	-0.993455	0.853947
H	-1.589997	-0.756398	0.734132
H	-0.392085	-1.900956	0.431246
C	-1.173357	1.17722	-2.009522
H	-0.637933	2.115199	-1.836614
H	-1.366337	1.093696	-3.086233
H	-2.11183	1.165425	-1.45082
C	-1.097528	-1.320111	-1.913543
H	-0.51862	-2.218145	-1.673601
H	-1.281694	-1.338266	-2.993213
H	-2.046473	-1.308632	-1.374891
F	-2.797769	0.0	0.0
