18

C	0.0	0.0	0.0
C	-0.365038	0.164189	-1.52776
Br	2.051971	0.0	0.0
H	0.581753	0.266677	-2.061239
C	-0.238654	1.247352	0.754901
N	-0.398324	2.238133	1.369258
N	-0.586067	-1.134965	0.600479
H	-0.40756	-1.09882	1.600609
H	-1.62693	-0.880544	0.443818
C	-1.189756	1.422345	-1.809413
H	-1.417199	1.459637	-2.88106
H	-2.11174	1.347676	-1.230294
H	-0.642596	2.333923	-1.550703
C	-1.072255	-1.075982	-2.069813
H	-2.061087	-1.125596	-1.616708
H	-0.514058	-1.987424	-1.848993
H	-1.164673	-0.97546	-3.157146
F	-2.812603	0.0	0.0
