18

C	0.0	0.0	0.0
C	-0.480644	0.028313	-1.46782
Br	1.970728	0.0	0.0
H	-1.571156	0.031555	-1.304382
C	-0.314535	1.290438	0.656481
N	-0.527881	2.313738	1.196226
N	-0.581353	-1.11715	0.668416
H	-0.384974	-1.043849	1.662712
H	-1.619454	-0.879036	0.514497
C	-0.069444	-1.235621	-2.213211
H	0.993591	-1.223054	-2.47687
H	-0.648212	-1.312107	-3.139839
H	-0.268855	-2.117786	-1.604211
C	-0.075161	1.283994	-2.226019
H	1.00901	1.348352	-2.365661
H	-0.414967	2.188623	-1.715186
H	-0.541477	1.26845	-3.216683
F	-2.814714	0.0	0.0
