18

C	0.0	0.0	0.0
C	-0.390465	0.045654	-1.535988
Br	1.971603	0.0	0.0
H	0.550974	0.095972	-2.088461
C	-0.29252	1.290049	0.666871
N	-0.475907	2.287217	1.263406
N	-0.58142	-1.104167	0.685198
H	-0.379428	-1.006391	1.676738
H	-1.61641	-0.869505	0.536616
C	-1.205277	1.28618	-1.905661
H	-2.128849	1.256825	-1.323762
H	-1.431366	1.249231	-2.978154
H	-0.650057	2.209431	-1.712905
C	-1.115846	-1.22509	-1.974812
H	-1.206518	-1.213477	-3.066936
H	-0.572988	-2.124063	-1.678125
H	-2.104363	-1.21875	-1.516476
F	-2.828388	0.0	0.0
