13

C	0.0	0.0	0.0
C	-0.623822	-0.074975	-1.362486
F	1.401764	0.0	0.0
H	-0.277493	0.70176	-2.052021
H	-0.356074	0.928104	0.452942
H	-1.74224	0.004551	-1.053396
N	-0.410262	-1.135232	0.787889
H	0.354725	-1.79593	0.808211
H	-0.702133	-0.860128	1.71144
N	-0.410354	-1.364379	-2.049152
O	-1.132702	-1.597551	-3.021062
O	0.468709	-2.137732	-1.655588
F	-2.833515	0.0	0.0
