13

C	0.0	0.0	0.0
C	-0.513038	-0.304096	-1.406277
F	1.37596	0.0	0.0
H	-1.613002	-0.364368	-1.236011
H	-0.339189	1.021107	0.19278
H	-0.246938	0.477637	-2.116967
N	-0.511106	-0.817835	1.05189
H	-0.367003	-1.784744	0.783687
H	-1.531055	-0.627991	0.951421
N	0.018641	-1.554429	-1.983642
O	0.016681	-2.575666	-1.291536
O	0.424919	-1.526517	-3.149344
F	-2.799584	0.0	0.0
