13

C	0.0	0.0	0.0
C	-0.519538	0.061122	-1.418097
F	1.382266	0.0	0.0
H	-0.220702	-0.822666	-1.977002
H	-0.292628	0.926654	0.505515
H	-1.616332	0.160907	-1.275877
N	-0.538835	-1.183498	0.596667
H	-1.564754	-0.9871	0.478644
H	-0.349107	-1.132888	1.592373
N	0.023433	1.232086	-2.133607
O	-0.126803	2.341171	-1.618245
O	0.585487	1.047457	-3.218994
F	-2.816379	0.0	0.0
