13

C	0.0	0.0	0.0
C	-0.538852	-0.060116	-1.404561
F	1.410584	0.0	0.0
H	-0.265184	-0.991336	-1.89578
H	-0.272812	0.962749	0.440192
H	-1.640888	0.030488	-1.243546
N	-0.523253	-1.135661	0.694333
H	-0.30966	-1.016045	1.67963
H	-1.550012	-0.958545	0.584926
N	-0.06766	1.042166	-2.26469
O	0.127933	2.14785	-1.758522
O	0.056138	0.807295	-3.470477
F	-2.824336	0.0	0.0
