13

C	0.0	0.0	0.0
C	-0.450274	0.108753	-1.452143
F	1.383538	0.0	0.0
H	-1.554805	0.187106	-1.393756
H	-0.390069	0.847611	0.557635
H	-0.096354	-0.750172	-2.023744
N	-0.479413	-1.202905	0.63782
H	-1.511521	-1.054788	0.65318
H	-0.27733	-1.989872	0.018998
N	0.142815	1.302941	-2.099476
O	0.933288	1.126538	-3.036115
O	-0.173159	2.410367	-1.657572
F	-2.81233	0.0	0.0
