13

C	0.0	0.0	0.0
C	-0.518037	-0.132852	-1.422109
F	1.395636	0.0	0.0
H	-1.614332	-0.089233	-1.311315
H	-0.287031	1.010447	0.324226
H	-0.08614	0.644115	-2.052165
N	-0.536845	-1.043382	0.804578
H	-0.364326	-0.808742	1.77713
H	-1.563557	-0.890388	0.638041
N	-0.111673	-1.423195	-2.029653
O	0.991909	-1.468449	-2.583393
O	-0.885697	-2.375719	-1.953254
F	-2.829782	0.0	0.0
