13

C	0.0	0.0	0.0
C	-0.52502	-0.252533	-1.390254
F	1.394492	0.0	0.0
H	-0.245034	-1.243142	-1.741726
H	-0.282967	1.013848	0.297083
H	-1.624082	-0.124129	-1.268863
N	-0.529855	-1.02802	0.842371
H	-0.323331	-0.770006	1.802757
H	-1.556342	-0.864292	0.701133
N	0.002418	0.715343	-2.372721
O	0.314741	0.288498	-3.488543
O	0.067609	1.901836	-2.049741
F	-2.82052	0.0	0.0
