13

C	0.0	0.0	0.0
C	-0.493211	0.013648	-1.446005
F	1.396797	0.0	0.0
H	-0.214701	0.932211	-1.960565
H	-0.333448	0.95321	0.415974
H	-1.591638	-0.090148	-1.312497
N	-0.507462	-1.033982	0.836238
H	-1.528362	-0.82292	0.780052
H	-0.366232	-1.915463	0.354774
N	0.069078	-1.080734	-2.261906
O	-0.049188	-2.239014	-1.854029
O	0.625585	-0.789008	-3.324715
F	-2.786575	0.0	0.0
