16

C	-0.544518	-0.000531	-1.43424
C	0.0	0.0	0.0
F	0.112053	-0.983357	-2.132725
H	1.088823	0.0	0.0
N	-1.937538	-0.328921	-1.468218
H	-2.256426	-0.338405	-2.429944
H	-2.457881	0.364943	-0.946548
C	-0.204563	1.281173	-2.106736
N	-0.038064	2.278007	-2.705166
N	-0.497672	-1.23212	0.695431
O	-1.396281	-1.098929	1.521584
O	0.022362	-2.278906	0.344221
N	-0.479581	1.164688	0.793654
O	-1.43688	1.815287	0.364901
O	0.11007	1.372694	1.843718
Br	3.320421	0.0	0.0
