16

C	-0.435698	0.066992	-1.473887
C	0.0	0.0	0.0
F	-1.698334	0.653689	-1.568742
H	1.090948	0.0	0.0
N	0.5133	0.828311	-2.19569
H	1.428752	0.851523	-1.75028
H	0.594217	0.532204	-3.156717
C	-0.593584	-1.297821	-2.038112
N	-0.650891	-2.329409	-2.597795
N	-0.56079	-1.163259	0.729904
O	-1.702903	-1.512684	0.431032
O	0.143654	-1.649356	1.609744
N	-0.44106	1.233016	0.731204
O	-0.051974	2.289747	0.258107
O	-1.115512	1.08837	1.745953
Br	3.330751	0.0	0.0
