16

C	-0.543318	0.021249	-1.433724
C	0.0	0.0	0.0
F	-0.228614	-1.248831	-1.94662
H	1.089521	0.0	0.0
N	-1.924895	0.316049	-1.490476
H	-2.442297	-0.384508	-0.974878
H	-2.242022	0.375562	-2.449222
C	0.17259	0.992112	-2.285254
N	0.614541	1.72963	-3.084091
N	-0.486737	-1.195431	0.753123
O	-1.620571	-1.616382	0.510139
O	0.277333	-1.651058	1.594448
N	-0.458458	1.213156	0.739182
O	-0.158378	2.277561	0.215033
O	-1.066236	1.061027	1.794729
Br	3.305714	0.0	0.0
