15

C	0.0	0.0	0.0
C	-0.610085	0.127346	-1.389524
F	1.343202	0.0	0.0
H	-1.716448	-0.020846	-1.236866
C	-0.459434	1.085637	0.874788
N	-0.607494	2.01232	1.582933
N	-0.397143	-1.340226	0.648942
O	-0.923953	-2.188655	-0.050868
O	-0.061724	-1.439927	1.822393
N	-0.111657	-0.889976	-2.384839
O	-0.709056	-0.884581	-3.454736
O	0.829018	-1.614524	-2.082352
C	-0.340514	1.444168	-1.944854
N	-0.107077	2.504263	-2.395245
Cl	-3.345745	0.0	0.0
