12

C	-0.163899	-0.027189	-1.510852
C	0.0	0.0	0.0
Br	-2.025079	-0.251187	-2.148528
H	1.098724	0.0	0.0
H	0.380362	-0.896094	-1.883936
C	0.376299	1.178612	-2.126826
N	0.768078	2.160591	-2.638931
C	-0.475972	-1.222685	0.611071
N	-0.833916	-2.235249	1.090455
C	-0.552174	1.183683	0.620909
N	-0.975156	2.15579	1.130232
F	2.422258	0.0	0.0
