12

C	-0.389364	-0.019515	-1.488368
C	0.0	0.0	0.0
Br	0.280578	1.579567	-2.390363
H	1.096615	0.0	0.0
H	-1.471771	0.004464	-1.639899
C	0.156407	-1.196826	-2.155569
N	0.569678	-2.12865	-2.739485
C	-0.484225	-1.212908	0.636039
N	-0.859864	-2.209813	1.135667
C	-0.526394	1.174872	0.667497
N	-0.935409	2.131131	1.217063
F	2.430455	0.0	0.0
