12

C	-0.269552	0.006421	-1.511896
C	0.0	0.0	0.0
Br	0.393583	-1.632305	-2.333544
H	1.09642	0.0	0.0
H	0.338568	0.809296	-1.934257
C	-1.671235	0.17224	-1.881121
N	-2.804225	0.31948	-2.159583
C	-0.567293	-1.143426	0.6841
N	-1.00294	-2.073796	1.257097
C	-0.45874	1.25385	0.570201
N	-0.810695	2.291941	0.997807
F	2.440604	0.0	0.0
