12

C	-0.16525	-0.018809	-1.511224
C	0.0	0.0	0.0
Br	-2.027198	-0.233334	-2.150109
H	1.098749	0.0	0.0
H	0.377221	-0.887155	-1.889907
C	0.379034	1.18919	-2.121696
N	0.767636	2.173142	-2.632704
C	-0.47916	-1.224871	0.603776
N	-0.83665	-2.240381	1.077378
C	-0.549514	1.182042	0.627279
N	-0.968559	2.152921	1.142483
F	2.421496	0.0	0.0
