12

C	-0.16661	-0.020578	-1.510686
C	0.0	0.0	0.0
Br	-2.027699	-0.246945	-2.144747
H	1.098768	0.0	0.0
H	0.378693	-0.885798	-1.888862
C	0.369718	1.189484	-2.123146
N	0.755432	2.172542	-2.637383
C	-0.474538	-1.225862	0.60664
N	-0.826914	-2.241311	1.084517
C	-0.552209	1.180422	0.626816
N	-0.976832	2.152488	1.134207
F	2.422301	0.0	0.0
