12

C	-0.168997	-0.026546	-1.510007
C	0.0	0.0	0.0
Br	-2.033923	-0.246793	-2.139964
H	1.098762	0.0	0.0
H	0.370233	-0.897754	-1.885762
C	0.370504	1.178633	-2.127104
N	0.770614	2.165797	-2.622908
C	-0.475465	-1.222894	0.611395
N	-0.832752	-2.236089	1.089711
C	-0.551582	1.183779	0.621203
N	-0.981111	2.158858	1.119041
F	2.422514	0.0	0.0
