12

C	-0.323096	0.005489	-1.500233
C	0.0	0.0	0.0
Br	0.409307	-1.579878	-2.367443
H	1.09642	0.0	0.0
H	0.208451	0.852091	-1.940013
C	-1.747866	0.080791	-1.806894
N	-2.901201	0.15017	-2.025989
C	-0.540528	-1.154891	0.68876
N	-0.9487	-2.101267	1.25499
C	-0.459241	1.245688	0.58988
N	-0.819161	2.275253	1.030275
F	2.439834	0.0	0.0
