16

C	0.0	0.0	0.0
C	-0.403967	-0.13784	-1.490416
F	1.395536	0.0	0.0
H	0.515119	0.065302	-2.046404
H	-0.303386	0.997753	0.331028
C	-0.561819	-1.03789	0.929516
H	-1.656745	-0.959042	0.878623
H	-0.243286	-2.039986	0.633934
H	-0.223701	-0.840127	1.95151
C	-1.479004	0.870537	-1.908069
H	-1.097402	1.880783	-1.72814
H	-2.38514	0.695388	-1.308431
H	-1.702365	0.767827	-2.974525
C	-0.802653	-1.496013	-1.876623
N	-1.096504	-2.517438	-2.377256
H	-3.607938	0.0	0.0
