16

C	0.0	0.0	0.0
C	-0.378945	-0.023641	-1.493774
F	1.393269	0.0	0.0
H	0.371717	0.614599	-1.97663
H	-0.314029	0.96956	0.401154
C	-0.572498	-1.11609	0.828757
H	-1.667042	-1.045507	0.797866
H	-0.253248	-2.087428	0.445222
H	-0.238054	-1.017494	1.864766
C	-1.773692	0.522794	-1.808031
H	-1.767072	1.605163	-1.653265
H	-2.576456	0.130105	-1.15789
H	-2.030275	0.329634	-2.852394
C	-0.160563	-1.364555	-2.046935
N	0.04027	-2.426626	-2.506343
H	-4.054039	0.0	0.0
