16

C	0.0	0.0	0.0
C	-0.593409	0.051681	-1.398055
F	1.392973	0.0	0.0
H	-1.689265	0.179011	-1.167989
H	-0.309327	0.916963	0.512144
C	-0.487773	-1.192027	0.786877
H	-1.585197	-1.162072	0.765151
H	-0.110245	-2.123434	0.357272
H	-0.131892	-1.119426	1.818416
C	-0.387201	-1.219007	-2.22361
H	-0.730734	-1.065528	-3.249154
H	-0.976161	-2.030957	-1.793321
H	0.66725	-1.510039	-2.250953
C	-0.093501	1.218589	-2.117584
N	0.315743	2.147216	-2.711175
H	-3.20236	0.0	0.0
