16

C	0.0	0.0	0.0
C	-0.411978	0.038179	-1.474482
F	1.445458	0.0	0.0
H	-1.512657	0.068569	-1.409836
C	-0.339081	1.262881	0.683417
N	-0.518032	2.286406	1.228581
N	-0.471316	-1.134488	0.73102
H	-1.353624	-0.806745	1.081139
H	-0.761827	-1.783377	0.007848
N	0.023516	-1.231819	-2.047662
H	-0.214764	-1.206653	-3.032298
H	1.038936	-1.274851	-1.987931
N	0.104176	1.190053	-2.209434
H	-0.43056	2.014485	-1.947907
H	1.060298	1.350576	-1.924147
F	-2.736872	0.0	0.0
