16

C	0.0	0.0	0.0
C	-0.402421	-0.067668	-1.474226
F	1.427307	0.0	0.0
H	-1.498289	-0.037229	-1.408287
C	-0.371204	1.310391	0.581831
N	-0.550693	2.365691	1.060969
N	-0.51995	-1.041777	0.806089
H	-1.549467	-0.802431	0.732666
H	-0.394441	-1.884694	0.250665
N	0.027853	-1.377422	-1.979546
H	-0.484739	-1.593439	-2.823588
H	1.013813	-1.336295	-2.208287
N	0.112631	1.099691	-2.175416
H	1.126536	1.078465	-2.160582
H	-0.194275	1.080886	-3.139944
F	-2.7558	0.0	0.0
