16

C	0.0	0.0	0.0
C	-0.416217	-0.192955	-1.470756
F	1.395897	0.0	0.0
H	-1.501005	-0.311389	-1.399847
C	-0.392579	1.353839	0.464946
N	-0.537508	2.465533	0.811551
N	-0.509683	-0.980107	0.895009
H	-1.539612	-0.768984	0.799807
H	-0.360701	-1.867623	0.41928
N	0.212983	-1.42726	-1.925618
H	1.210439	-1.260683	-2.010477
H	-0.136351	-1.605347	-2.859714
N	-0.108282	0.947509	-2.337
H	-0.801401	1.667746	-2.161839
H	0.791823	1.336415	-2.068671
F	-2.736859	0.0	0.0
