16

C	0.0	0.0	0.0
C	-0.361586	-0.271393	-1.522405
F	1.373599	0.0	0.0
H	0.55754	0.056674	-2.025126
C	-0.346549	1.4225	0.311804
N	-0.515293	2.553271	0.583401
N	-0.589342	-0.924785	0.896699
H	-1.618475	-0.732303	0.723513
H	-0.366821	-0.653706	1.84904
N	-1.460828	0.460847	-2.110849
H	-2.237545	0.378807	-1.424837
H	-1.202544	1.439776	-2.183072
N	-0.528704	-1.706597	-1.714918
H	-1.280635	-1.799591	-2.386767
H	-0.835509	-2.11589	-0.839969
F	-2.857758	0.0	0.0
