16

C	0.0	0.0	0.0
C	-0.208882	-0.119995	-1.560196
F	1.392519	0.0	0.0
H	0.425475	-1.00182	-1.750993
C	-0.380687	1.328965	0.550091
N	-0.527278	2.332154	1.13693
N	-0.572622	-1.095556	0.694049
H	-0.396636	-0.967728	1.685672
H	-1.599354	-0.914374	0.542495
N	0.381374	1.091366	-2.155995
H	0.399421	0.94301	-3.159828
H	1.344465	1.17615	-1.853996
N	-1.516134	-0.349212	-2.126799
H	-2.216252	-0.288683	-1.348419
H	-1.721568	0.447014	-2.723935
F	-2.882496	0.0	0.0
