16

C	0.0	0.0	0.0
C	-0.403192	-0.076315	-1.473895
F	1.42659	0.0	0.0
H	-1.498632	-0.044372	-1.40905
C	-0.3709	1.313073	0.577521
N	-0.541834	2.366123	1.065333
N	-0.522804	-1.036879	0.811504
H	-0.401059	-1.884291	0.261956
H	-1.55207	-0.796042	0.735462
N	0.024856	-1.38892	-1.972168
H	-0.486826	-1.608308	-2.815603
H	1.011644	-1.352457	-2.198941
N	0.112224	1.087	-2.182696
H	-0.184368	1.053847	-3.149886
H	1.126022	1.068834	-2.159126
F	-2.757769	0.0	0.0
