18

C	-0.402788	-0.030652	-1.465399
C	0.0	0.0	0.0
F	0.021139	1.251868	-2.003526
H	1.102111	0.0	0.0
N	0.291392	-1.061459	-2.14418
H	1.289664	-0.916168	-2.011023
H	0.078883	-1.033326	-3.134549
N	-1.816126	-0.114224	-1.626032
H	-2.058281	0.159171	-2.572407
H	-2.202424	0.577281	-0.990339
C	-0.496318	-1.226296	0.743589
H	-0.080651	-1.23403	1.756281
H	-0.166157	-2.130029	0.232471
H	-1.58731	-1.228714	0.80264
N	-0.572067	1.216344	0.597813
H	-0.353251	1.197489	1.588444
H	-0.06165	2.002569	0.209687
Br	3.709967	0.0	0.0
