18

C	-0.309424	-0.035135	-1.495277
C	0.0	0.0	0.0
F	-1.704839	-0.07454	-1.659214
H	1.098269	0.0	0.0
N	0.12449	1.151118	-2.195123
H	-0.186512	1.93787	-1.631242
H	1.140224	1.154192	-2.139097
N	0.24296	-1.225597	-2.073267
H	0.294715	-1.082185	-3.075586
H	1.190928	-1.340164	-1.72296
C	-0.531247	-1.213853	0.747523
H	-0.166851	-2.142801	0.307923
H	-0.211632	-1.173243	1.793016
H	-1.625892	-1.22851	0.710294
N	-0.45786	1.27748	0.553745
H	-1.384077	1.161455	0.949845
H	0.171106	1.547658	1.299902
Br	3.588327	0.0	0.0
