18

C	-0.404559	-0.081696	-1.470699
C	0.0	0.0	0.0
F	-1.792845	-0.433732	-1.544635
H	1.094308	0.0	0.0
N	-0.231041	1.18253	-2.106969
H	-0.578821	1.890688	-1.46622
H	-0.761194	1.199184	-2.969874
N	0.303839	-1.165529	-2.092694
H	0.212416	-1.095499	-3.100064
H	1.287448	-1.041693	-1.864902
C	-0.480426	-1.220906	0.770923
H	-0.176645	-2.138439	0.266509
H	-1.572338	-1.218751	0.849966
H	-0.045823	-1.210084	1.774083
N	-0.459603	1.266962	0.584772
H	-1.261476	1.100967	1.183792
H	0.289067	1.64002	1.156127
Br	3.62231	0.0	0.0
