18

C	-0.382222	-0.043449	-1.471394
C	0.0	0.0	0.0
F	0.025999	1.24663	-2.008788
H	1.097815	0.0	0.0
N	0.348649	-1.060942	-2.134734
H	1.337129	-0.923202	-1.932759
H	0.2118	-0.993851	-3.136816
N	-1.790207	-0.155525	-1.655291
H	-2.024475	0.064633	-2.616757
H	-2.200617	0.553951	-1.056857
C	-0.498695	-1.222912	0.746739
H	-0.162651	-2.129951	0.243085
H	-0.089684	-1.224325	1.763455
H	-1.590693	-1.227408	0.797295
N	-0.579924	1.220333	0.580406
H	-0.063774	2.001456	0.191578
H	-0.379465	1.212279	1.575104
Br	3.687253	0.0	0.0
