18

C	-0.405899	0.035203	-1.471585
C	0.0	0.0	0.0
F	0.033298	-1.171875	-2.051726
H	1.096114	0.0	0.0
N	-1.823879	0.164701	-1.628426
H	-1.998259	0.322903	-2.614308
H	-2.267313	-0.703456	-1.353514
N	0.234891	1.088286	-2.21341
H	0.119049	1.918756	-1.638827
H	1.231429	0.877337	-2.194329
C	-0.516152	-1.22315	0.747806
H	-1.609586	-1.200081	0.842302
H	-0.092974	-1.240004	1.755661
H	-0.220092	-2.144137	0.242274
N	-0.402357	1.283487	0.581288
H	-1.386077	1.259332	0.825486
H	0.14418	1.448929	1.418079
Br	3.671486	0.0	0.0
