18

C	-0.412418	-0.026456	-1.461906
C	0.0	0.0	0.0
F	0.015746	1.250587	-2.003711
H	1.102122	0.0	0.0
N	0.266106	-1.065812	-2.143912
H	0.030766	-1.05539	-3.131515
H	1.269013	-0.921869	-2.033796
N	-1.830559	-0.099499	-1.611678
H	-2.202365	0.584523	-0.957798
H	-2.076503	0.201996	-2.548569
C	-0.495469	-1.225686	0.745439
H	-0.1664	-2.130062	0.23502
H	-0.077722	-1.232067	1.757231
H	-1.586332	-1.228477	0.807359
N	-0.566471	1.217594	0.602609
H	-0.053965	2.002775	0.214939
H	-0.343956	1.194538	1.592016
Br	3.708246	0.0	0.0
