18

C	-0.534107	-0.015872	-1.429772
C	0.0	0.0	0.0
F	-0.070293	-1.210543	-2.033331
H	1.094174	0.0	0.0
N	-1.982041	-0.071955	-1.427045
H	-2.257789	-0.983375	-1.078752
H	-2.295581	-0.035229	-2.392361
N	-0.050699	1.088815	-2.180981
H	-0.7951	1.530967	-2.696455
H	0.329497	1.765809	-1.536761
C	-0.448779	-1.225377	0.794141
H	0.084532	-1.245173	1.74694
H	-0.209174	-2.146126	0.259215
H	-1.523737	-1.196978	1.009708
N	-0.384439	1.278199	0.604567
H	0.201586	1.442317	1.412945
H	-1.353785	1.247876	0.897225
Br	3.693989	0.0	0.0
