18

C	-0.333536	0.026135	-1.494719
C	0.0	0.0	0.0
F	-0.073976	1.336413	-1.969203
H	1.09831	0.0	0.0
N	0.484689	-0.915943	-2.17956
H	0.442633	-0.747399	-3.178812
H	1.450866	-0.814131	-1.868523
N	-1.754061	-0.138895	-1.751901
H	-1.948551	-1.133093	-1.764054
H	-1.951783	0.230362	-2.676664
C	-0.506859	-1.27664	0.651119
H	-0.160271	-2.160396	0.111808
H	-0.130768	-1.31618	1.674498
H	-1.601901	-1.280096	0.689142
N	-0.511329	1.159283	0.717332
H	-1.458995	1.322908	0.387483
H	0.040362	1.962169	0.438264
Br	3.676051	0.0	0.0
