13

C	-0.324383	-0.002499	-1.470043
C	0.0	0.0	0.0
Br	-2.259509	-0.17877	-1.857458
H	1.096039	0.0	0.0
H	0.139082	-0.882158	-1.914571
C	0.150072	1.209642	-2.120826
N	0.493133	2.194266	-2.661982
N	-0.375064	-1.288745	0.616648
O	-0.262729	-2.293514	-0.085714
O	-0.695707	-1.291764	1.803334
C	-0.550098	1.115733	0.729571
N	-0.954206	2.06372	1.295836
F	2.413162	0.0	0.0
