13

C	-0.349642	0.027794	-1.485926
C	0.0	0.0	0.0
Br	0.235599	-1.626709	-2.340063
H	1.0916	0.0	0.0
H	0.285818	0.807172	-1.917542
C	-1.744695	0.278553	-1.841528
N	-2.838938	0.54051	-2.183414
N	-0.591362	-1.205679	0.665569
O	-1.781078	-1.44085	0.439439
O	0.140544	-1.872063	1.389326
C	-0.526705	1.182476	0.652458
N	-0.928899	2.163225	1.163053
F	2.468835	0.0	0.0
