13

C	-0.293508	-0.00444	-1.476531
C	0.0	0.0	0.0
Br	-2.219807	-0.167277	-1.910889
H	1.09659	0.0	0.0
H	0.175686	-0.887984	-1.907613
C	0.207482	1.202082	-2.11878
N	0.564479	2.176154	-2.66952
N	-0.380303	-1.286003	0.616213
O	-0.69498	-1.286007	1.804835
O	-0.276926	-2.292108	-0.08604
C	-0.558174	1.118908	0.717471
N	-0.978843	2.071877	1.263064
F	2.412661	0.0	0.0
