14

C	-0.224545	0.15195	-1.501497
C	0.0	0.0	0.0
Br	-0.522256	-1.968455	-2.126736
H	1.088674	0.0	0.0
H	-0.438008	-0.882792	0.446014
C	-1.504564	0.674269	-1.969171
N	-2.528657	1.107823	-2.353611
N	0.864162	0.718321	-2.071026
H	1.759864	0.508837	-1.581251
H	0.882031	0.850958	-3.069109
N	-0.456565	1.173228	0.753062
O	-0.753579	0.987471	1.935097
O	-0.457389	2.271929	0.193005
H	2.68752	0.0	0.0
