14

C	-0.262459	-0.198007	-1.479821
C	0.0	0.0	0.0
Br	-2.164548	-0.995893	-1.832301
H	1.09116	0.0	0.0
H	-0.440612	0.907091	0.403534
C	-0.403354	1.12194	-2.112693
N	-0.428982	2.178663	-2.63028
N	0.729289	-1.006682	-2.046634
H	1.607646	-0.907467	-1.50568
H	0.862452	-0.841725	-3.03404
N	-0.409486	-1.114571	0.850601
O	-0.929386	-0.830336	1.936308
O	-0.146477	-2.25567	0.475658
H	2.609665	0.0	0.0
