14

C	-0.291721	0.05999	-1.494934
C	0.0	0.0	0.0
Br	-0.069445	-1.861955	-2.252412
H	1.088911	0.0	0.0
H	-0.372082	0.917666	0.462623
C	-1.656883	0.398655	-1.900048
N	-2.733049	0.715946	-2.253526
N	0.649481	0.961791	-2.001411
H	0.656878	1.013535	-3.010462
H	1.586484	0.762182	-1.605079
N	-0.645218	-1.122453	0.707228
O	-1.850239	-1.289385	0.50131
O	0.035038	-1.784092	1.48656
H	2.785368	0.0	0.0
