14

C	-0.321537	0.03718	-1.499979
C	0.0	0.0	0.0
Br	-0.17958	-1.800037	-2.236058
H	1.088891	0.0	0.0
H	-0.373404	0.931563	0.436636
C	-1.6787	0.494413	-1.812845
N	-2.737549	0.941119	-2.057879
N	0.648077	0.862896	-2.176774
H	1.570701	0.650185	-1.761054
H	0.433931	1.836016	-1.970819
N	-0.656448	-1.094865	0.73887
O	0.03667	-1.99896	1.195604
O	-1.885916	-1.022379	0.847085
H	2.803494	0.0	0.0
