15

C	-0.194417	0.080233	-1.501525
C	0.0	0.0	0.0
Cl	-1.88293	0.525092	-2.017033
H	1.091648	0.0	0.0
H	-0.080833	-0.938783	-1.875919
N	0.755407	1.037633	-1.987318
H	0.925796	0.874366	-2.970476
H	1.622856	0.879713	-1.45382
N	-0.521313	-1.226696	0.628101
O	-0.799304	-2.183694	-0.096016
O	-0.558233	-1.24106	1.856516
N	-0.541164	1.183263	0.702005
O	-1.705561	1.136485	1.100494
O	0.206687	2.153449	0.795159
F	2.535806	0.0	0.0
