15

C	-0.430969	-0.016833	-1.441323
C	0.0	0.0	0.0
Cl	-2.252263	-0.520296	-1.589293
H	1.08954	0.0	0.0
H	0.079422	-0.863733	-1.892053
N	-0.136205	1.167779	-2.129263
H	-0.672895	1.942818	-1.768061
H	-0.271964	1.060515	-3.123273
N	-0.412934	-1.264298	0.654942
O	-0.040978	-2.282004	0.075458
O	-1.070138	-1.241196	1.691444
N	-0.473832	1.145577	0.790998
O	-0.020294	1.251812	1.926358
O	-1.248715	1.959376	0.270436
F	2.450125	0.0	0.0
