15

C	-0.465121	-0.073589	-1.432466
C	0.0	0.0	0.0
Cl	-2.354258	0.220152	-1.48911
H	1.088433	0.0	0.0
H	-0.416214	-1.106118	-1.76116
N	0.247379	0.7804	-2.274842
H	0.403734	1.689279	-1.864751
H	-0.143473	0.831744	-3.204088
N	-0.396257	-1.185758	0.787915
O	-0.834876	-2.171132	0.191585
O	-0.153636	-1.149418	1.990447
N	-0.489841	1.240077	0.637625
O	-1.299264	1.20553	1.557342
O	-0.045357	2.276323	0.134512
F	2.445044	0.0	0.0
