15

C	-0.248771	-0.086612	-1.496928
C	0.0	0.0	0.0
Cl	0.086413	1.590472	-2.222507
H	1.087603	0.0	0.0
H	-1.280547	-0.287535	-1.780523
N	0.671714	-1.070517	-1.914523
H	0.727062	-1.14993	-2.91932
H	1.588966	-0.857079	-1.490941
N	-0.52547	-1.257895	0.621191
O	-1.738022	-1.465226	0.511083
O	0.26887	-1.993215	1.194914
N	-0.690649	1.091489	0.714398
O	-1.718866	1.559337	0.224601
O	-0.21219	1.411928	1.803137
F	2.560225	0.0	0.0
