15

C	-0.502108	0.03552	-1.426716
C	0.0	0.0	0.0
Cl	0.166096	-1.440596	-2.289164
H	1.088615	0.0	0.0
H	0.021034	0.862613	-1.897836
N	-1.907799	0.198086	-1.559398
H	-2.164383	0.309544	-2.530377
H	-2.377715	-0.607405	-1.166508
N	-0.501461	-1.14073	0.800576
O	0.118167	-1.396788	1.828754
O	-1.491179	-1.771128	0.405367
N	-0.457813	1.24601	0.663295
O	-1.088083	1.178718	1.717997
O	-0.1448	2.287542	0.092227
F	2.469658	0.0	0.0
