15

C	-0.255083	-0.064359	-1.495287
C	0.0	0.0	0.0
Cl	0.114978	1.609191	-2.208199
H	1.096327	0.0	0.0
H	-1.291317	-0.242568	-1.777704
N	0.642178	-1.064092	-1.928189
H	0.683166	-1.138271	-2.934663
H	1.567636	-0.866552	-1.518413
N	-0.526412	-1.266876	0.603146
O	-1.735023	-1.48159	0.466154
O	0.260372	-1.998543	1.191774
N	-0.688426	1.075925	0.738477
O	-0.247873	1.322449	1.862121
O	-1.678554	1.605966	0.232759
F	2.553975	0.0	0.0
