15

C	-0.266139	-0.255472	-1.484158
C	0.0	0.0	0.0
Cl	-0.447464	1.42279	-2.351346
H	1.104779	0.0	0.0
H	-1.233109	-0.708995	-1.691786
N	0.823138	-1.002814	-1.921089
H	1.70744	-0.678568	-1.496722
H	0.857303	-1.170315	-2.913946
N	-0.50059	-1.119107	0.838978
O	-0.981486	-2.113102	0.298517
O	-0.365878	-0.97009	2.051893
N	-0.655593	1.215982	0.527476
O	0.044151	2.186571	0.790432
O	-1.882188	1.162132	0.647516
F	2.567542	0.0	0.0
