15

C	-0.263489	-0.037438	-1.506383
C	0.0	0.0	0.0
Cl	-0.441479	1.748717	-2.121712
H	1.08761	0.0	0.0
H	-1.231148	-0.453575	-1.778944
N	0.827346	-0.71568	-2.039176
H	0.867189	-0.740743	-3.045302
H	1.710837	-0.457507	-1.566809
N	-0.503814	-1.229438	0.667293
O	-1.015524	-2.121006	-0.007543
O	-0.347269	-1.266859	1.885808
N	-0.654797	1.127187	0.698764
O	0.044771	2.05278	1.091305
O	-1.879954	1.052108	0.817973
F	2.571911	0.0	0.0
