15

C	-0.282251	-0.033905	-1.510257
C	0.0	0.0	0.0
Cl	-0.383881	1.67185	-2.105357
H	1.089468	0.0	0.0
H	-1.247358	-0.485389	-1.737053
N	0.785377	-0.712242	-2.183713
H	1.652063	-0.503298	-1.665176
H	0.609265	-1.706327	-2.107966
N	-0.450828	-1.25719	0.64223
O	-0.656997	-2.240883	-0.071695
O	-0.526135	-1.256422	1.868108
N	-0.681599	1.090495	0.727046
O	-1.915407	1.0625	0.707095
O	0.002304	1.947852	1.277018
F	2.539882	0.0	0.0
