16

C	-0.396841	-0.040362	-1.485844
C	0.0	0.0	0.0
Br	-2.360248	0.229594	-1.654004
H	1.106305	0.0	0.0
C	0.328147	1.05759	-2.247591
H	0.061136	2.017851	-1.808698
H	0.060503	1.036106	-3.305125
H	1.402908	0.893676	-2.120587
C	-0.128666	-1.352346	-2.068689
N	0.083331	-2.393931	-2.571319
C	-0.503894	-1.169216	0.727916
N	-0.946695	-2.057924	1.358089
N	-0.391346	1.267593	0.598942
H	-1.285248	1.192424	1.066965
H	0.320082	1.532375	1.269278
Cl	3.254112	0.0	0.0
