16

C	-0.42351	-0.007281	-1.484721
C	0.0	0.0	0.0
Br	0.131056	1.705939	-2.283003
H	1.102013	0.0	0.0
C	0.287452	-1.13032	-2.231591
H	0.069505	-1.080396	-3.299387
H	1.362046	-1.030289	-2.05919
H	-0.051883	-2.094554	-1.842938
C	-1.875937	-0.080771	-1.625937
N	-3.039213	-0.187074	-1.759308
C	-0.467266	-1.24896	0.604946
N	-0.854893	-2.237134	1.109166
N	-0.580998	1.138745	0.718137
H	-0.601678	0.916216	1.707606
H	0.072395	1.908833	0.613951
Cl	3.308281	0.0	0.0
