16

C	-0.553024	-0.006943	-1.442049
C	0.0	0.0	0.0
Br	0.125688	-1.590606	-2.382347
H	1.108339	0.0	0.0
C	-2.077954	-0.03103	-1.478105
H	-2.445378	-0.937961	-0.993384
H	-2.436371	-0.008277	-2.507876
H	-2.449308	0.850152	-0.949687
C	-0.072724	1.175494	-2.15492
N	0.208785	2.140349	-2.763647
C	-0.478763	-1.182317	0.720813
N	-0.933194	-2.07502	1.337005
N	-0.428453	1.244348	0.644827
H	0.384096	1.665376	1.081037
H	-1.132663	1.080024	1.352506
Cl	3.251337	0.0	0.0
