15

C	0.0	0.0	0.0
C	-0.500909	0.068739	-1.428508
Br	2.017088	0.0	0.0
H	-0.165453	-0.79274	-1.993278
H	-1.596024	0.131428	-1.379157
N	-0.513701	0.967561	0.835195
H	-1.533079	0.994343	0.688317
H	-0.310684	0.744351	1.802748
N	-0.268524	-1.46988	0.514876
O	-0.273293	-2.38294	-0.299136
O	-0.411479	-1.578448	1.724505
N	0.012915	1.273311	-2.132484
O	0.790777	1.08063	-3.069984
O	-0.386482	2.37197	-1.758694
Cl	-3.49104	0.0	0.0
