15

C	0.0	0.0	0.0
C	-0.500995	-0.155858	-1.43828
Br	1.926129	0.0	0.0
H	-1.59949	-0.103994	-1.386765
H	-0.161373	-1.078985	-1.892597
N	-0.498883	1.060166	0.781144
H	-1.516957	0.921451	0.836635
H	-0.328446	1.923423	0.278429
N	-0.3707	-1.327898	0.722928
O	-0.596847	-1.263961	1.918566
O	-0.34029	-2.347839	0.043075
N	-0.022755	0.941294	-2.317501
O	0.379323	0.619821	-3.435312
O	-0.082501	2.100916	-1.907776
Cl	-3.487996	0.0	0.0
