16

C	0.0	0.0	0.0
C	-0.338533	-0.052759	-1.500351
Cl	1.789759	0.0	0.0
H	0.060667	0.862532	-1.94475
C	-0.319467	1.365613	0.638017
H	-1.406867	1.484325	0.682268
H	0.138433	2.154746	0.043302
H	0.105849	1.373965	1.639992
C	-0.616931	-1.082624	0.761308
N	-0.641687	-1.987805	1.561074
C	-1.742642	-0.269203	-1.886571
N	-2.534832	-0.818686	-2.582111
N	0.446149	-1.148403	-2.202664
O	1.053676	-0.825412	-3.219321
O	0.386152	-2.271753	-1.728957
H	-2.314228	0.0	0.0
