16

C	0.0	0.0	0.0
C	-0.526877	-0.140431	-1.415784
Cl	1.820756	0.0	0.0
H	-1.62345	-0.169391	-1.30219
H	-0.256593	-0.899971	0.55912
N	-0.492889	1.228439	0.562154
H	-1.514443	1.176459	0.479975
H	-0.285794	1.220635	1.554649
N	-0.187177	-1.487033	-1.984288
O	0.084114	-2.404652	-1.212289
O	-0.269984	-1.611641	-3.206134
C	-0.110179	0.9654	-2.361463
H	0.949469	0.889505	-2.613184
H	-0.285952	1.917139	-1.860002
H	-0.696766	0.922726	-3.277644
Br	-3.713523	0.0	0.0
