16

C	0.0	0.0	0.0
C	-0.521221	0.04406	-1.436755
Br	2.021752	0.0	0.0
H	-1.625154	0.169036	-1.227336
C	-0.266514	1.296138	0.669077
N	-0.443712	2.277287	1.294501
N	-0.598325	-1.104923	0.646623
H	-0.414512	-1.049106	1.644999
H	-1.648132	-0.872683	0.503293
C	-0.290163	-1.257122	-2.19902
H	-0.710518	-1.173176	-3.204629
H	-0.783478	-2.071872	-1.670954
H	0.777394	-1.478576	-2.279892
C	-0.027223	1.195082	-2.177376
N	0.340414	2.101598	-2.830023
H	-2.878614	0.0	0.0
