16

C	0.0	0.0	0.0
C	-0.545258	0.069902	-1.433966
Br	1.957025	0.0	0.0
H	-1.649525	0.1532	-1.207868
C	-0.31308	1.271644	0.701033
N	-0.501843	2.248921	1.328878
N	-0.580679	-1.142381	0.624363
H	-1.62104	-0.930902	0.514842
H	-0.37369	-1.11612	1.619752
C	-0.272458	-1.191008	-2.247448
H	-0.817905	-1.137099	-3.192931
H	-0.61572	-2.057929	-1.685024
H	0.793227	-1.302009	-2.46279
C	-0.098968	1.261404	-2.139435
N	0.252349	2.195557	-2.7617
H	-2.914811	0.0	0.0
