15

C	-0.464319	-0.175773	-1.443243
C	0.0	0.0	0.0
F	-1.830688	-0.485754	-1.454283
H	1.088733	0.0	0.0
H	-0.401746	0.91023	0.439365
C	-0.34138	1.139035	-2.100018
N	-0.280007	2.187663	-2.624919
C	0.29325	-1.223501	-2.231541
H	-0.022495	-1.199973	-3.276882
H	1.363348	-1.018285	-2.15074
H	0.091217	-2.200124	-1.804352
N	-0.482171	-1.109491	0.859909
O	-0.23057	-2.261623	0.519766
O	-1.091919	-0.797025	1.881192
Br	3.447725	0.0	0.0
