15

C	-0.567826	-0.00476	-1.414613
C	0.0	0.0	0.0
F	0.117759	0.87181	-2.232564
H	1.089447	0.0	0.0
H	-0.358138	-0.869556	0.550542
C	-0.381173	-1.368573	-1.956539
N	-0.277538	-2.463209	-2.368236
C	-2.046394	0.354809	-1.483544
H	-2.393709	0.266987	-2.513924
H	-2.635574	-0.309704	-0.848236
H	-2.175669	1.386085	-1.15513
N	-0.466364	1.184386	0.760619
O	-0.962467	0.986035	1.871335
O	-0.326289	2.288418	0.239163
Br	3.444733	0.0	0.0
