15

C	-0.490647	0.008276	-1.42632
C	0.0	0.0	0.0
F	-1.877772	-0.197911	-1.442438
H	1.088523	0.0	0.0
H	-0.334538	-0.918973	0.483271
C	-0.238694	1.265327	-2.154405
N	-0.061695	2.168245	-2.883141
C	0.183726	-1.134434	-2.16908
H	-0.16983	-1.162852	-3.200919
H	-0.064744	-2.077487	-1.677848
H	1.267162	-0.995462	-2.142513
N	-0.512301	1.10516	0.846647
O	-0.952383	2.116944	0.301025
O	-0.442123	0.929889	2.060348
Br	3.438643	0.0	0.0
