15

C	-0.46333	0.108615	-1.445691
C	0.0	0.0	0.0
F	-0.289221	-1.128636	-2.054578
H	1.088558	0.0	0.0
H	-0.354421	0.855757	0.580003
C	-1.888882	0.474557	-1.584425
N	-2.985312	0.859984	-1.752147
C	0.410221	1.119332	-2.171606
H	0.272143	2.117429	-1.751449
H	0.140923	1.135601	-3.229797
H	1.455829	0.826104	-2.043581
N	-0.549682	-1.213932	0.662107
O	-1.723305	-1.500538	0.418293
O	0.183395	-1.821641	1.430382
Br	3.528847	0.0	0.0
