15

C	-0.464158	0.099148	-1.457768
C	0.0	0.0	0.0
F	-0.397249	-1.20724	-1.952618
H	1.089109	0.0	0.0
H	-0.412174	-0.897832	0.455135
C	-1.885717	0.506895	-1.54142
N	-3.010268	0.836049	-1.621146
C	0.420082	0.976447	-2.317383
H	0.116504	0.87798	-3.361657
H	0.342328	2.015394	-1.998889
H	1.453623	0.648921	-2.182326
N	-0.481268	1.152856	0.794065
O	-0.203608	2.279999	0.385145
O	-1.130809	0.910791	1.81264
Br	3.479933	0.0	0.0
