15

C	-0.566995	0.037046	-1.414684
C	0.0	0.0	0.0
F	0.117741	0.93886	-2.205623
H	1.089506	0.0	0.0
H	-0.357048	-0.886304	0.524001
C	-0.377618	-1.30974	-1.99652
N	-0.280285	-2.392843	-2.438755
C	-2.046379	0.394673	-1.4751
H	-2.39178	0.33658	-2.508343
H	-2.634315	-0.290877	-0.861211
H	-2.178966	1.41507	-1.11612
N	-0.464005	1.160326	0.798198
O	-0.933413	0.929215	1.913772
O	-0.343909	2.278572	0.302868
Br	3.44291	0.0	0.0
