15

C	-0.458872	-0.149911	-1.448922
C	0.0	0.0	0.0
F	-1.822745	-0.486165	-1.471446
H	1.088791	0.0	0.0
H	-0.404381	0.900496	0.456473
C	-0.348202	1.181603	-2.079767
N	-0.296322	2.24141	-2.581175
C	0.324519	-1.172089	-2.250953
H	1.39014	-0.95	-2.169427
H	0.141859	-2.159565	-1.836909
H	0.005147	-1.140737	-3.294091
N	-0.484035	-1.128664	0.833836
O	-0.206884	-2.273033	0.481066
O	-1.124591	-0.839338	1.845794
Br	3.448833	0.0	0.0
