15
Coordinates from ORCA-job run
  C   -0.60669974621259      0.21895036835239     -0.20320642409633
  C   0.75312265260504      0.35526319011356     -0.86026429072742
  Br  -1.88708803589682      0.95699209221813     -1.47935714598940
  H   0.77872277303897     -0.17691452244305     -1.80953914982601
  H   1.00558433713376      1.40394634011065     -1.01318968131079
  C   -1.00301240248010     -1.19176119198138      0.16018371378370
  H   -0.34531465437979     -1.57228804861448      0.94183164894819
  H   -0.92718115727632     -1.82246949764560     -0.72762034108273
  H   -2.02681461727598     -1.21762886914242      0.52645524298628
  N   -0.68039161546899      1.14181307817353      1.01426452474197
  O   -1.34752769718309      0.75179248368379      1.96243956171858
  O   -0.09627625269083      2.21361288345099      0.92605433470197
  N   1.84924460255398     -0.22317883310880     -0.01845377105659
  O   1.69208512793281     -0.21657128927564      1.20033762142620
  O   2.84054668559994     -0.62155818389166     -0.61893584421763
