15
Coordinates from ORCA-job run
  C   -0.45103891718899      0.17081518367902     -0.16094834986243
  C   0.91134141487790     -0.47542804805842     -0.31167428581409
  Br  -0.75698392538566      1.41388857253494     -1.60518410517439
  H   1.12686440390328     -1.08239024408979      0.56938412774456
  H   0.94738748902484     -1.08179765209660     -1.21471125090948
  C   -1.54657769146386     -0.88397639517966     -0.14394360420270
  H   -1.56579523554433     -1.41633827954847     -1.09530626902662
  H   -1.36188106988846     -1.58958391200529      0.66870991177704
  H   -2.51625474691891     -0.40709146453256      0.00722444357159
  N   -0.52935783483312      0.88637326814451      1.19602268794857
  O   -1.00353383590167      2.00599732053667      1.26175953962343
  O   -0.15922018441269      0.18915306168187      2.13534986878894
  N   2.02066578060728      0.51851911141366     -0.41866158686791
  O   2.92050500366382      0.25676556496613     -1.20968542364910
  O   1.96087934946059      1.49509391255399      0.32166429605260
