15
Coordinates from ORCA-job run
  C   -0.47559960399881      0.26049384249824     -0.03948324213726
  C   1.03554756052904      0.45046140212758     -0.12443269724144
  Br  -1.30444050372759      0.78875585591964     -1.71655585523144
  H   1.29036141097093      1.45793659953836     -0.43816173696470
  H   1.48691146474251      0.21840506785021      0.84078460443548
  C   -0.93576954899359     -1.12189144368304      0.36320474791036
  H   -2.01895145632305     -1.12910619308523      0.46538670368377
  H   -0.48015588263756     -1.39344180787663      1.31967473030307
  H   -0.63477147794732     -1.85346543919551     -0.38361256854788
  N   -0.98657775061751      1.25776618133232      1.01131627383595
  O   -2.14754724264593      1.12837146195901      1.37082613569530
  O   -0.19514175550909      2.10751162256850      1.41022966894200
  N   1.63537115394418     -0.48905504486508     -1.11597913657917
  O   1.95825597551973     -0.02415715828623     -2.20557149866362
  O   1.77150765669406     -1.65858494680215     -0.75862612944042
