15
Coordinates from ORCA-job run
  C   -0.60263632958835      0.22738505510240     -0.20539981072885
  C   0.72095721625561      0.16053969988243     -0.94244574634382
  Br  -1.90836723606124      0.84633831444676     -1.51870851601854
  H   0.65514219324701     -0.51459367582865     -1.79381030374667
  H   1.02912216957243      1.15136860782396     -1.27435312107417
  C   -1.06503478971642     -1.07649839442583      0.39891415309799
  H   -2.06387729744871     -0.97003243660676      0.81603869742695
  H   -1.08462239790486     -1.84216071839776     -0.37896181874504
  H   -0.38629678089771     -1.37720581671991      1.19718594113839
  N   -0.54399078337469      1.33271161825100      0.85004839419592
  O   -1.17371206101886      1.14456811224719      1.88168839429319
  O   0.09873548390863      2.33323353446226      0.56084254728875
  N   1.82732243040987     -0.35567506874339     -0.07402590369735
  O   2.75355315779919     -0.91331523228478     -0.65117072815272
  O   1.74470502481810     -0.14666359920892      1.13415782106596
