15
Coordinates from ORCA-job run
  C   -0.47159992727410      0.13033143644716     -0.13864592982330
  C   0.90451233302607     -0.47419694740122     -0.33233535052283
  Br  -0.96496234210107      1.16313515399361     -1.69262924754442
  H   0.89412515133718     -1.19018113487296     -1.15193761674509
  H   1.22649860771867     -0.95305440771652      0.59402093332015
  C   -1.50507845319458     -0.95729402652829      0.11042898279546
  H   -1.57830875817117     -1.60784572471485     -0.76152121607518
  H   -2.48181404848269     -0.50511435532852      0.28960044163993
  H   -1.21456157009868     -1.54429937674242      0.98413667374635
  N   -0.46950167223211      1.01130504665575      1.11924275618719
  O   0.01343208759177      0.45508083028161      2.10067212098961
  O   -0.99103538702864      2.11121098370507      1.08790923776748
  N   1.94749373852786      0.54147812686044     -0.66448514029053
  O   1.90052191230660      1.60294759487955     -0.05080283035681
  O   2.78927832807488      0.21549680048159     -1.49465381508801
