15
Coordinates from ORCA-job run
  C   -0.47184123278088      0.12626326898518     -0.14118523205544
  C   0.90915674020093     -0.46955680717548     -0.32659396137403
  Br  -0.96640376752013      1.14803540352430     -1.70215793399688
  H   0.90683105695259     -1.18938752388109     -1.14288546033528
  H   1.23103140357338     -0.94176210074860      0.60322112564621
  C   -1.49885433416555     -0.96721118935749      0.10918816387801
  H   -1.56464942414944     -1.62250281342501     -0.75977989178646
  H   -2.47911380531511     -0.52063230933278      0.28304945803938
  H   -1.20740798192565     -1.54819310253720      0.98663299881199
  N   -0.48074643276210      1.01327056630416      1.11250358139461
  O   -1.00927761091584      2.10957575855764      1.07341855387291
  O   0.00198077669134      0.46512967597919      2.09851283066182
  N   1.94631672653303      0.55193155373957     -0.65913269639752
  O   1.88980108704039      1.61533746371457     -0.04962076054922
  O   2.79317679854303      0.22870215565301     -1.48517077581012
