15
Coordinates from ORCA-job run
  C   -0.46948778229984      0.19011797079449     -0.04620946951906
  C   0.86850700141834     -0.31464031836940     -0.54782896586960
  Br  -0.96771239198421      1.79620638591874     -0.99322447100811
  H   1.19942764945793     -1.14929844312736      0.07263926024914
  H   0.79472488302947     -0.61652687658914     -1.59086106890099
  C   -1.54415535842154     -0.87122042985569     -0.22403702335305
  H   -2.49114716382338     -0.50939000795490      0.17952826755079
  H   -1.67929061075372     -1.09058034584445     -1.28351178054516
  H   -1.25128835930244     -1.78026453854670      0.30531903546944
  N   -0.38069269331918      0.45665439671954      1.46384204925343
  O   -0.85017978658902      1.48117429435238      1.92510188761979
  O   0.11010120170346     -0.47513109437695      2.09356865637556
  N   1.94646312040760      0.71585581970291     -0.47543118788975
  O   1.97211539937484      1.41914686621697      0.52970218214210
  O   2.74161489110171      0.74789632095955     -1.40859737157452
