15
Coordinates from ORCA-job run
  C   -0.47854840032649      0.25841517755606     -0.04038974793941
  C   1.02328272572769      0.43117780942818     -0.24514735141135
  Br  -1.42067800982756      0.59326770162734     -1.70756163333404
  H   1.53505400426987      0.32136105281425      0.71152936372816
  H   1.25280672174865      1.38991856958308     -0.69940887072436
  C   -0.90387869012573     -1.06721757663120      0.54792209816450
  H   -0.65131994399615     -1.88032272849336     -0.12947182666166
  H   -0.38328874799352     -1.22991188265346      1.49583940185246
  H   -1.97754061817273     -1.06008904129195      0.72354611959406
  N   -0.92321519174282      1.37362161674841      0.91801732967731
  O   -2.04956531333291      1.28043279188364      1.38341404142191
  O   -0.12026706597611      2.27561322157480      1.13999170938830
  N   1.56133450926867     -0.63030096412378     -1.14435650857384
  O   1.74523569399884     -1.73919504382807     -0.64350073244310
  O   1.78958832648031     -0.31677070419394     -2.30942339273893
