15
Coordinates from ORCA-job run
  C   -0.60335297009661      0.24997146688812     -0.27093529234950
  C   0.80709701032627      0.25148344238204     -0.86044130274109
  Br  -1.75253207738778      0.89200088032087     -1.69740540087688
  H   1.11641024742482      1.26692227473898     -1.10332017724970
  H   0.80925670563487     -0.37034528518165     -1.75576510961438
  C   -1.12480498357468     -1.07300000476948      0.25405365998265
  H   -0.50828402857402     -1.41394572619426      1.08407094206161
  H   -1.09755276558289     -1.82293576340563     -0.53645315281519
  H   -2.15635673910346     -0.94375683831372      0.58649317163377
  N   -0.63561982183524      1.23995771986930      0.89685246684778
  O   -1.48283483244936      2.11676816856798      0.94536209381831
  O   0.22656665904622      1.00534865115655      1.74055633272682
  N   1.86544167436897     -0.31928155910988      0.03274063573911
  O   2.76865858362964      0.43341661394458      0.37919718197922
  O   1.76790733817326     -1.51260404089381      0.30599395085746
