12

C	-0.350257	-0.038497	-1.490504
C	0.0	0.0	0.0
F	0.056214	1.142643	-2.077251
H	1.096716	0.0	0.0
H	-1.427941	-0.127974	-1.669388
C	0.325316	-1.166544	-2.155622
N	0.780807	-2.074341	-2.743259
C	-0.49083	-1.19853	0.652215
N	-0.89313	-2.176089	1.168086
C	-0.543158	1.196942	0.611529
N	-0.96503	2.178433	1.103027
F	2.433646	0.0	0.0
