12

C	-0.385602	-0.023962	-1.481342
C	0.0	0.0	0.0
F	0.044591	1.143587	-2.077846
H	1.096625	0.0	0.0
H	-1.470319	-0.076323	-1.630727
C	0.233077	-1.173797	-2.162775
N	0.65003	-2.097122	-2.754856
C	-0.492566	-1.197423	0.654648
N	-0.897527	-2.174289	1.169741
C	-0.526168	1.196668	0.629704
N	-0.934828	2.177413	1.133632
F	2.432539	0.0	0.0
