12

C	-0.386105	-0.024487	-1.481187
C	0.0	0.0	0.0
F	0.04505	1.142294	-2.078489
H	1.096647	0.0	0.0
H	-1.470936	-0.075796	-1.630117
C	0.230942	-1.17531	-2.162397
N	0.646629	-2.099175	-2.754511
C	-0.492433	-1.197071	0.655353
N	-0.896867	-2.174438	1.169915
C	-0.52596	1.197071	0.629137
N	-0.934532	2.17818	1.13243
F	2.43255	0.0	0.0
