12

C	-0.295335	-0.158594	-1.475296
C	0.0	0.0	0.0
F	-1.654435	-0.300711	-1.753106
H	1.092071	0.0	0.0
H	0.210506	-1.063769	-1.820809
C	0.200774	0.991003	-2.247752
N	0.540114	1.889071	-2.922526
C	-0.463054	-1.163687	0.734808
N	-0.800658	-2.125032	1.321159
C	-0.532973	1.229943	0.554001
N	-0.940957	2.23502	1.007319
F	2.432422	0.0	0.0
