12

C	-0.282833	0.014175	-1.501141
C	0.0	0.0	0.0
F	0.169954	-1.162138	-2.05919
H	1.097798	0.0	0.0
H	0.287508	0.840353	-1.934638
C	-1.713724	0.1505	-1.838704
N	-2.852735	0.259613	-2.104064
C	-0.555197	-1.174424	0.642929
N	-0.987529	-2.142093	1.152098
C	-0.466899	1.232036	0.604625
N	-0.811399	2.25595	1.069655
F	2.441888	0.0	0.0
