12

C	-0.193028	-0.023621	-1.50214
C	0.0	0.0	0.0
F	-1.523034	-0.172766	-1.8963
H	1.097515	0.0	0.0
H	0.367702	-0.878277	-1.886889
C	0.323365	1.207297	-2.118727
N	0.682673	2.186868	-2.656831
C	-0.484973	-1.226263	0.596465
N	-0.842595	-2.2423	1.066362
C	-0.547848	1.182888	0.632042
N	-0.962559	2.16132	1.135663
F	2.434378	0.0	0.0
