12

C	-0.206223	-0.033057	-1.500073
C	0.0	0.0	0.0
F	-1.538264	-0.189261	-1.882141
H	1.099545	0.0	0.0
H	0.355161	-0.886594	-1.887647
C	0.303565	1.19392	-2.132095
N	0.697945	2.142346	-2.699405
C	-0.480117	-1.22537	0.60811
N	-0.831219	-2.23953	1.088075
C	-0.553868	1.180474	0.629994
N	-0.977779	2.150238	1.142348
F	2.43069	0.0	0.0
