11

C	0.0	0.0	0.0
C	-0.283609	0.162575	-1.506874
F	1.380123	0.0	0.0
H	0.186354	1.105723	-1.804933
H	-0.350078	-0.958032	0.375211
H	0.287254	-0.627875	-2.008188
C	-0.612436	1.081214	0.778859
N	-0.590575	2.070006	1.438199
C	-1.660196	0.141009	-2.02137
N	-2.512186	0.239205	-2.839549
H	-2.235364	0.0	0.0
