11

C	0.0	0.0	0.0
C	-0.55042	0.03753	-1.411234
F	1.377693	0.0	0.0
H	-1.666867	0.086396	-1.191495
H	-0.377836	-0.894754	0.496427
H	-0.320397	-0.904705	-1.917512
C	-0.407994	1.18311	0.788649
N	-0.487278	2.154363	1.444396
C	-0.039044	1.150639	-2.188568
N	0.357695	2.046945	-2.838237
H	-2.836222	0.0	0.0
