13
Coordinates from ORCA-job run
  C   -0.61993762802742      0.49144959188681      0.32703629673823
  C   0.31515236871299     -0.49061562102936     -0.34426915418064
  Br  -0.43692477079456      2.29206936724214     -0.35660826491032
  H   0.12838512649288     -0.46671803507142     -1.41955614773630
  H   -0.48806461871307      0.54411715156703      1.40610705155543
  H   0.02996311399752     -1.48739324860865      0.01375873904908
  N   -2.04760125501081      0.05643433267965      0.12213616870643
  O   -2.40766879038277     -0.16626772982338     -1.02736336396263
  O   -2.72731854005816     -0.06962400033656      1.13795773014163
  C   1.78069679729777     -0.22203162685323     -0.02437097581420
  H   1.95642450349299     -0.21737449659393      1.05427447522195
  H   2.40770980227932     -1.00134399441956     -0.46125176360949
  H   2.10618389071333      0.73729830936045     -0.42785079119918
