13
Coordinates from ORCA-job run
  C   -0.60868106656833      0.44619954375607      0.40373655647187
  C   0.30410138020157     -0.43924580008662     -0.41621490477347
  Br  -0.40563147751674      2.32507273771020     -0.01148578899118
  H   0.10552811001809     -0.25569510439426     -1.47387029887634
  H   -0.46430813517382      0.33875356010927      1.47712438510327
  H   0.00802335964302     -1.47390042750746     -0.20421401677582
  N   -2.04446426963642      0.06527740274176      0.15602211031352
  O   -2.71456422073096     -0.20089262402400      1.15109084859788
  O   -2.42145208582357      0.02044577910229     -1.00870915870045
  C   1.77701793937727     -0.23994543825067     -0.08003790428242
  H   2.38737455726045     -0.95466419035508     -0.63499829003175
  H   2.11219309512003      0.76393215164143     -0.34259666889675
  H   1.96486281382942     -0.39633759044293      0.98515313084163
