13
Coordinates from ORCA-job run
  C   -0.71208991177077      0.66637190045083      0.52298819648534
  C   0.57316504819391     -0.12551458719116      0.71347518698320
  Br  -0.41346120862868      2.45080516009266     -0.13567401023714
  H   0.29805812732170     -1.04173164677867      1.24548657319504
  H   -1.27428889540732      0.75633766747551      1.45056763182719
  H   1.21807873098804      0.45707898538911      1.37635312445902
  N   -1.61082643925368     -0.12236181844401     -0.40548829522443
  O   -1.69314347292226      0.17986616981273     -1.58660325457976
  O   -2.13816927087994     -1.08934384552996      0.14029054737768
  C   1.29525149952963     -0.46359465278259     -0.58516320527775
  H   0.69997085891819     -1.12937791734313     -1.21276960324443
  H   2.23483701374455     -0.97243638306900     -0.36212998461682
  H   1.52361792016664      0.43390096791768     -1.16133290714713
