13
Coordinates from ORCA-job run
  C   -0.65787866998949      0.52773853153344      0.62997543509362
  C   0.72916372271562      0.55394599313788      0.02704903757053
  Br  -1.33765485024109      2.29976313564636      0.98827994099352
  H   0.70073195622800      1.16978457936165     -0.87438176309515
  H   -0.71487088962033     -0.03595118193781      1.55900021616606
  H   1.38929756400872      1.04709694551622      0.74549725954631
  N   -1.59425787592807     -0.17305397759349     -0.31879089262701
  O   -1.69761768977312      0.28660649256107     -1.44910101078191
  O   -2.13714649764641     -1.18902922787609      0.10946064570603
  C   1.22838254917638     -0.85417895400571     -0.29034585055895
  H   1.19480126709148     -1.50032933179274      0.59027203810199
  H   0.63389712301944     -1.31989591110141     -1.07873046180186
  H   2.26215229095888     -0.81349709344937     -0.63818459431319
