13
Coordinates from ORCA-job run
  C   -0.71072686822720      0.64968698668865      0.54582647258550
  C   0.58153416380059     -0.13832560543997      0.70410421846976
  Br  -0.43085522446004      2.45049121710617     -0.07399819797890
  H   1.22972631624667      0.43296069994969      1.37363866956227
  H   -1.26344872734795      0.71295595244230      1.48127906103212
  H   0.31775242801026     -1.06830540878534      1.21765179563231
  N   -1.61407824443807     -0.12332555399611     -0.39139014658064
  O   -2.13105228349810     -1.10518298328862      0.13749699163934
  O   -1.70825323902770      0.20428894708685     -1.56484772885908
  C   1.29208095191819     -0.44127006896771     -0.60937376117516
  H   1.50905686002653      0.47098226541425     -1.16650254886554
  H   0.69429463312369     -1.09554310016818     -1.24663045758036
  H   2.23696923387315     -0.94941334804199     -0.40825436788161
