15

C	-0.215193	-0.027493	-1.531662
C	0.0	0.0	0.0
F	0.044113	1.297268	-1.980811
H	1.098274	0.0	0.0
N	0.67088	-0.972953	-2.063533
H	1.593858	-0.82906	-1.631444
H	0.724747	-0.920473	-3.071035
C	-1.619247	-0.265841	-1.939265
N	-2.756988	-0.41227	-2.196926
C	-0.501518	-1.232679	0.591501
N	-0.92471	-2.213677	1.08155
N	-0.492353	1.162582	0.700637
H	-1.43979	1.387482	0.419278
H	0.111151	1.940181	0.46031
H	2.737134	0.0	0.0
