15

C	-0.565554	0.044387	-1.420986
C	0.0	0.0	0.0
F	-0.258295	-1.145264	-2.050773
H	1.099129	0.0	0.0
N	-1.999495	0.214019	-1.521548
H	-2.224031	1.080633	-1.04302
H	-2.426056	-0.548381	-1.002402
C	0.065251	1.154529	-2.173004
N	0.497942	2.035909	-2.815034
C	-0.516042	-1.174476	0.678127
N	-0.964478	-2.114797	1.226006
N	-0.368379	1.257904	0.665643
H	-0.968398	1.092447	1.462695
H	0.505373	1.659597	1.006009
H	2.639768	0.0	0.0
