16

C	-0.471055	-0.068337	-1.449162
C	0.0	0.0	0.0
Cl	0.28106	1.34967	-2.360072
H	1.094151	0.0	0.0
C	0.056511	-1.270137	-2.109943
N	0.401254	-2.243456	-2.669491
N	-1.896869	-0.075792	-1.572355
H	-2.271118	0.735142	-1.090339
H	-2.172209	-0.035054	-2.546713
C	-0.386938	-1.257936	0.782353
H	0.142667	-2.110338	0.351906
H	-0.028677	-1.142968	1.807434
H	-1.462077	-1.456851	0.789684
C	-0.558044	1.186916	0.614185
N	-1.049393	2.132036	1.116053
F	2.518776	0.0	0.0
