16

C	-0.099083	-0.103678	-1.532551
C	0.0	0.0	0.0
Cl	-1.725368	-0.755522	-2.103557
H	1.098928	0.0	0.0
C	-0.009345	1.227521	-2.162409
N	0.141053	2.265076	-2.696109
N	0.948259	-0.989499	-1.941097
H	1.124362	-0.906964	-2.934761
H	1.793694	-0.730738	-1.379653
C	-0.459488	-1.267194	0.712878
H	-0.022714	-2.125915	0.203466
H	-1.547255	-1.367004	0.726765
H	-0.085677	-1.247477	1.739
C	-0.60765	1.193573	0.543086
N	-1.112279	2.13606	1.033463
F	2.6229	0.0	0.0
