16

C	-0.116977	-0.103344	-1.532098
C	0.0	0.0	0.0
Cl	-1.730966	-0.818292	-2.076406
H	1.098912	0.0	0.0
C	-0.09985	1.229212	-2.1646
N	-0.026153	2.269079	-2.709216
N	0.953154	-0.947902	-1.958811
H	1.121291	-0.854231	-2.95214
H	1.795645	-0.687439	-1.393938
C	-0.441108	-1.271765	0.717247
H	-0.006721	-2.126953	0.198592
H	-1.527953	-1.379655	0.749924
H	-0.048818	-1.251767	1.736607
C	-0.609475	1.187474	0.554377
N	-1.119111	2.122345	1.054239
F	2.624144	0.0	0.0
