16

C	-0.088728	0.046367	-1.547845
C	0.0	0.0	0.0
Cl	0.073124	-1.746799	-2.182791
H	1.097519	0.0	0.0
C	-1.397542	0.4328	-2.082412
N	-2.462668	0.738541	-2.470864
N	0.955192	0.861626	-1.978144
H	1.082421	0.866384	-2.980625
H	1.81921	0.634658	-1.427733
C	-0.660965	-1.166193	0.713729
H	-0.605788	-0.998363	1.790955
H	-1.713817	-1.273438	0.43614
H	-0.136168	-2.091013	0.485641
C	-0.473928	1.275786	0.513186
N	-0.870951	2.279006	0.981777
F	2.637128	0.0	0.0
