16

C	-0.091919	0.035516	-1.548312
C	0.0	0.0	0.0
Cl	0.056586	-1.765656	-2.171422
H	1.097526	0.0	0.0
C	-1.398287	0.428363	-2.089459
N	-2.452971	0.753889	-2.495589
N	0.956419	0.841484	-1.984607
H	1.816281	0.614811	-1.430965
H	1.083667	0.845875	-2.986916
C	-0.652658	-1.16345	0.725167
H	-0.607638	-0.979312	1.80077
H	-1.702177	-1.290127	0.440988
H	-0.112595	-2.084309	0.514043
C	-0.476096	1.278403	0.505942
N	-0.87335	2.283665	0.969815
F	2.633273	0.0	0.0
