16

C	-0.100662	0.035026	-1.554094
C	0.0	0.0	0.0
Cl	0.143262	-1.657034	-2.168648
H	1.097067	0.0	0.0
C	-1.424106	0.447289	-2.041482
N	-2.497469	0.778999	-2.386746
N	0.947965	0.852634	-2.11138
H	1.783019	0.648084	-1.522857
H	0.697472	1.827604	-1.973753
C	-0.664928	-1.143312	0.745599
H	-0.152682	-2.077342	0.519633
H	-1.725773	-1.244393	0.489502
H	-0.586378	-0.966566	1.821449
C	-0.441365	1.298112	0.482535
N	-0.793769	2.350213	0.874714
F	2.609643	0.0	0.0
