16

C	-0.092723	-0.147266	-1.534917
C	0.0	0.0	0.0
Cl	-1.683486	-0.858577	-2.074682
H	1.098401	0.0	0.0
C	-0.00576	1.173529	-2.178678
N	0.060113	2.231741	-2.685023
N	0.986115	-0.969624	-2.053109
H	0.775337	-1.935957	-1.82669
H	1.814096	-0.693889	-1.479011
C	-0.428912	-1.247302	0.763756
H	-1.511022	-1.401264	0.753457
H	0.062518	-2.122373	0.333396
H	-0.086666	-1.158576	1.797204
C	-0.622698	1.193379	0.525743
N	-1.140825	2.137707	0.999422
F	2.608017	0.0	0.0
