16

C	-0.363568	0.084565	-1.464426
C	0.0	0.0	0.0
Cl	-2.246124	0.460392	-1.655244
H	1.102932	0.0	0.0
C	0.269447	1.236363	-2.111964
N	0.772035	2.133774	-2.679324
N	-0.041339	-1.088322	-2.171909
H	-0.515195	-1.888935	-1.778914
H	-0.262624	-1.001666	-3.15463
C	-0.424009	-1.30491	0.662348
H	-1.491168	-1.529632	0.543764
H	0.18755	-2.116842	0.260764
H	-0.198489	-1.242802	1.72836
C	-0.477233	1.157808	0.724508
N	-0.849238	2.083244	1.347675
F	2.499838	0.0	0.0
