16

C	-0.088801	-0.036996	-1.542567
C	0.0	0.0	0.0
Cl	-1.678887	-0.699562	-2.137775
H	1.102966	0.0	0.0
C	0.01019	1.325839	-2.088219
N	0.103084	2.411014	-2.528871
N	0.989179	-0.823966	-2.114135
H	1.816399	-0.58513	-1.523595
H	0.777821	-1.802112	-1.944387
C	-0.431956	-1.297376	0.672711
H	-1.513777	-1.451681	0.643079
H	-0.100018	-1.278889	1.713031
H	0.065333	-2.140151	0.189125
C	-0.620795	1.155115	0.606776
N	-1.137519	2.064988	1.145102
F	2.609138	0.0	0.0
