16

C	-0.097177	-0.033618	-1.548266
C	0.0	0.0	0.0
Cl	0.036251	-1.857701	-2.093585
H	1.10415	0.0	0.0
C	-1.40201	0.348155	-2.102903
N	-2.451979	0.667886	-2.523569
N	0.954679	0.747996	-2.025066
H	1.083326	0.693586	-3.025832
H	1.814087	0.545844	-1.462447
C	-0.644667	-1.131335	0.782205
H	-0.583998	-0.901734	1.849063
H	-1.698581	-1.269344	0.518176
H	-0.106459	-2.060532	0.603245
C	-0.475944	1.29728	0.45299
N	-0.883061	2.316525	0.876447
F	2.632585	0.0	0.0
