16

C	-0.48203	0.189239	-1.441118
C	0.0	0.0	0.0
Cl	0.099818	1.790937	-2.028528
H	1.103318	0.0	0.0
C	0.13214	-0.837108	-2.297319
N	0.538836	-1.696785	-2.985616
N	-1.919812	0.150216	-1.683661
H	-2.357688	0.794294	-1.031236
H	-2.248173	-0.78541	-1.467306
C	-0.359614	-1.385649	0.544112
H	-1.43762	-1.579375	0.610506
H	0.070005	-1.475278	1.543052
H	0.115663	-2.149559	-0.075483
C	-0.578297	1.030599	0.834489
N	-1.090459	1.833592	1.524596
F	2.514077	0.0	0.0
