15

C	-0.584037	-0.014972	-1.412659
C	0.0	0.0	0.0
Br	0.056342	1.569292	-2.4093
H	1.097947	0.0	0.0
H	-0.33786	-0.932523	0.472565
C	-0.128256	-1.192301	-2.150359
N	0.128141	-2.1822	-2.731122
C	-2.108783	0.034195	-1.41597
H	-2.505048	0.082532	-2.432082
H	-2.416935	0.909739	-0.843691
H	-2.490436	-0.869022	-0.926413
N	-0.508455	1.163734	0.743843
H	-0.704606	0.873157	1.692572
H	0.273249	1.810467	0.808407
H	2.923115	0.0	0.0
