15

C	-0.451857	-0.010542	-1.462429
C	0.0	0.0	0.0
Br	0.015491	-1.73554	-2.293963
H	1.094294	0.0	0.0
H	-0.318751	0.973533	0.399874
C	-1.904731	0.108556	-1.572589
N	-3.06775	0.28307	-1.605098
C	0.272061	1.096578	-2.21937
H	0.03651	1.073951	-3.28487
H	-0.027921	2.065181	-1.807153
H	1.345217	0.963758	-2.054907
N	-0.540432	-1.111853	0.769669
H	-1.116227	-0.776169	1.528494
H	0.242893	-1.615146	1.171044
H	2.957382	0.0	0.0
