14

C	-0.582483	0.021059	-1.560557
C	0.003649	0.118191	-0.130158
Br	0.401764	-1.233716	-2.645966
H	1.056896	0.382073	-0.221585
H	-0.533704	0.963297	0.329264
C	-1.981427	-0.383341	-1.541298
N	-3.107609	-0.717776	-1.500558
N	-0.491594	1.416461	-2.17882
O	0.582478	1.764746	-2.647353
O	-1.483866	2.129226	-2.036324
N	-0.109735	-1.135186	0.542227
H	0.867182	-1.277915	0.986835
H	-0.793941	-1.069639	1.286363
H	2.252913	-1.05124	1.423902
