16

C	-0.463656	0.106205	-1.461209
C	0.0	0.0	0.0
F	-1.796494	0.359023	-1.499004
H	1.093502	0.0	0.0
N	0.233745	1.11332	-2.182625
H	1.234426	0.947712	-2.080243
H	0.011946	2.018144	-1.782179
N	-0.230171	-1.193134	-2.235546
O	0.943031	-1.478586	-2.416651
O	-1.214837	-1.791088	-2.640779
N	-0.475902	-1.204968	0.751406
O	-0.511712	-2.261269	0.129086
O	-0.73694	-1.061305	1.941251
C	-0.445156	1.208562	0.682572
N	-0.808193	2.220851	1.155107
Cl	3.123166	0.0	0.0
