16

C	-0.566549	-0.062088	-1.440547
C	0.0	0.0	0.0
F	-0.28659	-1.293998	-1.916254
H	1.090413	0.0	0.0
N	-1.942391	0.216009	-1.648723
H	-2.124385	1.183795	-1.409589
H	-2.48624	-0.378395	-1.033061
N	0.197469	0.958048	-2.278965
O	-0.037598	2.127044	-1.985831
O	0.923645	0.544817	-3.164742
N	-0.491413	-1.259729	0.674595
O	-1.705408	-1.32304	0.893432
O	0.32532	-2.133361	0.918744
C	-0.530785	1.138669	0.730615
N	-0.967274	2.052702	1.325927
Cl	3.164709	0.0	0.0
