16

C	-0.606783	-0.007545	-1.40216
C	0.0	0.0	0.0
F	0.01301	-0.888751	-2.221555
H	1.08953	0.0	0.0
N	-1.979802	-0.290431	-1.380277
H	-2.384254	-0.133338	-2.293875
H	-2.468246	0.244553	-0.676586
N	-0.304039	1.358152	-2.089631
O	0.604642	2.048051	-1.64792
O	-1.00343	1.60257	-3.072558
N	-0.420761	-1.297802	0.652835
O	0.094486	-2.308179	0.19804
O	-1.240903	-1.249055	1.567356
C	-0.538577	1.117856	0.759902
N	-1.001358	2.038633	1.324192
Cl	3.149403	0.0	0.0
