16

C	-0.519276	0.013073	-1.436908
C	0.0	0.0	0.0
F	-0.070594	-1.148083	-2.030838
H	1.08862	0.0	0.0
N	-1.897468	0.220275	-1.571934
H	-2.177207	0.094275	-2.536471
H	-2.414953	-0.378883	-0.942564
N	0.137574	1.144424	-2.220734
O	-0.022365	1.081558	-3.435365
O	0.69211	2.031903	-1.590901
N	-0.46072	-1.309241	0.616149
O	0.394933	-2.104696	0.967084
O	-1.680413	-1.473415	0.718857
C	-0.545175	1.082439	0.803553
N	-0.966419	1.946032	1.478991
Cl	3.189917	0.0	0.0
