15

C	0.0	0.0	0.0
C	-0.527014	0.029405	-1.418641
Br	2.047924	0.0	0.0
H	-1.642626	0.136415	-1.214182
H	-0.312155	-0.899955	-1.941884
N	-0.413495	1.122027	0.724861
H	-0.138979	1.047206	1.692377
H	-0.147436	1.993091	0.29527
N	-0.494143	-1.145851	0.686455
H	-0.270893	-1.987095	0.163226
H	-1.531881	-0.981918	0.643468
N	-0.052181	1.112051	-2.292142
O	0.194521	0.826935	-3.468456
O	0.031258	2.256506	-1.833323
H	-2.990146	0.0	0.0
