15

C	0.0	0.0	0.0
C	-0.526123	-0.042854	-1.418097
Br	2.048237	0.0	0.0
H	-1.644221	0.067388	-1.216268
H	-0.307345	-0.995139	-1.895943
N	-0.414158	1.15707	0.665953
H	-0.144419	2.006388	0.196351
H	-0.148872	1.127419	1.638251
N	-0.499269	-1.108146	0.741707
H	-0.277033	-1.97359	0.260495
H	-1.537569	-0.942802	0.686961
N	-0.066906	0.999531	-2.345727
O	0.151424	0.663641	-3.514197
O	0.028332	2.162389	-1.938812
H	-2.97833	0.0	0.0
