17

C	-0.350134	-0.048884	-1.493765
C	0.0	0.0	0.0
F	-1.751936	-0.147575	-1.583927
H	1.094891	0.0	0.0
C	0.093888	1.200988	-2.215566
H	-0.087034	1.072246	-3.284184
H	1.159253	1.368231	-2.036717
H	-0.468195	2.063896	-1.856231
N	0.200807	-1.221768	-2.109863
H	0.076699	-1.980084	-1.442858
H	1.204178	-1.077898	-2.192739
N	-0.44436	-1.229469	0.651459
H	0.138244	-1.399083	1.460421
H	-1.407283	-1.14609	0.94952
C	-0.511229	1.212763	0.650509
N	-0.927591	2.161254	1.206421
Cl	3.327517	0.0	0.0
