17

C	-0.36062	-0.012572	-1.491509
C	0.0	0.0	0.0
F	-1.765037	-0.102002	-1.57021
H	1.094856	0.0	0.0
C	0.080785	1.250081	-2.191354
H	1.152281	1.399854	-2.035905
H	-0.460412	2.110756	-1.79601
H	-0.129701	1.150935	-3.257689
N	0.175408	-1.174445	-2.140821
H	0.048454	-1.948048	-1.491647
H	1.179567	-1.037082	-2.227183
N	-0.444828	-1.243219	0.625438
H	-1.408685	-1.165182	0.923499
H	0.136666	-1.429342	1.43258
C	-0.507544	1.198136	0.680814
N	-0.922141	2.133439	1.259935
Cl	3.325805	0.0	0.0
