17

C	-0.471448	-0.054451	-1.454984
C	0.0	0.0	0.0
F	-0.036768	1.149318	-2.054375
H	1.093768	0.0	0.0
C	0.190326	-1.189048	-2.196276
H	-0.127936	-2.140653	-1.775196
H	1.271571	-1.089471	-2.089494
H	-0.076554	-1.135387	-3.25651
N	-1.899733	-0.12868	-1.50845
H	-2.195419	-0.252842	-2.469563
H	-2.287183	0.746993	-1.171901
N	-0.426467	-1.211345	0.690244
H	-1.415455	-1.165759	0.90283
H	0.104167	-1.30359	1.54808
C	-0.510986	1.233806	0.627523
N	-0.999287	2.156421	1.168529
Cl	3.380735	0.0	0.0
