17

C	-0.389428	-0.135887	-1.486421
C	0.0	0.0	0.0
F	-0.082548	-1.466473	-1.806728
H	1.099788	0.0	0.0
C	-1.863835	0.055209	-1.758036
H	-2.437736	-0.588822	-1.091098
H	-2.162123	1.091508	-1.586077
H	-2.06178	-0.20938	-2.798349
N	0.421673	0.687254	-2.336606
H	1.391948	0.627362	-2.028488
H	0.124267	1.65315	-2.265627
N	-0.596794	-1.068757	0.811195
H	-0.231409	-1.932558	0.423163
H	-0.200294	-0.99488	1.742831
C	-0.455239	1.306173	0.481155
N	-0.824506	2.35745	0.853515
Cl	3.37165	0.0	0.0
