17

C	-0.391947	-0.026775	-1.491406
C	0.0	0.0	0.0
F	-0.066766	-1.325984	-1.911906
H	1.10356	0.0	0.0
C	-1.870627	0.159121	-1.744722
H	-2.192997	1.164636	-1.466506
H	-2.063997	-0.002216	-2.806477
H	-2.428843	-0.563462	-1.149095
N	0.402082	0.870725	-2.276135
H	0.072669	1.821152	-2.158163
H	1.37124	0.82177	-1.963739
N	-0.591729	-1.130095	0.727983
H	-0.202213	-1.121464	1.665708
H	-0.21555	-1.959385	0.279797
C	-0.461232	1.262882	0.57881
N	-0.849823	2.278454	1.023185
Cl	3.371607	0.0	0.0
