17

C	-0.48729	0.053343	-1.448155
C	0.0	0.0	0.0
F	-1.917108	0.246437	-1.382392
H	1.100604	0.0	0.0
C	0.080385	1.23245	-2.199949
H	-0.26135	2.168474	-1.755222
H	1.169716	1.180067	-2.158153
H	-0.251256	1.201425	-3.241765
N	-0.18822	-1.17214	-2.076421
H	-0.452998	-1.930591	-1.458622
H	-0.661432	-1.23878	-2.967559
N	-0.448485	-1.235462	0.645577
H	0.237687	-1.499023	1.341648
H	-1.342158	-1.097403	1.099344
C	-0.455249	1.19643	0.724592
N	-0.85676	2.094736	1.366976
Cl	3.349969	0.0	0.0
