17

C	-0.233668	0.129081	-1.495455
C	0.0	0.0	0.0
Br	-2.083861	0.720562	-1.977614
H	1.097118	0.0	0.0
N	0.696015	0.995603	-2.131624
H	0.438394	1.951911	-1.936196
H	1.612582	0.80663	-1.687469
N	-0.056118	-1.270802	-2.120815
O	1.024352	-1.486186	-2.655789
O	-0.967377	-2.080205	-1.977968
C	-0.562548	-1.16238	0.651845
N	-0.995453	-2.060251	1.277355
C	-0.34705	1.266286	0.779855
H	-1.423852	1.436765	0.839234
H	0.064939	1.170093	1.787248
H	0.136119	2.128367	0.315855
H	2.616587	0.0	0.0
