17

C	-0.163553	-0.031265	-1.517795
C	0.0	0.0	0.0
Br	-0.186603	1.943379	-2.257537
H	1.098435	0.0	0.0
N	0.824674	-0.805491	-2.044537
H	0.849171	-0.862867	-3.051598
H	1.735466	-0.628378	-1.566454
N	-1.535472	-0.471972	-2.036268
O	-2.501111	-0.268655	-1.309354
O	-1.567858	-0.996349	-3.145059
C	-0.435002	-1.285962	0.523476
N	-0.77423	-2.308408	0.995753
C	-0.551007	1.158334	0.814184
H	-1.621862	1.297739	0.657206
H	-0.019047	2.072784	0.554525
H	-0.367611	0.949013	1.871769
H	2.693543	0.0	0.0
