17

C	-0.182008	0.111711	-1.493448
C	0.0	0.0	0.0
Br	-2.083037	0.587917	-2.08296
H	1.097461	0.0	0.0
N	0.725322	1.047617	-1.968145
H	0.834556	0.978623	-2.971526
H	1.633006	0.874065	-1.481939
N	-0.018238	-1.274274	-2.214039
O	-0.543494	-2.259815	-1.7145
O	0.61885	-1.258402	-3.263471
C	-0.570308	-1.1342	0.692516
N	-1.03395	-1.963147	1.386558
C	-0.389215	1.292218	0.723042
H	-1.47352	1.410658	0.77994
H	0.025882	1.258195	1.733283
H	0.044296	2.142298	0.197567
H	2.62141	0.0	0.0
