13

C	-0.591729	0.085166	-1.377024
C	0.0	0.0	0.0
F	-1.929858	0.360028	-1.318665
H	1.089526	0.0	0.0
H	-0.087733	0.875392	-1.936491
H	-0.322382	0.887329	0.545881
N	-0.413672	-1.15973	-2.22328
O	-1.419596	-1.744218	-2.600127
O	0.746327	-1.430712	-2.492515
N	-0.504135	-1.155246	0.781858
O	-0.728019	-0.964979	1.975172
O	-0.6298	-2.231013	0.19891
Cl	3.270237	0.0	0.0
