13

C	-0.513181	0.110894	-1.402047
C	0.0	0.0	0.0
F	-1.887559	0.110666	-1.433242
H	1.089723	0.0	0.0
H	-0.141432	0.98056	-1.935718
H	-0.394628	-0.883506	0.495148
N	-0.083645	-1.102049	-2.184324
O	0.523071	-0.905697	-3.234635
O	-0.424344	-2.191969	-1.730076
N	-0.450828	1.182279	0.775363
O	-0.730569	1.003808	1.957614
O	-0.481537	2.267939	0.19709
Cl	3.249021	0.0	0.0
