13

C	-0.601157	0.077975	-1.37472
C	0.0	0.0	0.0
F	-1.960674	0.170282	-1.3026
H	1.089521	0.0	0.0
H	-0.206879	0.949221	-1.900012
H	-0.342691	0.865877	0.566391
N	-0.2636	-1.097014	-2.276109
O	-1.179422	-1.796001	-2.68308
O	0.920009	-1.187695	-2.558653
N	-0.492275	-1.189096	0.740521
O	-0.790007	-1.032481	1.922452
O	-0.544161	-2.254893	0.130094
Cl	3.311408	0.0	0.0
