13

C	-0.564573	-0.023798	-1.399395
C	0.0	0.0	0.0
F	-0.44314	-1.268351	-1.928695
H	1.087644	0.0	0.0
H	-1.607817	0.289267	-1.444409
H	-0.362623	-0.892032	0.516389
N	0.181345	0.945002	-2.285754
O	0.294879	2.067882	-1.809195
O	0.534439	0.571743	-3.394417
N	-0.540603	1.159001	0.768635
O	0.1854	1.667307	1.614128
O	-1.713413	1.481762	0.553785
Cl	3.32438	0.0	0.0
