13

C	-0.566154	-0.056657	-1.398043
C	0.0	0.0	0.0
F	-0.409947	-1.304128	-1.910654
H	1.088284	0.0	0.0
H	-1.618972	0.222	-1.439519
H	-0.358636	-0.885206	0.530937
N	0.140108	0.930929	-2.297966
O	0.512333	0.555627	-3.399033
O	0.205499	2.065992	-1.839231
N	-0.555779	1.163112	0.75006
O	0.183826	1.752949	1.524711
O	-1.75351	1.412498	0.585634
Cl	3.322213	0.0	0.0
