13

C	-0.467329	-0.01663	-1.427399
C	0.0	0.0	0.0
F	-0.208854	1.142921	-2.070008
H	1.088476	0.0	0.0
H	0.025899	-0.841008	-1.951362
H	-0.347515	-0.894787	0.516286
N	-1.952189	-0.312881	-1.558214
O	-2.336015	-1.300154	-0.936984
O	-2.627793	0.386149	-2.296568
N	-0.553924	1.1607	0.746048
O	-1.609221	1.647595	0.335824
O	0.043789	1.518976	1.75021
Cl	3.289901	0.0	0.0
