13

C	-0.505137	0.038464	-1.435482
C	0.0	0.0	0.0
F	0.008359	-1.023232	-2.154046
H	1.098999	0.0	0.0
H	-0.341564	0.910892	0.505378
C	-1.981524	-0.073166	-1.477592
N	-3.154694	-0.1285	-1.508399
C	-0.123804	1.294683	-2.115654
N	0.153132	2.296311	-2.662774
N	-0.48489	-1.228572	0.621036
H	0.332444	-1.767825	0.891375
H	-1.015395	-1.025297	1.456685
H	2.838422	0.0	0.0
