13

C	-0.528174	-0.013912	-1.416787
C	0.0	0.0	0.0
F	-1.933	0.045595	-1.41653
H	1.092704	0.0	0.0
H	-0.343488	0.937574	0.456287
C	-0.064012	1.156914	-2.186432
N	0.287192	2.087153	-2.811377
C	-0.159157	-1.250247	-2.128234
N	0.132573	-2.230614	-2.703469
N	-0.451758	-1.204534	0.682159
H	0.350011	-1.590602	1.168574
H	-1.178401	-1.006785	1.353406
H	2.819333	0.0	0.0
