13

C	-0.526816	0.01777	-1.428753
C	0.0	0.0	0.0
F	-0.184273	1.203461	-2.05981
H	1.096258	0.0	0.0
H	-0.363802	0.913034	0.486284
C	-0.003829	-1.109776	-2.225569
N	0.353528	-1.994583	-2.909319
C	-2.005136	-0.066992	-1.430192
N	-3.179483	-0.075635	-1.405428
N	-0.455194	-1.239744	0.61951
H	0.356155	-1.694301	1.02353
H	-1.130937	-1.071981	1.350262
H	2.831354	0.0	0.0
