13

C	-0.532819	-0.016687	-1.426733
C	0.0	0.0	0.0
F	-0.175705	-1.193275	-2.066146
H	1.096049	0.0	0.0
H	-0.359631	-0.915879	0.483975
C	-2.012581	0.044243	-1.419527
N	-3.186885	0.031125	-1.388686
C	-0.032173	1.125509	-2.216819
N	0.3098	2.040975	-2.867319
N	-0.462135	1.23349	0.626301
H	0.350285	1.699859	1.014766
H	-1.120457	1.056113	1.370513
H	2.833209	0.0	0.0
