13

C	-0.530285	0.024843	-1.427327
C	0.0	0.0	0.0
F	-0.186453	-1.140553	-2.094029
H	1.092625	0.0	0.0
H	-0.362521	-0.928751	0.456963
C	-2.008953	0.103633	-1.418695
N	-3.183032	0.108831	-1.377229
C	-0.013962	1.179354	-2.18915
N	0.344208	2.111291	-2.806292
N	-0.458227	1.216645	0.660165
H	0.352978	1.665062	1.071376
H	-1.127447	1.02172	1.389877
H	2.835518	0.0	0.0
