14

C	-0.301351	0.064741	-1.491091
C	0.0	0.0	0.0
Br	-2.326997	0.537043	-1.771003
H	1.095497	0.0	0.0
H	-0.361521	-0.931461	0.439355
N	0.424729	1.145885	-2.053496
H	1.397811	1.061449	-1.752123
H	0.373391	1.147629	-3.064614
N	-0.059998	-1.20002	-2.078949
H	-0.668351	-1.916262	-1.703291
H	-0.166219	-1.164614	-3.08464
C	-0.494625	1.137803	0.759623
N	-0.872969	2.031922	1.41899
Cl	3.333417	0.0	0.0
