14

C	-0.305796	-0.071707	-1.48929
C	0.0	0.0	0.0
Br	-2.332953	-0.544418	-1.760643
H	1.095497	0.0	0.0
H	-0.360385	0.933818	0.435938
N	-0.065504	1.190567	-2.083562
H	-0.678735	1.907156	-1.716188
H	-0.162832	1.149015	-3.089739
N	0.417281	-1.156178	-2.049847
H	1.393626	-1.068598	-1.762086
H	0.345759	-1.175371	-3.05929
C	-0.493577	-1.134023	0.766
N	-0.873568	-2.02338	1.430928
Cl	3.335494	0.0	0.0
