14

C	-0.320286	0.048406	-1.487591
C	0.0	0.0	0.0
Br	-2.312248	0.78287	-1.674956
H	1.095105	0.0	0.0
H	-0.334578	0.922873	0.473782
N	0.496714	1.044963	-2.076201
H	0.440336	1.030545	-3.085799
H	1.46066	0.897254	-1.770367
N	-0.266251	-1.22399	-2.084369
H	-0.421817	-1.17967	-3.082399
H	-0.910305	-1.881491	-1.662285
C	-0.564053	-1.155728	0.670755
N	-1.026345	-2.103696	1.186849
Cl	3.324841	0.0	0.0
