14

C	-0.447195	-0.065682	-1.451345
C	0.0	0.0	0.0
Br	-0.033855	1.90424	-2.270415
H	1.091482	0.0	0.0
H	-0.312169	-0.953552	0.442174
N	0.340049	-1.001461	-2.119957
H	0.188274	-1.00252	-3.11957
H	1.325926	-0.856487	-1.909925
N	-1.835581	-0.272701	-1.60296
H	-2.338401	0.471999	-1.134529
H	-2.098884	-0.257453	-2.581074
C	-0.601096	1.081684	0.759779
N	-1.151205	1.92386	1.365775
Cl	3.323984	0.0	0.0
