14

C	-0.377028	-0.273305	-1.460421
C	0.0	0.0	0.0
Br	-0.220663	1.536589	-2.429334
H	1.090951	0.0	0.0
H	-0.39575	0.954771	0.341306
N	0.5296	-1.222667	-1.967832
H	1.495438	-1.009477	-1.714335
H	0.438352	-1.35927	-2.966289
N	-1.77218	-0.609874	-1.627754
H	-2.00751	-0.613106	-2.613068
H	-1.891134	-1.553769	-1.267168
C	-0.505265	-1.080257	0.840554
N	-0.956894	-1.944177	1.495477
Cl	3.35716	0.0	0.0
