14

C	-0.247641	0.013601	-1.511823
C	0.0	0.0	0.0
Br	-2.219245	0.146088	-1.864103
H	1.097795	0.0	0.0
H	-0.368343	0.915117	0.466249
N	0.390669	1.182049	-2.027391
H	0.471656	1.08084	-3.032801
H	1.327892	1.234498	-1.627654
N	0.19	-1.185054	-2.192927
H	-0.286891	-2.000155	-1.821239
H	1.18556	-1.278754	-1.988945
C	-0.530333	-1.180092	0.655821
N	-0.951654	-2.146282	1.173457
Cl	3.30893	0.0	0.0
