14

C	-0.4035	-0.062479	-1.486834
C	0.0	0.0	0.0
Br	-0.078903	1.751586	-2.224685
H	1.091736	0.0	0.0
H	-0.394058	0.886065	0.498337
N	0.435026	-0.952337	-2.261622
H	1.413505	-0.719714	-2.08401
H	0.286177	-1.892275	-1.901758
N	-1.802945	-0.339692	-1.647621
H	-1.972531	-0.524537	-2.630481
H	-2.042932	-1.167052	-1.113376
C	-0.473825	-1.205831	0.672169
N	-0.912234	-2.185687	1.150662
Cl	3.349394	0.0	0.0
