14

C	-0.383143	-0.199527	-1.482475
C	0.0	0.0	0.0
Br	-0.341718	1.747514	-2.268349
H	1.092307	0.0	0.0
H	-0.379548	0.93682	0.405453
N	0.544086	-1.053576	-2.056452
H	0.41257	-1.16685	-3.051296
H	1.506421	-0.85228	-1.791943
N	-1.710368	-0.641098	-1.820347
H	-2.396991	0.00681	-1.4546
H	-1.846026	-1.5517	-1.390861
C	-0.509918	-1.123643	0.777437
N	-0.985881	-2.019746	1.369417
Cl	3.34294	0.0	0.0
