14

C	-0.382968	0.291876	-1.467409
C	0.0	0.0	0.0
Br	-0.35256	-1.601809	-2.373019
H	1.093219	0.0	0.0
H	-0.379547	-0.960293	0.346109
N	-1.708022	0.760758	-1.775812
H	-2.39861	0.097492	-1.448082
H	-1.83679	1.645116	-1.292921
N	0.548155	1.176529	-1.98759
H	1.509906	0.957433	-1.734047
H	0.419122	1.349188	-2.973929
C	-0.509037	1.072994	0.846421
N	-0.981473	1.932496	1.493117
Cl	3.342901	0.0	0.0
