14

C	0.0	0.0	0.0
C	-0.334735	0.006621	-1.504595
Br	1.965241	0.0	0.0
H	0.103115	0.915325	-1.936192
H	0.213933	-0.829927	-1.949245
C	-0.451544	1.212464	0.678875
N	-0.649451	2.243359	1.203701
C	-0.392158	-1.278298	0.738791
H	0.058262	-2.135861	0.22363
H	-0.011982	-1.247071	1.763244
H	-1.482997	-1.30034	0.711064
C	-1.732709	-0.071535	-1.97109
N	-2.576629	-0.066248	-2.794573
F	-2.521348	0.0	0.0
