14

C	0.0	0.0	0.0
C	-0.613536	0.111163	-1.39002
Br	1.96164	0.0	0.0
H	-1.727456	0.122753	-1.09469
H	-0.380998	-0.793557	-1.960108
C	-0.375263	1.167868	0.805273
N	-0.584814	2.129831	1.446756
C	-0.487602	-1.282266	0.66721
H	-1.58293	-1.188728	0.634818
H	-0.110039	-1.353155	1.689163
H	-0.13315	-2.144153	0.094681
C	-0.207355	1.285202	-2.138583
N	0.093888	2.228839	-2.771835
F	-2.847497	0.0	0.0
