14

C	0.0	0.0	0.0
C	-0.6133	0.169392	-1.385076
Br	1.962202	0.0	0.0
H	-1.727221	0.169471	-1.087776
H	-0.382706	-0.712692	-1.990059
C	-0.374509	1.134476	0.852135
N	-0.588362	2.069889	1.530325
C	-0.486894	-1.308801	0.613911
H	-0.112309	-1.418968	1.633389
H	-1.582492	-1.21587	0.583296
H	-0.128438	-2.146249	0.008813
C	-0.202865	1.37053	-2.086426
N	0.101749	2.338034	-2.68105
F	-2.846927	0.0	0.0
