14

C	0.0	0.0	0.0
C	-0.615425	-0.186982	-1.384511
Br	1.963033	0.0	0.0
H	-1.731358	-0.151124	-1.080515
H	-0.360868	0.647958	-2.04246
C	-0.38509	1.323964	0.499065
N	-0.575942	2.401104	0.927178
C	-0.471957	-1.086739	0.961352
H	-0.124314	-2.059948	0.609169
H	-1.566483	-1.007218	0.927541
H	-0.080293	-0.906827	1.96499
C	-0.243192	-1.444273	-2.003547
N	0.03604	-2.464378	-2.518421
F	-2.833239	0.0	0.0
