17

C	0.0	0.0	0.0
C	-0.614384	-0.092756	-1.400805
Br	1.965052	0.0	0.0
H	-1.723049	-0.004999	-1.081521
C	-0.464572	1.265404	0.717691
H	-0.112658	2.143006	0.170914
H	-1.559541	1.185337	0.703437
H	-0.06934	1.294356	1.734921
C	-0.381196	-1.185285	0.774336
N	-0.582711	-2.155882	1.405759
C	-0.361409	-1.414356	-2.119385
H	-0.833973	-1.39499	-3.104211
H	0.707246	-1.611863	-2.249789
H	-0.809264	-2.227953	-1.545167
C	-0.210332	1.040567	-2.214177
N	0.087091	1.944455	-2.906461
F	-2.833049	0.0	0.0
