17

C	0.0	0.0	0.0
C	-0.470217	0.247607	-1.479305
Br	1.954253	0.0	0.0
H	0.422325	0.16634	-2.110227
C	-0.426551	1.042267	1.035541
H	-1.521063	0.9851	1.029801
H	-0.009595	0.764979	2.006504
H	-0.046094	2.028177	0.763726
C	-0.382617	-1.33302	0.47025
N	-0.53838	-2.417454	0.897113
C	-1.096887	1.624277	-1.700539
H	-1.997982	1.645869	-1.089193
H	-0.396536	2.422112	-1.440219
H	-1.355279	1.731141	-2.75784
C	-1.370555	-0.797527	-1.978571
N	-1.916761	-1.628883	-2.604956
F	-2.620626	0.0	0.0
