15

C	-0.102672	-0.035009	-1.526156
C	0.0	0.0	0.0
F	-0.093671	1.324471	-1.983525
H	1.095984	0.0	0.0
H	-0.444088	0.926926	0.365024
N	0.996239	-0.771162	-2.006205
H	1.12553	-0.660088	-3.003024
H	1.842903	-0.5239	-1.440956
C	-1.383383	-0.561518	-2.068084
N	-2.412177	-0.968053	-2.465623
C	-0.540601	-1.245156	0.680567
H	-1.619385	-1.376085	0.544815
H	-0.033108	-2.12645	0.285894
H	-0.334868	-1.201385	1.753133
F	2.75488	0.0	0.0
