15

C	-0.541385	-0.05454	-1.400297
C	0.0	0.0	0.0
F	-1.977443	-0.248267	-1.349545
H	1.092722	0.0	0.0
H	-0.354331	-0.90823	0.498581
N	-0.249073	1.092708	-2.177107
H	-0.805913	1.104157	-3.021262
H	-0.412228	1.932121	-1.643525
C	-0.074145	-1.255224	-2.133742
N	0.240907	-2.214602	-2.731952
C	-0.474927	1.23811	0.755827
H	-0.255026	1.109052	1.817979
H	-1.548277	1.43574	0.651113
H	0.092305	2.119459	0.439475
F	2.657009	0.0	0.0
