15

C	-0.131428	0.202508	-1.514816
C	0.0	0.0	0.0
F	-1.295759	0.934485	-1.872246
H	1.093979	0.0	0.0
H	-0.427438	-0.952286	0.319692
N	1.023387	0.904148	-1.949674
H	1.199092	0.791291	-2.938153
H	1.849081	0.631402	-1.362547
C	-0.331112	-1.099765	-2.213451
N	-0.459127	-2.132722	-2.759825
C	-0.543175	1.184483	0.781128
H	-1.63018	1.28073	0.703279
H	-0.089434	2.105571	0.411282
H	-0.275981	1.080456	1.836685
F	2.75788	0.0	0.0
