17

C	0.0	0.0	0.0
C	-0.413364	0.153349	-1.488955
Br	1.970443	0.0	0.0
H	0.065015	1.078165	-1.836028
C	-0.568669	1.11086	0.866351
H	-0.295785	2.082825	0.447729
H	-1.659506	1.011497	0.89284
H	-0.179341	1.03612	1.882637
C	-0.387891	-1.313676	0.5117
N	-0.675081	-2.369268	0.942919
C	-1.929027	0.237939	-1.685965
H	-2.469477	-0.544239	-1.153168
H	-2.15829	0.14551	-2.749756
H	-2.333204	1.179371	-1.319674
C	0.143268	-0.940714	-2.291471
N	0.556121	-1.803734	-2.973149
Cl	-4.733936	0.0	0.0
