17

C	0.0	0.0	0.0
C	-0.577628	-0.035158	-1.427311
Br	1.965486	0.0	0.0
H	-1.669586	0.047798	-1.254393
C	-0.475487	1.227645	0.768386
H	-0.144158	2.13146	0.253028
H	-1.568069	1.186813	0.799915
H	-0.067554	1.222808	1.780397
C	-0.363672	-1.230048	0.708395
N	-0.567855	-2.231055	1.289854
C	-0.291027	-1.320962	-2.200969
H	-0.763821	-1.26528	-3.183488
H	0.782077	-1.476933	-2.333205
H	-0.719935	-2.16938	-1.665465
C	-0.126669	1.134496	-2.177759
N	0.248251	2.049792	-2.812647
Cl	-3.646517	0.0	0.0
