17

C	0.0	0.0	0.0
C	-0.45595	0.092555	-1.511077
Br	1.954253	0.0	0.0
H	0.459658	0.026767	-2.106687
C	-0.506279	1.116322	0.903264
H	-1.599536	1.062976	0.903562
H	-0.126607	0.961798	1.915186
H	-0.163928	2.08687	0.54322
C	-0.345134	-1.296758	0.590495
N	-0.536394	-2.334637	1.108886
C	-1.154394	1.400698	-1.886694
H	-2.091303	1.493102	-1.337654
H	-0.49384	2.251253	-1.697892
H	-1.376802	1.377629	-2.956993
C	-1.224465	-1.0806	-1.941629
N	-1.663144	-2.049307	-2.441955
Cl	-3.630172	0.0	0.0
