13

C	0.0	0.0	0.0
C	-0.573006	-0.16474	-1.407228
Br	1.950787	0.0	0.0
H	-1.666967	-0.138054	-1.223686
H	-0.326728	0.947937	0.430217
C	-0.40048	-1.105828	0.867397
N	-0.617711	-1.998697	1.5984
N	-0.204771	-1.444768	-1.979148
H	0.673777	-1.389517	-2.478013
H	-0.930123	-1.755479	-2.61097
C	-0.208193	0.989601	-2.242459
N	0.106363	1.868261	-2.957623
Cl	-3.463863	0.0	0.0
