13

C	0.0	0.0	0.0
C	-0.550231	-0.173232	-1.434904
Br	1.947169	0.0	0.0
H	-1.629444	0.023484	-1.306094
H	-0.333264	0.949906	0.420723
C	-0.406659	-1.10789	0.858109
N	-0.635932	-2.021481	1.560176
N	-0.397031	-1.488759	-2.016847
H	-1.077998	-2.103558	-1.585947
H	0.533969	-1.853784	-1.850227
C	0.017314	0.853464	-2.31448
N	0.459024	1.685281	-3.016392
Cl	-3.37522	0.0	0.0
