13

C	0.0	0.0	0.0
C	-0.550113	-0.151923	-1.436935
Br	1.947103	0.0	0.0
H	-1.629457	0.043602	-1.305561
H	-0.331413	0.944398	0.434628
C	-0.406998	-1.119615	0.842164
N	-0.636104	-2.044591	1.529194
N	-0.39823	-1.459424	-2.038103
H	0.532738	-1.827144	-1.875911
H	-1.079512	-2.079597	-1.614714
C	0.018554	0.886923	-2.301501
N	0.460834	1.72947	-2.990077
Cl	-3.374293	0.0	0.0
