18

C	0.0	0.0	0.0
C	-0.36977	0.124244	-1.499215
Cl	1.848877	0.0	0.0
H	0.232705	-0.624226	-2.030008
C	-0.477739	1.158869	0.848426
H	-1.570465	1.170583	0.836386
H	-0.086047	2.104842	0.475806
H	-0.136977	1.025153	1.87786
N	-0.509812	-1.218475	0.496235
H	-0.346221	-1.333901	1.485107
H	-0.163997	-2.021873	-0.012254
C	0.058071	1.4253	-2.01793
N	0.376433	2.46738	-2.45603
C	-1.853358	-0.127247	-1.785972
H	-2.07056	0.092824	-2.834538
H	-2.101764	-1.168026	-1.584997
H	-2.528094	0.451922	-1.157706
Cl	-4.838315	0.0	0.0
