18

C	0.0	0.0	0.0
C	-0.381744	-0.122348	-1.524679
Cl	1.801542	0.0	0.0
H	0.528519	0.128869	-2.0777
C	-0.405612	1.356909	0.567366
H	-1.496645	1.40474	0.572763
H	-4.2e-05	2.179641	-0.026681
H	-0.027408	1.446893	1.590324
N	-0.49287	-1.124573	0.744503
H	-0.268342	-0.973692	1.723676
H	-1.515863	-1.066868	0.663409
C	-1.333931	0.883676	-2.017951
N	-1.927024	1.702234	-2.617439
C	-0.791921	-1.534214	-1.945129
H	-0.031709	-2.24632	-1.620372
H	-0.885194	-1.571798	-3.034729
H	-1.751266	-1.795678	-1.50137
Cl	-3.566979	0.0	0.0
