18

C	0.0	0.0	0.0
C	-0.351243	0.00622	-1.56264
Cl	1.804977	0.0	0.0
H	0.590177	-0.109971	-2.106357
C	-0.464014	1.254597	0.717534
H	-1.554931	1.309056	0.660204
H	-0.028952	2.148513	0.271034
H	-0.154763	1.182483	1.761755
N	-0.479007	-1.134121	0.732599
H	-0.283771	-1.994791	0.235994
H	-1.495144	-1.030194	0.801914
C	-0.856785	1.308797	-1.998661
N	-1.176557	2.365749	-2.400123
C	-1.273717	-1.126257	-2.02574
H	-0.786129	-2.092925	-1.869087
H	-1.454685	-1.020233	-3.098839
H	-2.228075	-1.088794	-1.500796
Cl	-3.783906	0.0	0.0
