18

C	0.0	0.0	0.0
C	-0.373072	0.07932	-1.500216
Cl	1.849229	0.0	0.0
H	0.098183	-0.788884	-1.979824
C	-0.497355	1.182108	0.801404
H	-0.121322	1.121907	1.825769
H	-0.155293	2.120771	0.364769
H	-1.590544	1.150067	0.819223
N	-0.507914	-1.206644	0.531232
H	-0.435688	-1.246609	1.538432
H	-0.083139	-2.024665	0.1155
C	0.217973	1.268359	-2.120084
N	0.642888	2.232263	-2.639291
C	-1.883841	0.047694	-1.750127
H	-2.386465	0.941363	-1.386085
H	-2.351933	-0.785573	-1.231876
H	-2.067986	-0.035148	-2.824764
Cl	-4.811758	0.0	0.0
