18

C	0.0	0.0	0.0
C	-0.493455	-0.116993	-1.464931
Cl	1.800491	0.0	0.0
H	-1.588265	-0.175903	-1.359674
C	-0.454504	1.308741	0.625128
H	-0.146681	1.305352	1.672008
H	-1.544397	1.363281	0.566582
H	-0.003348	2.167638	0.127205
N	-0.459398	-1.084173	0.830714
H	-0.247848	-1.971715	0.384935
H	-1.477281	-0.989928	0.876294
C	-0.033452	-1.378583	-2.04634
N	0.344257	-2.383377	-2.524298
C	-0.143376	1.051366	-2.387911
H	-0.494184	0.842331	-3.400993
H	-0.643747	1.955863	-2.041949
H	0.934601	1.220846	-2.4191
Cl	-3.677027	0.0	0.0
