18

C	0.0	0.0	0.0
C	-0.393724	-0.301886	-1.504898
Cl	1.800765	0.0	0.0
H	0.546961	-0.434109	-2.045556
C	-0.42627	1.388528	0.462434
H	-0.079503	1.539872	1.489106
H	-0.005653	2.174832	-0.166766
H	-1.517971	1.434738	0.435755
N	-0.479104	-1.065775	0.842815
H	-1.501794	-1.021212	0.77445
H	-0.241398	-0.836459	1.803559
C	-1.015594	0.851406	-2.163187
N	-1.414938	1.768888	-2.779279
C	-1.20734	-1.580309	-1.741138
H	-2.204242	-1.485834	-1.313213
H	-0.683145	-2.427332	-1.296937
H	-1.297392	-1.738583	-2.819696
Cl	-3.704563	0.0	0.0
