18

C	0.0	0.0	0.0
C	-0.50547	-0.082031	-1.453025
Cl	1.797031	0.0	0.0
H	-1.595084	-0.204441	-1.355194
C	-0.442676	1.292438	0.675609
H	-0.005863	2.176646	0.20737
H	-1.534007	1.334737	0.634623
H	-0.122954	1.269318	1.721172
N	-0.45909	-1.19694	0.66331
H	-1.481539	-1.166327	0.621784
H	-0.191796	-1.156259	1.642162
C	0.027046	-1.272615	-2.118602
N	0.42705	-2.181984	-2.745188
C	-0.232462	1.160305	-2.301788
H	-0.548306	0.978209	-3.331236
H	0.830522	1.411812	-2.304186
H	-0.807915	2.003856	-1.920034
Cl	-3.670437	0.0	0.0
