18

C	0.0	0.0	0.0
C	-0.5116	0.057633	-1.449203
Cl	1.850452	0.0	0.0
H	-1.606837	-0.01057	-1.319502
C	-0.471348	1.194001	0.802915
H	-0.038355	2.122436	0.431479
H	-1.564642	1.21038	0.742549
H	-0.166807	1.074151	1.846074
N	-0.47269	-1.191038	0.590599
H	-0.133066	-2.025399	0.131987
H	-0.291248	-1.230113	1.582904
C	-0.064767	-1.126046	-2.184337
N	0.313407	-2.066116	-2.77905
C	-0.146249	1.327381	-2.217098
H	0.934704	1.481569	-2.231197
H	-0.631536	2.18973	-1.759523
H	-0.503376	1.251752	-3.246147
Cl	-3.835615	0.0	0.0
