18

C	0.0	0.0	0.0
C	-0.265884	0.245052	-1.533316
Cl	1.804294	0.0	0.0
H	0.326371	-0.521942	-2.048684
C	-0.533826	1.115898	0.870393
H	-0.259029	0.919184	1.908161
H	-1.626285	1.128304	0.788737
H	-0.128438	2.081507	0.566853
N	-0.502428	-1.253468	0.474232
H	-1.510111	-1.16149	0.606582
H	-0.333587	-1.990349	-0.20202
C	0.286661	1.536839	-1.95336
N	0.680397	2.582712	-2.315129
C	-1.711396	0.142108	-2.005759
H	-2.354176	0.893071	-1.556733
H	-1.733256	0.253212	-3.093418
H	-2.146402	-0.818668	-1.739505
Cl	-4.222448	0.0	0.0
