15

C	-0.307728	0.038784	-1.480373
C	0.0	0.0	0.0
Br	-2.265457	0.175384	-1.846663
H	1.102112	0.0	0.0
H	-0.02713	-0.918238	-1.925167
C	0.432614	1.187102	-2.128215
H	0.352852	1.156322	-3.217408
H	0.043845	2.13544	-1.758163
H	1.472767	1.077513	-1.799458
C	-0.50711	-1.206545	0.640485
N	-0.919743	-2.175131	1.166746
N	-0.382409	1.234149	0.684267
H	-1.240715	1.123256	1.209303
H	0.370284	1.462277	1.324826
F	2.58417	0.0	0.0
