15

C	-0.252641	0.045761	-1.491616
C	0.0	0.0	0.0
Br	-2.185826	0.276655	-1.930809
H	1.100023	0.0	0.0
H	-0.006955	-0.92731	-1.921294
C	0.578585	1.14208	-2.122314
H	0.544837	1.097748	-3.21324
H	0.231615	2.117269	-1.780904
H	1.594795	0.974184	-1.744203
C	-0.526023	-1.214274	0.615304
N	-0.937917	-2.187345	1.133323
N	-0.408629	1.229909	0.669277
H	-1.342697	1.151818	1.052596
H	0.246918	1.403333	1.421192
F	2.5995	0.0	0.0
