15

C	-0.512967	0.04047	-1.433869
C	0.0	0.0	0.0
Br	4.3e-05	-1.601361	-2.381803
H	1.093631	0.0	0.0
H	0.046881	0.834614	-1.930093
C	-2.009331	0.240801	-1.567504
H	-2.549302	-0.596966	-1.119052
H	-2.277125	1.163269	-1.045884
H	-2.309537	0.325163	-2.614622
C	-0.557061	-1.112925	0.754773
N	-1.038555	-1.967398	1.406042
N	-0.32214	1.303772	0.622858
H	0.535109	1.597151	1.080912
H	-1.047773	1.216106	1.324801
F	2.56617	0.0	0.0
