15

C	-0.355323	-0.075311	-1.489961
C	0.0	0.0	0.0
Br	0.011362	1.667327	-2.339053
H	1.10215	0.0	0.0
H	-1.424407	-0.218748	-1.658851
C	0.531815	-1.119389	-2.142823
H	0.227709	-2.112026	-1.796553
H	0.46569	-1.091143	-3.231672
H	1.551087	-0.927052	-1.797977
C	-0.493148	-1.227931	0.613127
N	-0.89172	-2.216231	1.111114
N	-0.615039	1.158042	0.684378
H	-0.042881	1.949973	0.413491
H	-0.430111	1.034089	1.675
F	2.634567	0.0	0.0
