15

C	-0.304774	-0.070294	-1.515653
C	0.0	0.0	0.0
Br	-0.009175	1.702187	-2.330451
H	1.096536	0.0	0.0
H	-1.358971	-0.276266	-1.732723
C	0.647582	-1.068544	-2.155191
H	0.596082	-1.047364	-3.246106
H	1.652041	-0.829402	-1.787577
H	0.38417	-2.074031	-1.811106
C	-0.511152	-1.244112	0.574876
N	-0.948018	-2.244447	1.01366
N	-0.493898	1.136227	0.761389
H	0.214965	1.855715	0.698383
H	-1.348624	1.502505	0.360389
F	2.620564	0.0	0.0
