15

C	-0.367115	-0.07756	-1.491073
C	0.0	0.0	0.0
Br	-0.030294	1.657477	-2.342281
H	1.095499	0.0	0.0
H	-1.434999	-0.250196	-1.66114
C	0.523716	-1.124894	-2.143685
H	1.548107	-0.918201	-1.816871
H	0.237581	-2.119207	-1.783824
H	0.44122	-1.111509	-3.232214
C	-0.451124	-1.243461	0.624495
N	-0.841799	-2.219036	1.155744
N	-0.502115	1.173332	0.707883
H	0.251732	1.51363	1.291464
H	-1.291977	0.947215	1.298491
F	2.610863	0.0	0.0
