15

C	-0.183539	0.024048	-1.5124
C	0.0	0.0	0.0
Br	-2.083726	0.308906	-2.058238
H	1.100362	0.0	0.0
H	0.05187	-0.96604	-1.908657
C	0.712303	1.074223	-2.137881
H	0.739648	0.985799	-3.224656
H	1.700064	0.89252	-1.691043
H	0.374687	2.080711	-1.879199
C	-0.571713	-1.202824	0.588392
N	-1.022431	-2.181983	1.056812
N	-0.417566	1.190702	0.724455
H	-1.26909	1.578002	0.330098
H	0.330662	1.870244	0.6531
F	2.61216	0.0	0.0
