15

C	-0.350132	-0.07385	-1.491829
C	0.0	0.0	0.0
Br	-0.008017	1.681053	-2.331238
H	1.102139	0.0	0.0
H	-1.416925	-0.237126	-1.669303
C	0.564971	-1.099824	-2.142999
H	0.276583	-2.101055	-1.804636
H	1.579639	-0.890494	-1.786631
H	0.506814	-1.069581	-3.232398
C	-0.488255	-1.234756	0.605036
N	-0.882028	-2.226697	1.099436
N	-0.625034	1.14729	0.69099
H	-0.421458	1.028106	1.679265
H	-0.075701	1.952628	0.407475
F	2.638205	0.0	0.0
