16

C	0.0	0.0	0.0
C	-0.381108	-0.198179	-1.535506
Br	1.947256	0.0	0.0
H	0.516808	-0.043401	-2.136403
N	-0.510702	1.201001	0.582686
H	-1.500588	1.029889	0.785194
H	-0.485176	1.927628	-0.125893
C	-0.396535	-1.125098	0.85561
N	-0.688312	-1.9578	1.631845
N	-1.390595	0.686845	-1.942624
H	-1.573065	0.574601	-2.930916
H	-2.260887	0.515545	-1.416345
N	-0.659483	-1.695437	-1.826766
O	-1.621144	-1.969508	-2.534599
O	0.182604	-2.492769	-1.416594
Cl	-3.703503	0.0	0.0
