16

C	0.0	0.0	0.0
C	-0.528914	0.281998	-1.432615
Br	1.978062	0.0	0.0
H	-1.615655	0.372362	-1.309653
N	-0.491201	0.967574	0.919039
H	-1.515689	0.967723	0.812071
H	-0.269634	0.688209	1.867899
C	-0.32119	-1.409364	0.309879
N	-0.513969	-2.541928	0.561309
N	-0.220908	-0.680693	-2.433763
H	0.738818	-0.996422	-2.377675
H	-0.858811	-1.461452	-2.354873
N	-0.035021	1.633243	-1.877179
O	0.998586	1.664801	-2.543078
O	-0.700625	2.610127	-1.545778
Cl	-3.487964	0.0	0.0
