16

C	0.0	0.0	0.0
C	-0.389839	0.225211	-1.506148
Br	2.036831	0.0	0.0
H	0.453453	0.702821	-2.00909
N	-0.509493	1.0336	0.805458
H	-0.978414	0.686608	1.629984
H	-1.132042	1.622463	0.262572
C	-0.332874	-1.321818	0.537893
N	-0.545783	-2.351603	1.064453
N	-1.539202	1.014813	-1.63776
H	-2.38391	0.602661	-1.200671
H	-1.721915	1.236237	-2.606089
N	-0.456135	-1.137765	-2.251064
O	-1.274632	-1.215037	-3.160742
O	0.379121	-1.989922	-1.963893
Cl	-3.955613	0.0	0.0
