16

C	0.0	0.0	0.0
C	-0.341001	-0.190178	-1.523312
Br	2.001947	0.0	0.0
H	0.05619	0.695404	-2.023036
N	-0.592615	1.204714	0.422358
H	-1.174688	1.155577	1.241786
H	-0.036975	2.036482	0.322953
C	-0.417577	-1.123865	0.8367
N	-0.740845	-1.991612	1.560348
N	-1.698214	-0.393911	-1.858418
H	-2.269939	0.405302	-1.599246
H	-2.10941	-1.159371	-1.334245
N	0.417735	-1.349737	-2.115653
O	0.20546	-2.450775	-1.612831
O	1.144416	-1.131084	-3.081061
Cl	-4.167656	0.0	0.0
