16

C	0.0	0.0	0.0
C	-0.425928	-0.241707	-1.506449
Br	1.9494	0.0	0.0
H	-0.265537	0.71006	-2.020569
N	-0.576056	1.184673	0.554216
H	-0.465121	1.960801	-0.08942
H	-1.575538	1.019341	0.703521
C	-0.384082	-1.150128	0.82595
N	-0.673586	-2.06448	1.504736
N	-1.727903	-0.741832	-1.743074
H	-2.479057	-0.15117	-1.372849
H	-1.847859	-1.637447	-1.280543
N	0.497981	-1.215776	-2.196008
O	0.482155	-2.36932	-1.774093
O	1.15758	-0.809646	-3.148848
Cl	-4.123279	0.0	0.0
