14
Coordinates from ORCA-job run
  C   0.74062760309145     -0.36300256172393     -0.55687173504984
  C   -0.50221819433569     -0.02720341276525      0.25473231495684
  F   1.28939284261534      0.74857241931486     -1.09206400621731
  H   -0.86117960548288     -0.96654931812822      0.68636975552187
  H   0.52402184804139     -1.08638141459519     -1.34584199924180
  N   1.75536680771780     -1.03166249638389      0.34383263442381
  O   2.80207416288215     -0.44786235862884      0.57621930472248
  O   1.39632492076723     -2.12586526651069      0.76797956137804
  C   -1.57951379377324      0.59262357617044     -0.64016045173742
  H   -1.85223299246106     -0.10497195980596     -1.43549261659632
  H   -2.47243022672532      0.81397450722109     -0.05476906714805
  H   -1.21876959585818      1.51838278276337     -1.08856730599627
  C   -0.14510077849655      0.87294427517540      1.35435367313150
  N   0.12263700201756      1.60700122789683      2.23027993785250
