14
Coordinates from ORCA-job run
  C   0.89631575670516     -0.49724238738411      0.40358029480900
  C   -0.58943247168390     -0.17631925456372      0.33292690465746
  F   1.09672068089331     -1.64888949916776      1.08907947248447
  H   -1.07740645075822     -1.08131140746171     -0.04639098859943
  H   1.50284978330212      0.30207976680235      0.83005321605340
  N   1.38558677456477     -0.69874786135351     -1.00631620607011
  O   1.00067840717053     -1.71325508173158     -1.57614174192601
  O   2.08282341325751      0.19715478203982     -1.47480834216097
  C   -0.88647724661059      1.01330029030371     -0.58549949499524
  H   -1.94818320231866      1.25616877230619     -0.54235331269504
  H   -0.31849150270381      1.89431460879669     -0.28097977909962
  H   -0.63346341906497      0.77335751383519     -1.61878149544514
  C   -1.06591624216164      0.07216106439543      1.69434074499844
  N   -1.44560428059161      0.30522869318301      2.78029072798878
