14
Coordinates from ORCA-job run
  C   0.74670835762580     -0.36271716579551     -0.55088280756947
  C   -0.50595608075730     -0.02886519154030      0.24633036437418
  F   1.30451773907615      0.75053077748636     -1.07316364881165
  H   -0.87498090259346     -0.97071537734613      0.66384464939203
  H   0.53872499811416     -1.08156297784646     -1.34631405062162
  N   1.74817722731208     -1.03759331198020      0.36002756280540
  O   1.38106968626769     -2.13246925780426      0.77520228537056
  O   2.79206060207772     -0.45594906878995      0.60986902815193
  C   -1.56778763719860      0.60454185387296     -0.65746252815250
  H   -1.19871744295043      1.53577917840890     -1.08705843797905
  H   -1.82832676779233     -0.08149820130491     -1.46670781470543
  H   -2.46994810456614      0.81903519999492     -0.08386563794947
  C   -0.16119290128296      0.85840072266937      1.36027427250470
  N   0.09565122666762      1.58108281997521      2.24890676319037
