14
Coordinates from ORCA-job run
  C   0.76323054491912     -0.69755429093297      0.38047280512419
  C   -0.65493226048619     -0.20457314085406      0.13407254436194
  F   0.75848137150335     -2.02151182211793      0.66835452672847
  H   -1.08527371709568     -0.87971972728224     -0.61430097773065
  H   1.29511056090078     -0.14761415132979      1.15713298476965
  N   1.54151675439329     -0.49683569508287     -0.89330166705176
  O   2.36357592280069      0.41554414621072     -0.89222261372353
  O   1.24724884438873     -1.22780147159017     -1.83171821342182
  C   -0.69067406293455      1.24111357220227     -0.37191879737345
  H   -0.22488584756151      1.31561298166764     -1.35547277362515
  H   -1.72480518822726      1.57506441918687     -0.45848386705512
  H   -0.16798902965632      1.90968304006861      0.31497033926858
  C   -1.41023996719807     -0.34971919840881      1.37929264506850
  N   -2.01136392574638     -0.43168866173728      2.38412306466013
