14
Coordinates from ORCA-job run
  C   0.74951749010530     -0.35462797253210     -0.55218974219658
  C   -0.50805493743250     -0.03010232840807      0.24110143712537
  F   1.32302883335423      0.76649281998969     -1.03927291476995
  H   -0.88742360103728     -0.97866002413215      0.63334970004518
  H   0.54279647860259     -1.04994576966784     -1.36858457309710
  N   1.73522214621240     -1.06292437793267      0.35045418887183
  O   1.35401754083169     -2.16503214755997      0.73246924064451
  O   2.78215521862356     -0.49838112109811      0.62564448996341
  C   -1.55664944959281      0.63317241111304     -0.65639769675526
  H   -2.46123187864818      0.84403368067218     -0.08529897502992
  H   -1.17509607018171      1.57012749701573     -1.06206197729050
  H   -1.81741814701781     -0.03184818083579     -1.48287099341491
  C   -0.16706907411385      0.82866266500825      1.37856448041280
  N   0.08620545029436      1.53003284836782      2.28509333549111
