15
Coordinates from ORCA-job run
  C   1.06337056736591      0.24707579113789      0.31216826622071
  C   -0.45738551575225      0.11225992259419      0.32904988854415
  H   1.44135436005580      0.54785825029508      1.29084114091543
  H   -0.71328661084906     -0.66770093183190      1.06018876880735
  H   1.38184625432750      0.94657703478477     -0.45820608831010
  N   1.67709098399406     -1.07179294702961      0.00769812073985
  O   1.57477668471253     -1.93862949500180      0.87474168025950
  O   2.19952555878241     -1.22314002632261     -1.09562556084944
  C   -0.98715798101708     -0.29068406879294     -1.03696711557719
  H   -0.57593064694077     -1.24693596107450     -1.36460865330425
  H   -2.07550068851647     -0.39257140977495     -1.00648750981309
  H   -0.73200627117584      0.47341892051428     -1.77518958346936
  N   -0.97699616760239      1.43254096045975      0.68405370878172
  H   -1.97323059476297      1.46650754808574      0.50362700002483
  H   -0.84646993262139      1.60421641195661      1.67471593702988
