15
Coordinates from ORCA-job run
  C   0.98748355082400      0.25956690213064      0.35622934517217
  C   -0.53020024147677      0.03089294595873      0.37577729924012
  H   1.35797629472224      0.48754118614131      1.35723908542310
  H   -0.72950508979413     -0.76855632276975      1.09587998222233
  H   1.26237119249575      1.04613792524303     -0.34708824468782
  N   1.68360129078605     -0.97885577313783     -0.08307801287366
  O   1.62988077479083     -1.93618188211271      0.68777615493837
  O   2.21049656956588     -0.98250102597256     -1.19448948270708
  C   -1.04257416785336     -0.38984017161644     -0.99221317696438
  H   -0.60394871821728     -1.33428182073051     -1.31884863454829
  H   -2.12619075094326     -0.50423423365804     -0.94945712849957
  H   -0.80423891286400      0.36903680658455     -1.74463432688332
  N   -1.25322826985250      1.21446019168672      0.82265369754326
  H   -0.95255135482608      1.49873124925405      1.74750260161971
  H   -1.09037216735738      1.98808402299880      0.18775084100505
