15
Coordinates from ORCA-job run
  C   0.80520289245284     -0.52526113182638      0.72698255823801
  C   -0.57396868024990      0.03773655212741      0.38936802924479
  H   0.79421734802255     -1.61565712510073      0.73516673650808
  H   -1.20062326260833     -0.22402053544340      1.26003662895070
  H   1.16312710207244     -0.14203809753908      1.68292933858961
  N   1.81322107234553     -0.10378782292464     -0.28418885501101
  O   2.56465212848244      0.81910499639570      0.01842635152345
  O   1.80599545684976     -0.70055522310781     -1.35945721946577
  C   -1.19914652433713     -0.59173038315697     -0.84683581379257
  H   -2.21713864052166     -0.21417660127635     -0.97890017585188
  H   -0.61843165284924     -0.34504186285688     -1.73481047310125
  H   -1.25398844786621     -1.67843769649610     -0.75193551680514
  N   -0.44231861509875      1.47423671299345      0.17879899165584
  H   -0.09588403821859      1.93642701936346      1.01166553875086
  H   -1.34391613847575      1.87520119884830     -0.04824611943372
