15
Coordinates from ORCA-job run
  C   0.83938615923800     -0.62552239340487     -0.13104640203045
  C   -0.46950932135662      0.06313819782045      0.19495332253798
  H   1.14215718739686     -0.42009466250564     -1.15768814329383
  H   -0.72769955197165     -0.16545653534850      1.23823423359105
  H   0.79256985938523     -1.70587850652129      0.03032118980715
  N   1.97585933501441     -0.15025678487697      0.72368065555603
  O   1.70991018366576      0.40410876047731      1.78975780555226
  O   3.10601683322621     -0.38510189572020      0.30967882211026
  C   -1.55235576430374     -0.49018966140191     -0.72152977868958
  H   -1.31928804295556     -0.25401814543876     -1.76251690235114
  H   -2.51959044455739     -0.04185377570260     -0.47968939253055
  H   -1.65319952091985     -1.57277059576565     -0.61609203085068
  N   -0.31024761177454      1.49430988355458     -0.05256408121255
  H   0.20450517521292      1.91168137576540      0.71366307455340
  H   -1.22051447530004      1.93790473906865     -0.08016237274936
