15
Coordinates from ORCA-job run
  C   0.79479545029538     -0.55529395664516      0.71562206118744
  C   -0.57440599990565      0.03794254021485      0.38911105923712
  H   0.76599841524915     -1.64521762858190      0.69731522034130
  H   -1.20653091941245     -0.23352428170911      1.25285188083565
  H   1.15689423538742     -0.20097358270543      1.68108353245189
  N   1.81184849945982     -0.12585144521341     -0.28317597902412
  O   1.79932117188364     -0.69786303220977     -1.37180519051534
  O   2.57560729060562      0.77905398897869      0.04230205882635
  C   -1.20764089253600     -0.55310900378848     -0.86181017825396
  H   -1.28377374238814     -1.64033419462560     -0.78994835029760
  H   -0.61958559914322     -0.29915284331292     -1.74287941388839
  H   -2.21775469320833     -0.15333377961654     -0.98880853883645
  N   -0.41926839221977      1.47647292703327      0.21145110685526
  H   -0.06302882418295      1.91358005669825      1.05366032773185
  H   -1.31447599988452      1.89760423548327     -0.00396959665098
