14

C	0.0	0.0	0.0
C	-0.242664	0.685107	-1.375086
Cl	1.840458	0.0	0.0
H	-0.005215	1.743673	-1.237452
H	0.50904	0.272825	-2.049369
N	-0.453561	0.83799	1.070371
H	-1.472794	0.876254	0.945811
H	-0.292266	0.354989	1.948869
N	-0.428857	-1.37399	-0.053402
H	-0.198788	-1.816727	0.830786
H	-1.452236	-1.325392	-0.110329
C	-1.48865	0.577763	-2.142833
N	-2.238543	0.586005	-3.048249
Cl	-3.47619	0.0	0.0
