14

C	0.0	0.0	0.0
C	-0.453494	-0.314238	-1.43063
Cl	1.790564	0.0	0.0
H	-0.072809	0.467108	-2.090871
H	-1.549991	-0.284464	-1.435224
N	-0.438409	1.349882	0.297647
H	-0.11864	1.5895	1.230926
H	-1.461366	1.310924	0.319841
N	-0.448094	-1.072015	0.857308
H	-1.469132	-1.060931	0.789052
H	-0.204177	-0.846571	1.81594
C	0.007733	-1.618575	-1.895891
N	0.367718	-2.659532	-2.297094
Cl	-3.575935	0.0	0.0
