14

C	0.0	0.0	0.0
C	-0.46224	0.314783	-1.427949
Cl	1.790561	0.0	0.0
H	-1.559468	0.303201	-1.419322
H	-0.106457	-0.483509	-2.082542
N	-0.445229	1.063128	0.865352
H	-1.46731	1.050816	0.812192
H	-0.183916	0.843855	1.820999
N	-0.434545	-1.352169	0.287314
H	-0.145745	-1.592405	1.230757
H	-1.457194	-1.31549	0.278607
C	0.013709	1.601147	-1.92275
N	0.371008	2.62087	-2.381005
Cl	-3.560089	0.0	0.0
