14

C	0.0	0.0	0.0
C	-0.444183	-0.064242	-1.471959
Cl	1.804217	0.0	0.0
H	-0.091907	-1.002159	-1.909047
H	-1.541609	-0.072244	-1.460411
N	-0.460982	1.235044	0.556647
H	-1.47646	1.247524	0.429066
H	-0.284262	1.199923	1.555882
N	-0.433673	-1.13739	0.773765
H	-0.14183	-2.003586	0.332723
H	-1.455836	-1.09963	0.777811
C	0.03524	1.045451	-2.289415
N	0.397717	1.914063	-2.99068
Cl	-3.556189	0.0	0.0
