16
Coordinates from ORCA-job run
  C   0.62976066569894     -0.71394488029252     -0.24878934738244
  C   -0.57098459834635      0.20834308142214     -0.06090084591983
  H   0.79815939933272     -1.24517581252306      0.69433948684983
  H   -0.79601342414959      0.66830316844350     -1.04022419168115
  H   0.37149687336987     -1.46367155926762     -1.00572384265759
  C   1.90299189016741      0.01680210272771     -0.66539418181847
  H   1.73271835179427      0.62995351958384     -1.55604236005371
  H   2.26591784292412      0.66429689831732      0.13567674860856
  H   2.70391893176019     -0.68865180278546     -0.89864580126469
  N   -0.26040091934058      1.20964526844199      0.96330394423381
  H   -1.09555572834199      1.74547502317525      1.17272051505370
  H   0.42328487361862      1.86723856711871      0.60702217042891
  C   -1.79438871572777     -0.57713508527495      0.38745919566604
  H   -2.03609307845090     -1.36870153266610     -0.32579155184931
  H   -1.60380129272765     -1.02705190874195      1.36495889900264
  H   -2.67101107158130      0.07227495232121      0.47603116278372
