16
Coordinates from ORCA-job run
  C   0.98672665991301      0.27663250847489     -0.00812121831407
  C   -0.53033878610529      0.43811871114051     -0.05533617702818
  H   1.44137945428698      1.19649482938662     -0.39791794524150
  H   -0.82474261789464      0.52741842409115     -1.11644000434437
  H   1.28232037610283      0.20708899246969      1.04432661025700
  C   1.51360364678478     -0.91604612549011     -0.79958444714840
  H   1.20167143411086     -1.86426207374832     -0.35760487299973
  H   2.60577569767265     -0.91296618781787     -0.82761794618052
  H   1.15568941478933     -0.89297828014448     -1.83308193658508
  N   -0.88642129589754      1.62861629657501      0.72194507974902
  H   -0.44190789686101      2.44514930366136      0.31642463721684
  H   -1.88782675209918      1.78133390539407      0.67257919172518
  C   -1.26037018091444     -0.75560255109669      0.54208615877903
  H   -2.34097805150967     -0.58270334690807      0.54957884608514
  H   -0.93581963405360     -0.90614663766875      1.57498489667142
  H   -1.07976146832507     -1.66914776831902     -0.02722087264175
