16
Coordinates from ORCA-job run
  C   0.55467961550764      0.02917071665407     -0.98234250205619
  C   -0.68117950995467      0.42413549793817     -0.17076267723645
  H   0.94794761163391      0.93304934598645     -1.46560654521034
  H   -1.42552255019777      0.81289899096946     -0.88686573511189
  H   0.23661843426604     -0.63419914185287     -1.79507240094614
  C   1.65963065397950     -0.63073387095927     -0.16245043898961
  H   1.90461798464313     -0.01948229771852      0.70649601723155
  H   2.56313446460088     -0.75734692863905     -0.76414499027404
  H   1.36118811321646     -1.62045158585893      0.18952494027028
  N   -0.29806974647527      1.43107001381972      0.82422740160711
  H   0.00944453799252      2.27427530973211      0.35141354482779
  H   -1.10606986900514      1.68252574346454      1.38299972057323
  C   -1.30876690104872     -0.75885225772309      0.55296856854106
  H   -1.51852471455241     -1.57699570133373     -0.14098686067737
  H   -2.25457858838010     -0.46782630558711      1.02037729273233
  H   -0.64454953622600     -1.12123752889195      1.33922466471869
