19

C	-0.23193	-0.081889	-1.524037
C	0.0	0.0	0.0
Br	0.169177	1.674397	-2.376441
H	1.097316	0.0	0.0
C	0.769599	-1.073048	-2.126534
H	0.813029	-0.987527	-3.212503
H	0.478219	-2.094814	-1.867752
H	1.732456	-0.830832	-1.649534
C	-1.623359	-0.359558	-1.884291
N	-2.748079	-0.615585	-2.122765
C	-0.454149	-1.309835	0.649009
H	-0.269647	-1.242419	1.725012
H	0.129956	-2.156923	0.285981
H	-1.521914	-1.51813	0.500507
C	-0.648693	1.185004	0.68831
H	-1.741039	1.187546	0.565835
H	-0.431294	1.135108	1.759883
H	-0.254439	2.131649	0.318582
F	2.709529	0.0	0.0
