19

C	-0.490544	0.052719	-1.445546
C	0.0	0.0	0.0
Br	0.38541	-1.386571	-2.508275
H	1.096042	0.0	0.0
C	-1.997108	-0.124442	-1.635238
H	-2.304801	-1.100428	-1.258401
H	-2.271286	-0.052052	-2.68964
H	-2.524365	0.655953	-1.078157
C	-0.083476	1.299451	-2.097581
N	0.142863	2.323433	-2.629707
C	-0.478402	-1.24288	0.737129
H	-0.292776	-2.150331	0.157267
H	0.108619	-1.327354	1.655589
H	-1.542218	-1.21071	1.011376
C	-0.402427	1.262716	0.760576
H	0.0037	2.157685	0.282921
H	-1.487942	1.385855	0.887616
H	0.049956	1.204702	1.754637
F	2.632645	0.0	0.0
