19

C	-0.174268	0.076432	-1.513513
C	0.0	0.0	0.0
Br	-2.056668	0.587923	-2.081316
H	1.100291	0.0	0.0
C	0.821941	1.060241	-2.123538
H	1.785101	0.800966	-1.65066
H	0.552048	2.082892	-1.856369
H	0.852209	0.97575	-3.211598
C	0.014283	-1.237132	-2.129898
N	0.184388	-2.289933	-2.626228
C	-0.597165	-1.241049	0.635427
H	-1.6847	-1.292419	0.491669
H	-0.398316	-1.227373	1.711349
H	-0.148291	-2.151441	0.232567
C	-0.447143	1.265576	0.716569
H	-1.538203	1.368714	0.740735
H	-0.07762	1.226352	1.745348
H	-0.021619	2.161829	0.261515
F	2.689641	0.0	0.0
