19

C	-0.490475	0.009269	-1.444174
C	0.0	0.0	0.0
Br	0.408756	-1.442713	-2.471629
H	1.096095	0.0	0.0
C	-1.993115	-0.198147	-1.630134
H	-2.269104	-0.156376	-2.685584
H	-2.535225	0.584264	-1.090123
H	-2.282292	-1.170766	-1.230257
C	-0.093794	1.247901	-2.11702
N	0.138763	2.268562	-2.65222
C	-0.470693	-1.224887	0.772648
H	0.127859	-1.288744	1.68436
H	-1.530535	-1.185172	1.058461
H	-0.293343	-2.145836	0.212124
C	-0.406643	1.28041	0.727385
H	-1.493312	1.408173	0.840759
H	0.005374	2.163301	0.233111
H	0.035194	1.24498	1.727382
F	2.631033	0.0	0.0
