16

C	-0.587148	-0.005388	-1.414017
C	0.0	0.0	0.0
F	-0.129982	1.13472	-2.084247
H	1.090224	0.0	0.0
C	-0.087483	-1.175394	-2.162655
N	0.286525	-2.062011	-2.834301
N	-2.008467	-0.064681	-1.386394
H	-2.379022	-0.076031	-2.32766
H	-2.387764	0.719264	-0.869372
N	-0.460643	-1.131252	0.711346
H	-1.437329	-1.061709	0.956789
H	0.121009	-1.300513	1.519248
N	-0.441396	1.336525	0.611288
O	0.307181	2.299145	0.515562
O	-1.560143	1.356364	1.147057
Br	3.458648	0.0	0.0
