16

C	-0.603222	0.021594	-1.409867
C	0.0	0.0	0.0
F	-0.098221	1.121278	-2.104847
H	1.090233	0.0	0.0
C	-0.180546	-1.184934	-2.14673
N	0.128698	-2.112358	-2.798251
N	-2.024823	0.041342	-1.351237
H	-2.35209	0.861063	-0.853925
H	-2.415278	0.027917	-2.285161
N	-0.463863	-1.141124	0.693162
H	0.125759	-1.330026	1.490272
H	-1.434013	-1.05827	0.957711
N	-0.430929	1.327419	0.641588
O	-1.472657	1.313434	1.311026
O	0.254722	2.319037	0.429985
Br	3.450833	0.0	0.0
