16

C	-0.366322	-0.053852	-1.489787
C	0.0	0.0	0.0
F	-1.690359	-0.468673	-1.61851
H	1.090548	0.0	0.0
C	-0.227305	1.245352	-2.175953
N	-0.09536	2.258181	-2.754611
N	0.45307	-1.013768	-2.182621
H	0.496895	-1.84949	-1.609732
H	1.406259	-0.654775	-2.209148
N	-0.451904	-1.149599	0.719896
H	-1.225239	-1.621317	0.2814
H	0.311925	-1.763168	0.954948
N	-0.535631	1.221671	0.694648
O	-1.484203	1.815136	0.173112
O	-0.02838	1.501026	1.773096
Br	3.404918	0.0	0.0
