16

C	-0.363258	-0.122989	-1.479713
C	0.0	0.0	0.0
F	-1.710263	-0.470448	-1.626451
H	1.101361	0.0	0.0
C	-0.183831	1.123111	-2.261102
N	0.012183	2.020002	-2.994144
N	0.42578	-1.203685	-1.992193
H	0.426586	-1.186863	-3.004533
H	1.388022	-1.114936	-1.660958
N	-0.475962	-1.105735	0.774817
H	0.305648	-1.688599	1.040962
H	-1.147766	-1.650625	0.251951
N	-0.512614	1.270122	0.620064
O	-1.340145	1.940846	-0.002764
O	-0.093743	1.524003	1.741953
Br	3.396632	0.0	0.0
