16

C	-0.335287	0.099691	-1.514468
C	0.0	0.0	0.0
F	-0.328658	-1.255103	-1.971976
H	1.102522	0.0	0.0
C	-1.726533	0.531634	-1.781001
N	-2.851751	0.801688	-1.981538
N	0.604113	0.880768	-2.189363
H	1.54697	0.726454	-1.83144
H	0.556291	0.754541	-3.191233
N	-0.476809	-1.153796	0.669678
H	-1.388052	-1.444853	0.34084
H	0.185771	-1.906029	0.547668
N	-0.467269	1.254774	0.717264
O	-0.488019	2.294915	0.06124
O	-0.761537	1.162684	1.902277
Br	3.425263	0.0	0.0
