16

C	-0.493542	-0.01414	-1.450313
C	0.0	0.0	0.0
F	0.04221	1.079191	-2.127547
H	1.091584	0.0	0.0
C	0.039706	-1.231374	-2.104693
N	0.394777	-2.199663	-2.665629
N	-1.915989	-0.072685	-1.541574
H	-2.289123	0.787681	-1.154716
H	-2.202309	-0.178514	-2.507474
N	-0.486455	-1.105667	0.757379
H	0.262077	-1.754579	0.95621
H	-1.271983	-1.55904	0.314532
N	-0.422622	1.27957	0.702547
O	0.095357	1.482866	1.788447
O	-1.273799	2.011323	0.18504
Br	3.420239	0.0	0.0
