14

C	0.0	0.0	0.0
C	-0.232089	-0.192989	-1.534103
Br	1.944995	0.0	0.0
H	0.186319	0.713581	-1.984822
H	0.404118	-1.0182	-1.853377
N	-0.539771	1.103349	0.670719
H	-1.562159	0.949459	0.716581
H	-0.361084	1.944054	0.133775
N	-0.403234	-1.279211	0.746828
O	-0.582812	-1.188163	1.950036
O	-0.443314	-2.304485	0.076931
C	-1.518692	-0.431465	-2.19703
N	-2.264408	-0.665455	-3.077474
Br	-3.583315	0.0	0.0
