14

C	0.0	0.0	0.0
C	-0.498733	-0.177224	-1.441417
Br	1.93899	0.0	0.0
H	-0.084057	-1.077611	-1.89347
H	-1.594483	-0.266766	-1.366455
N	-0.495111	1.105469	0.723837
H	-1.518751	1.003868	0.755593
H	-0.261043	1.959097	0.229128
N	-0.382071	-1.287856	0.766654
O	-0.323127	-2.331251	0.124937
O	-0.65555	-1.179584	1.94963
C	-0.158179	0.994761	-2.234956
N	0.102878	1.947841	-2.868502
Br	-3.665556	0.0	0.0
