11
Coordinates from ORCA-job run
  C   1.17109448016405     -0.05417076016420      0.43223668876262
  C   -0.13192312107260      0.12878515110015     -0.34121225737001
  H   1.84310191002713      0.79066587968893      0.27436127691774
  H   0.10518062779084      0.24657011585591     -1.41003845201784
  H   0.95181887482810     -0.15075620273554      1.49585541954407
  H   1.67509294756808     -0.96299408859635      0.09334345361480
  C   -0.79779635328259      1.37243357950038      0.07531646015337
  N   -1.32206787159470      2.37276873979317      0.39365393121896
  N   -1.02696715404793     -0.99475593867193     -0.06222677440855
  H   -0.57954955520673     -1.85213696055671     -0.36562957422344
  H   -1.88898478517365     -0.89540951521382     -0.58566017219171
