11
Coordinates from ORCA-job run
  C   1.23125948891205     -0.04082674449993      0.32497098974566
  C   -0.09291872822623      0.11138610723135     -0.41674197727652
  H   1.05195544381010     -0.25785175996894      1.38083804492576
  H   0.11347236883281      0.33165683423699     -1.46865649757018
  H   1.78517680144577     -0.87092567697976     -0.11427795811180
  H   1.82620445865763      0.87151553454759      0.25973694085053
  C   -0.84935179064717      1.26223464606607      0.12759846032213
  N   -1.45178737174139      2.15825214053795      0.59014219104898
  N   -0.83421688850954     -1.14489629470826     -0.37285189105741
  H   -1.08453683924249     -1.35757156000711      0.58637147403222
  H   -1.69625694329155     -1.06297322645595     -0.89912977690936
