14

C	-0.192985	0.231902	-1.510564
C	0.0	0.0	0.0
Cl	-0.083608	2.011745	-1.839853
H	1.090867	0.0	0.0
H	-0.304922	-1.034583	0.213878
N	0.915202	-0.37249	-2.22928
H	0.779757	-1.376876	-2.157258
H	1.763606	-0.175961	-1.663441
N	-1.487895	-0.194477	-1.984986
H	-1.635249	-1.150805	-1.680908
H	-1.465271	-0.181781	-3.001012
C	-0.67614	0.898675	0.906611
N	-1.204968	1.612919	1.676338
F	2.639803	0.0	0.0
