14

C	-0.18627	0.10573	-1.524355
C	0.0	0.0	0.0
Cl	-0.043631	-1.557522	-2.235712
H	1.09225	0.0	0.0
H	-0.305687	0.961456	0.434887
N	-1.484328	0.609193	-1.905549
H	-1.666415	1.452314	-1.371916
H	-1.440023	0.854321	-2.889739
N	0.91498	0.870759	-2.086814
H	1.766033	0.559504	-1.577972
H	0.767425	1.832995	-1.79023
C	-0.676383	-1.076992	0.683806
N	-1.210182	-1.941051	1.275424
F	2.637516	0.0	0.0
