14

C	-0.139231	-0.041379	-1.540532
C	0.0	0.0	0.0
Cl	0.031629	1.767174	-2.046462
H	1.092068	0.0	0.0
H	-0.428263	0.889312	0.459378
N	0.96253	-0.716241	-2.160668
H	1.800942	-0.472477	-1.597318
H	0.788889	-1.707676	-2.02808
N	-1.358077	-0.578039	-2.023629
H	-1.368652	-0.516481	-3.033596
H	-2.150657	-0.080691	-1.64331
C	-0.514029	-1.207181	0.617752
N	-0.931001	-2.175458	1.138865
F	2.635871	0.0	0.0
