14

C	-0.099061	-0.082941	-1.531464
C	0.0	0.0	0.0
Cl	-1.71251	-0.938243	-2.063788
H	1.094231	0.0	0.0
H	-0.420256	0.920679	0.40727
N	-0.040561	1.224115	-2.065713
H	-0.864843	1.759835	-1.834092
H	0.079506	1.159792	-3.068299
N	0.979266	-0.846436	-2.109791
H	0.816541	-1.826354	-1.905973
H	1.809034	-0.563372	-1.543856
C	-0.48973	-1.162913	0.706551
N	-0.878774	-2.099874	1.29977
F	2.636744	0.0	0.0
