14

C	-0.456863	0.038253	-1.442057
C	0.0	0.0	0.0
Br	-2.510454	0.32511	-1.445808
H	1.093068	0.0	0.0
H	-0.30007	0.960393	0.433973
N	0.244125	0.967358	-2.160475
H	0.682885	1.714874	-1.654525
H	-0.052591	1.151312	-3.102642
N	-0.34991	-1.295687	-2.188456
O	-0.498122	-1.23017	-3.402702
O	-0.111284	-2.300215	-1.535036
C	-0.572665	-1.044952	0.832725
N	-1.061336	-1.812144	1.574688
Br	3.437933	0.0	0.0
