14

C	-0.47795	0.014597	-1.451136
C	0.0	0.0	0.0
Br	0.101793	1.678914	-2.277561
H	1.093014	0.0	0.0
H	-0.346337	0.890754	0.529088
N	-0.066837	-1.079758	-2.268283
H	-0.472635	-1.939716	-1.910077
H	0.951913	-1.137196	-2.207981
N	-2.019812	0.060907	-1.439625
O	-2.616727	-0.905747	-1.910014
O	-2.542057	1.029813	-0.894035
C	-0.505364	-1.199018	0.65898
N	-0.921712	-2.180765	1.15242
Br	3.330497	0.0	0.0
