14

C	-0.607391	-0.003643	-1.393386
C	0.0	0.0	0.0
Br	0.202619	-1.417596	-2.453674
H	1.089124	0.0	0.0
H	-0.311509	-0.939836	0.466188
N	-2.012408	-0.184624	-1.371966
H	-2.43087	0.501784	-0.75168
H	-2.387398	-0.065989	-2.30568
N	-0.231747	1.307145	-2.141198
O	0.683067	1.983599	-1.695837
O	-0.91344	1.56136	-3.133224
C	-0.552147	1.108744	0.772428
N	-1.055467	2.002758	1.344474
Br	3.480367	0.0	0.0
