14

C	-0.517325	0.00572	-1.420013
C	0.0	0.0	0.0
Br	0.210995	-1.492194	-2.443446
H	1.089678	0.0	0.0
H	-0.317372	0.932456	0.483883
N	-1.918363	-0.035362	-1.511472
H	-2.250948	0.030686	-2.464165
H	-2.329934	0.69562	-0.943632
N	0.084405	1.27017	-2.13762
O	-0.648107	1.837054	-2.944056
O	1.224494	1.597721	-1.855491
C	-0.510134	-1.133505	0.741552
N	-0.900988	-2.040823	1.384931
Br	2.752876	0.0	0.0
