14

C	-0.284416	0.003284	-1.493677
C	0.0	0.0	0.0
Br	-0.119305	1.949786	-2.12563
H	1.094124	0.0	0.0
H	-0.397065	0.877507	0.503642
N	0.535483	-0.894729	-2.141234
H	0.426386	-0.911723	-3.144646
H	1.506195	-0.808088	-1.836187
N	-1.740688	-0.28273	-1.841777
O	-2.582767	0.024044	-1.006853
O	-1.958651	-0.773614	-2.944138
C	-0.490368	-1.226146	0.618554
N	-0.900762	-2.201781	1.126195
Br	3.433923	0.0	0.0
