14

C	-0.304357	0.097515	-1.483084
C	0.0	0.0	0.0
Br	-2.230301	0.341946	-1.871933
H	1.092366	0.0	0.0
H	-0.375934	-0.930403	0.421553
N	0.448398	1.110235	-2.074118
H	1.408885	1.072207	-1.725217
H	0.431286	1.050058	-3.083078
N	-0.03371	-1.312031	-2.122088
O	0.390644	-1.299423	-3.272159
O	-0.289019	-2.308837	-1.458668
C	-0.505253	1.146406	0.736633
N	-0.922389	2.042121	1.370506
Br	3.416128	0.0	0.0
