14

C	-0.283838	0.102372	-1.490184
C	0.0	0.0	0.0
Br	-0.128758	2.085107	-1.988335
H	1.104545	0.0	0.0
H	-0.396676	0.84184	0.561194
N	0.539015	-0.747389	-2.196722
H	0.427796	-0.698358	-3.198681
H	1.509834	-0.677329	-1.887385
N	-1.739528	-0.167474	-1.855745
O	-1.955989	-0.603408	-2.981071
O	-2.582642	0.097798	-1.007822
C	-0.488932	-1.263005	0.539207
N	-0.894848	-2.266417	0.993772
Br	3.431567	0.0	0.0
