14

C	-0.451298	0.235756	-1.441776
C	0.0	0.0	0.0
Br	-2.494376	0.603457	-1.402435
H	1.104125	0.0	0.0
H	-0.287769	0.9078	0.543963
N	0.209468	1.27136	-2.034296
H	1.060152	1.626238	-1.57812
H	0.153629	1.362068	-3.035339
N	-0.423517	-1.028757	-2.3341
O	-0.373754	-2.105261	-1.779922
O	-0.45846	-0.838534	-3.534622
C	-0.609293	-1.134571	0.681499
N	-1.088892	-1.976322	1.331887
Br	3.428389	0.0	0.0
