15
Coordinates from ORCA-job run
  C   0.74098045197989      0.52794233394170     -0.14936364088593
  C   -0.05701215808115     -0.74353174018639      0.22918746952369
  Br  2.06100731331131      0.17530534720110     -1.54232664959454
  H   0.60043937390120     -1.44700746996226      0.74015834818325
  C   1.49838567457884      0.91882845692384      1.05186920454839
  N   2.06519033839756      1.26994900428098      2.02068994909544
  N   -0.16358448763349      1.54619093219087     -0.62649963654210
  H   -0.68912574695594      1.90957086531671      0.16237216996511
  H   0.35514633002901      2.30778155184042     -1.04661956479943
  N   -0.51267001351096     -1.48093187887541     -1.02506869015142
  O   -1.55987739275428     -1.10247287093570     -1.54112382033712
  O   0.19575339892023     -2.40808121726398     -1.40654722274194
  N   -1.14988478068820     -0.34172668001299      1.04863901496455
  H   -1.47416824849198     -1.10312744372629      1.62967372898555
  H   -1.91158005300202     -0.02868919073260      0.45595933978649
