15
Coordinates from ORCA-job run
  C   0.40912349735524      0.81415309788097     -0.03603305885734
  C   -0.78227177109080     -0.16760394074204      0.01247751957449
  Br  -0.38474137489182      2.57630912324794     -0.62513671300375
  H   -1.56781742532143      0.25892127960011      0.63744794739836
  C   1.34792126479265      0.44041387394975     -1.09276913851391
  N   2.10014890686248      0.12733104996918     -1.93972314348136
  N   1.07297331557947      0.87029733161278      1.20593914477524
  H   1.87463897290247      1.48673898156907      1.19002356725090
  H   0.45202367455690      1.11637070926529      1.96718344897395
  N   -0.28754802882347     -1.38501564214239      0.80493242113146
  O   -0.58102368410885     -1.42674120690738      1.99563504556034
  O   0.36199624693130     -2.21602928526111      0.17880807962480
  N   -1.25883528856671     -0.48594183842378     -1.27532229507717
  H   -2.15835104242498     -0.94506192366590     -1.24105139696859
  H   -0.59723726375244     -1.06214160995249     -1.78241142838744
