15
Coordinates from ORCA-job run
  C   0.51076846531766      0.61292488418820     -0.24862376024035
  C   -0.40557081221927     -0.53940081739755      0.19352430520771
  Br  0.49612970096708      0.82870277989262     -2.18403170684307
  H   -0.27670085749367     -0.64055710464329      1.28613155731277
  C   1.89734451522791      0.39424525781269      0.18117408786284
  N   2.98268575434902      0.33857720637663      0.63102388023897
  N   -0.05726930834614      1.82741198141882      0.32614282342558
  H   0.13145948608491      1.84111374753945      1.32556718339739
  H   0.39050812200155      2.63942793975025     -0.08437441057817
  N   0.04588020833800     -1.89023692462998     -0.32267283693093
  O   1.15445647357093     -1.99692337054768     -0.83385592216068
  O   -0.75787759002123     -2.79629143428408     -0.13285591697735
  N   -1.74146455423995     -0.32575921343717     -0.25785305051574
  H   -1.98620939063465      0.64506760175581     -0.10629548991971
  H   -2.38414021290215     -0.93730253379471      0.22599925672074
