13
Coordinates from ORCA-job run
  C   -0.63770207754026     -0.04153747873681     -0.44488718324186
  C   0.86771296613981      0.23489048167767     -0.25582296387015
  F   -0.77730771559590     -1.38580733661403     -0.73835980301071
  H   0.99912230412432      1.30777560946646     -0.06689794304221
  H   -0.97218218264072      0.52034621567600     -1.32278188320702
  C   -1.45523076110938      0.29328351353022      0.77880581427990
  H   -1.35370296123759      1.34912315038782      1.04049242562774
  H   -1.13869057959612     -0.31732028383449      1.62600294278436
  H   -2.50697280033317      0.08590680520506      0.57743747183999
  C   1.61181750357051     -0.10932259840355     -1.47236921143348
  N   2.18324585211825     -0.36037728996433     -2.46595575393076
  C   1.39446380629186     -0.50182553280707      0.89832067222306
  N   1.78442664580839     -1.07513525558294      1.84501541498115
