13
Coordinates from ORCA-job run
  C   -0.57484053268366     -0.45258503394198     -0.22844883412298
  C   0.86519567915155     -0.19454796774988      0.26489448460280
  F   -0.96024715825437     -1.65626721837209      0.34022024592016
  H   0.83324621014190     -0.14555413604342      1.36026408787738
  H   -0.56301742267623     -0.59119555308391     -1.31330551777621
  C   -1.53764722270144      0.63122871355765      0.18992922206767
  H   -2.54646344578275      0.35022382337573     -0.11526710147996
  H   -1.28605609827303      1.58472779889085     -0.27713689902810
  H   -1.52666802010809      0.74975845346808      1.27573060599426
  C   1.36476149046085      1.08144579686663     -0.25348203242197
  N   1.71735640310219      2.11526856504165     -0.68276360300285
  C   1.75506533033722     -1.29425902148223     -0.12247423446530
  N   2.45831478728585     -2.17924422052710     -0.43716042416492
