13
Coordinates from ORCA-job run
  C   -0.68760731722896     -0.42025019185366     -0.41500382595793
  C   0.85721386847570     -0.43320921463074     -0.44636256040434
  F   -1.07449212710616     -1.70856266487008     -0.08053494164173
  H   1.16551795440162     -1.23930409259689     -1.12227888729646
  H   -1.03825696849832     -0.22675698568185     -1.43355763422727
  C   -1.27152162881381      0.55853021173184      0.57155197399872
  H   -0.93874716753324      0.32208982801216      1.58358620167468
  H   -2.35989087237072      0.49418391110441      0.54066718170526
  H   -0.97677806812220      1.58075124166659      0.32589254972805
  C   1.41055681380508     -0.70878026946113      0.88356436543307
  N   1.83350223574221     -0.92910093417904      1.95582719133275
  C   1.36193750258505      0.84017445073757     -0.96663065474386
  N   1.71956577466374      1.87123471002081     -1.39872095960094
