13
Coordinates from ORCA-job run
  C   -0.70607028961151     -0.38922638364777     -0.41331329438931
  C   0.83646554202473     -0.47799948451724     -0.43898196573132
  F   -1.15627191413673     -1.65371017193089     -0.06779626028896
  H   1.10648325695599     -1.30435103302467     -1.10682997251996
  H   -1.04362325142453     -0.18885793869641     -1.43496368844987
  C   -1.24407255096331      0.62642032974103      0.56207153680637
  H   -0.92510173809153      0.38384774987742      1.57720079850582
  H   -2.33428426421026      0.61475549676647      0.52936069927922
  H   -0.89940326550115      1.63066125017249      0.30726924753777
  C   1.37048862566541     -0.77028087882964      0.89517264875907
  N   1.77478927913366     -1.00556824642513      1.97142425373603
  C   1.40490695897381      0.76371230285250     -0.96951509042565
  N   1.81369361118542      1.77059700766184     -1.41309891281921
