13
Coordinates from ORCA-job run
  C   -0.68605200761855     -0.40088267638911     -0.43591548696152
  C   0.85689040285687     -0.47493586939910     -0.40033680535951
  F   -1.13753661298305     -1.66605624464742     -0.09402146151744
  H   1.16092103547045     -1.30679725236494     -1.04637048535439
  H   -0.98555521886003     -0.21486174348283     -1.47207374055618
  C   -1.27122218673321      0.61982637598439      0.50644672999051
  H   -0.99125609256657      0.39009010406234      1.53609581752079
  H   -2.35919884906151      0.59850897371908      0.43004269370603
  H   -0.92471944455461      1.62459497501932      0.25540258689088
  C   1.34122328809842     -0.74440457302191      0.95741667271491
  N   1.70611834367918     -0.95951961980783      2.05184466773836
  C   1.43514859384099      0.76522830313686     -0.92398906158252
  N   1.85423874843163      1.76920924719115     -1.36454212722991
