14
Coordinates from ORCA-job run
  C   0.90211071042343     -0.19870219981965     -0.22788132121056
  C   -0.42340243438697     -0.26718234474571     -0.03475233943796
  H   1.33803815723902     -1.06898708241225     -0.71488975744431
  C   1.84471542718463      0.90846604050282      0.13281770981492
  H   2.20913859590226      0.78090913829503      1.15586041737533
  H   2.70619132438714      0.89466905450074     -0.53676885841211
  H   1.37405360987008      1.88977364776808      0.08680029637618
  N   -1.12816487343577      0.85742314017528      0.59889927288292
  O   -2.25991527460489      1.10340337889518      0.17949025660102
  O   -0.56014462592159      1.47168355388814      1.50203485749934
  C   -1.32622574018193     -1.38051348549694     -0.45730803990093
  H   -1.91994128808405     -1.73815216215386      0.38768840952049
  H   -0.73481095310070     -2.20958707329404     -0.84709509358736
  H   -2.02264263529068     -1.04320360610281     -1.22589581007698
