14
Coordinates from ORCA-job run
  C   0.69626514624236      0.71480768002081      0.08163376468551
  C   -0.51907842549791      0.17530606801783     -0.08246482046799
  H   0.75038175634357      1.79974860733289      0.06493862652958
  C   1.98008061312264     -0.02403114771284      0.27718513511081
  H   2.44627672951572      0.27870730190328      1.21932737350529
  H   2.68483788790628      0.23464035708939     -0.51855718202524
  H   1.86079140816866     -1.10634186781715      0.28902613092017
  N   -1.65244781048311      1.12270570452715     -0.25196607691413
  O   -2.77618203003987      0.61948673999562     -0.29926974269292
  O   -1.42330874355570      2.32546057278189     -0.33337845717908
  C   -0.92695875610641     -1.26005749659877     -0.10599881573179
  H   -0.05667400156331     -1.90650120458671     -0.00629095440405
  H   -1.43869052244795     -1.49888425586818     -1.03984214225580
  H   -1.62429325160498     -1.47704705908522      0.70465716091963
