14
Coordinates from ORCA-job run
  C   0.91263023575503     -0.19550778347284     -0.18361718093489
  C   -0.42530037885359     -0.24585796565746     -0.10267088237715
  H   1.36676111217889     -1.00588982432399     -0.75075614069582
  C   1.84810249621603      0.82094466298671      0.39614654996645
  H   2.75901966669286      0.87054443525639     -0.20258271187069
  H   2.12844725223916      0.54323393710478      1.41597822362448
  H   1.40429326101053      1.81418497409487      0.45134452281886
  N   -1.15337872540091      0.80495515807579      0.62423781470655
  O   -2.24282254229230      1.14161620852461      0.15836157652861
  O   -0.64511245198592      1.27316153245845      1.64312028057179
  C   -1.31587571055181     -1.26131967695480     -0.74215036130330
  H   -1.98456285325031     -1.70870873650976     -0.00245173640683
  H   -1.93944456850322     -0.80088903526987     -1.50940589537329
  H   -0.71375679325446     -2.05046788631288     -1.19355405925476
