14
Coordinates from ORCA-job run
  C   0.73176659077605      0.66583015008584     -0.15207589298216
  C   -0.51585712063406      0.18136897945203     -0.09033208566027
  H   0.83203537145841      1.70466925019545     -0.45397554443111
  C   1.99260634927764     -0.07610541878624      0.15086984934601
  H   1.82765148278966     -1.11340022501853      0.43837198873197
  H   2.53408631026086      0.42150189927534      0.96073560071577
  H   2.65218481693596     -0.06337032173846     -0.72175172628559
  N   -1.61523273295613      1.12201761975695     -0.43327171895777
  O   -1.33970499895818      2.25621027080740     -0.81184153095706
  O   -2.76040006121430      0.68497952371064     -0.30752135143970
  C   -0.98801576720274     -1.18389296357464      0.28431803504413
  H   -0.14277823780932     -1.83343026745805      0.50562398497383
  H   -1.63958956538086     -1.14109645895718      1.15849473638091
  H   -1.56975243734298     -1.62528203775056     -0.52664434447896
