13

C	0.0	0.0	0.0
C	-0.495099	0.205428	-1.413951
Cl	1.765984	0.0	0.0
H	-0.070213	1.133432	-1.809948
H	-0.38448	-0.920762	0.416538
H	-1.587729	0.272218	-1.23899
N	-0.440901	1.093774	0.923053
O	-0.531446	2.225785	0.459053
O	-0.579999	0.797311	2.104112
N	-0.14245	-0.985805	-2.195574
H	0.650975	-0.800985	-2.794937
H	-0.930446	-1.23112	-2.778645
F	-2.647374	0.0	0.0
