13

C	0.0	0.0	0.0
C	-0.62756	0.08163	-1.365877
Cl	1.759534	0.0	0.0
H	-1.723604	0.153007	-1.066829
H	-0.336048	-0.898857	0.506693
H	-0.460223	-0.905335	-1.835031
N	-0.484604	1.120922	0.917107
O	-1.036511	0.796523	1.968597
O	-0.252841	2.277795	0.570939
N	-0.149428	1.202222	-2.162295
H	0.680463	0.964729	-2.701445
H	-0.877477	1.47688	-2.812537
F	-2.845435	0.0	0.0
