13

C	0.0	0.0	0.0
C	-0.503917	0.120941	-1.441581
Cl	1.757357	0.0	0.0
H	0.341369	0.326326	-2.106457
H	-0.372306	-0.892735	0.483059
H	-1.207225	0.950515	-1.465077
N	-0.420644	1.144339	0.874657
O	-0.473735	2.261072	0.371231
O	-0.57208	0.895164	2.06518
N	-1.130674	-1.158423	-1.781105
H	-1.418063	-1.111653	-2.754219
H	-1.980925	-1.059127	-1.19454
F	-2.576628	0.0	0.0
