13

C	0.0	0.0	0.0
C	-0.479898	0.198045	-1.458481
Cl	1.768554	0.0	0.0
H	0.388071	0.419648	-2.087964
H	-0.37619	-0.908976	0.450402
H	-1.147212	1.052786	-1.453303
N	-0.414428	1.100984	0.933028
O	-0.462976	2.241076	0.485681
O	-0.569336	0.792298	2.109081
N	-1.229052	-0.926465	-1.989303
H	-2.028597	-0.911787	-1.33078
H	-0.696001	-1.780317	-1.853398
F	-2.539275	0.0	0.0
