13

C	0.0	0.0	0.0
C	-0.431607	0.174371	-1.443979
Cl	1.766041	0.0	0.0
H	-1.52341	0.255378	-1.344691
H	-0.402444	-0.903903	0.434886
H	0.024261	1.092909	-1.829963
N	-0.441672	1.13213	0.87121
O	-0.462722	2.253701	0.370332
O	-0.640124	0.87976	2.053408
N	-0.038703	-1.025533	-2.189269
H	0.821376	-0.865558	-2.696457
H	-0.763065	-1.241202	-2.860257
F	-2.563228	0.0	0.0
