13

C	0.0	0.0	0.0
C	-0.481578	0.224118	-1.453213
Cl	1.768453	0.0	0.0
H	0.383298	0.464919	-2.080119
H	-0.376355	-0.916693	0.434342
H	-1.161268	1.068014	-1.427136
N	-0.412471	1.083305	0.955023
O	-0.566704	0.751316	2.124808
O	-0.460195	2.232051	0.530165
N	-1.221765	-0.899679	-2.001358
H	-2.025473	-0.891404	-1.346654
H	-0.684362	-1.75	-1.860423
F	-2.543693	0.0	0.0
