13

C	0.0	0.0	0.0
C	-0.370586	-0.009483	-1.542612
Cl	1.763823	0.0	0.0
H	-0.538705	-1.073161	-1.746838
H	-0.408282	-0.824031	0.568368
H	0.539781	0.283701	-2.071529
N	-0.410551	1.239019	0.730476
O	-0.351671	2.301914	0.115769
O	-0.675795	1.124561	1.920525
N	-1.472608	0.744735	-2.077026
H	-2.238416	0.505669	-1.405837
H	-1.26528	1.725437	-1.931476
F	-2.58363	0.0	0.0
