13

C	-0.28969	-0.008398	-1.51833
C	0.0	0.0	0.0
Br	0.483921	1.604958	-2.327374
H	1.097148	0.0	0.0
C	0.344571	-1.172567	-2.140072
N	0.812406	-2.100105	-2.690274
C	-1.720162	-0.0052	-1.830946
N	-2.87629	-0.003334	-2.048376
C	-0.494189	-1.224131	0.601298
N	-0.864428	-2.231247	1.084529
C	-0.54203	1.176472	0.646972
N	-0.952109	2.135717	1.190932
F	2.413662	0.0	0.0
