13

C	-0.39408	0.007699	-1.491604
C	0.0	0.0	0.0
Br	0.386942	-1.562096	-2.374849
H	1.097144	0.0	0.0
C	-1.84509	-0.05994	-1.684839
N	-3.014296	-0.114032	-1.802349
C	0.133613	1.206578	-2.144328
N	0.540308	2.166018	-2.688395
C	-0.502534	-1.185063	0.669071
N	-0.885211	-2.148589	1.224935
C	-0.48784	1.209724	0.638406
N	-0.860385	2.202597	1.148227
F	2.411622	0.0	0.0
