13

C	-0.180626	-0.002219	-1.517075
C	0.0	0.0	0.0
Br	-2.096383	0.001266	-2.084976
H	1.099137	0.0	0.0
C	0.426069	1.194259	-2.100915
N	0.883751	2.152161	-2.605312
C	0.425836	-1.201182	-2.096381
N	0.878542	-2.163923	-2.595808
C	-0.517069	-1.203918	0.610068
N	-0.904323	-2.193512	1.114536
C	-0.517702	1.205807	0.60626
N	-0.905704	2.198252	1.104981
F	2.398888	0.0	0.0
