13

C	-0.359425	0.007835	-1.501293
C	0.0	0.0	0.0
Br	0.43527	-1.567767	-2.362078
H	1.097004	0.0	0.0
C	-1.8035	-0.053043	-1.734156
N	-2.969621	-0.09797	-1.88213
C	0.193516	1.2021	-2.141714
N	0.605338	2.158226	-2.687919
C	-0.512929	-1.184281	0.660707
N	-0.900998	-2.148578	1.21156
C	-0.494076	1.212764	0.626146
N	-0.869531	2.208656	1.128011
F	2.413436	0.0	0.0
