13

C	-0.181622	0.001202	-1.518768
C	0.0	0.0	0.0
Br	-2.095647	0.006261	-2.090149
H	1.099259	0.0	0.0
C	0.429511	1.197455	-2.099658
N	0.895608	2.150144	-2.606241
C	0.424563	-1.196976	-2.100672
N	0.893945	-2.151048	-2.6014
C	-0.519458	-1.20476	0.607073
N	-0.910457	-2.194103	1.109261
C	-0.518074	1.204674	0.608574
N	-0.90753	2.194206	1.111566
F	2.396815	0.0	0.0
