13

C	-0.278522	-0.011342	-1.520579
C	0.0	0.0	0.0
Br	0.478838	1.613	-2.322783
H	1.097355	0.0	0.0
C	0.377819	-1.166284	-2.136428
N	0.84171	-2.103976	-2.672307
C	-1.705577	-0.029064	-1.846268
N	-2.859509	-0.047536	-2.074149
C	-0.492695	-1.225492	0.599761
N	-0.862689	-2.22807	1.0923
C	-0.549189	1.174952	0.643032
N	-0.966847	2.132139	1.18481
F	2.41407	0.0	0.0
