17

C	-0.506477	-0.054425	-1.443163
C	0.0	0.0	0.0
Cl	-0.15779	1.560634	-2.191114
H	1.093555	0.0	0.0
H	-0.356364	0.922444	0.473349
C	0.259284	-1.1049	-2.225651
H	-0.062735	-1.130586	-3.270559
H	1.329786	-0.896016	-2.172894
H	0.072752	-2.078628	-1.765501
C	-2.008988	-0.26302	-1.513465
H	-2.25	-1.224206	-1.055144
H	-2.352388	-0.259048	-2.551133
H	-2.534834	0.531229	-0.975333
N	-0.439791	-1.210319	0.716809
H	0.360245	-1.592118	1.204861
H	-1.139614	-0.97937	1.409112
Cl	3.565191	0.0	0.0
