17

C	-0.372677	0.039289	-1.473409
C	0.0	0.0	0.0
Cl	-2.198512	-0.037587	-1.623621
H	1.096182	0.0	0.0
H	-0.340851	-0.9571	0.420904
C	0.09474	1.328613	-2.116364
H	1.182574	1.379341	-2.008338
H	-0.3452	2.182246	-1.603208
H	-0.170231	1.35379	-3.176472
C	0.201189	-1.179011	-2.173169
H	-0.043828	-1.169833	-3.238066
H	1.287781	-1.163998	-2.04479
H	-0.189554	-2.09982	-1.733894
N	-0.476322	1.167437	0.734164
H	-1.386872	0.981336	1.133392
H	0.172101	1.358843	1.487361
Cl	3.517493	0.0	0.0
