17

C	-0.449443	-0.061777	-1.471099
C	0.0	0.0	0.0
Cl	-0.145642	1.550872	-2.247246
H	1.094197	0.0	0.0
H	-0.317753	-0.952404	0.446462
C	0.40524	-1.083463	-2.200528
H	0.151334	-1.126362	-3.263116
H	1.461694	-0.835457	-2.078324
H	0.236647	-2.070846	-1.758475
C	-1.93481	-0.348552	-1.626804
H	-2.220254	-0.364515	-2.681534
H	-2.163787	-1.324808	-1.186793
H	-2.542237	0.410281	-1.126653
N	-0.491733	1.089735	0.82484
H	-1.478117	1.250284	0.661536
H	0.00456	1.933954	0.569807
Cl	3.609275	0.0	0.0
