15

C	-0.271345	-0.089627	-1.509638
C	0.0	0.0	0.0
Cl	-0.033003	1.599244	-2.241164
H	1.10352	0.0	0.0
N	0.649581	-1.045257	-1.997072
H	0.648451	-1.10045	-3.007294
H	1.585888	-0.8158	-1.628299
C	-1.654745	-0.449439	-1.852326
N	-2.754511	-0.721083	-2.163239
N	-0.504665	-1.239694	0.621618
H	0.080467	-1.979317	0.240306
H	-0.267361	-1.182653	1.608478
C	-0.587551	1.155117	0.649876
N	-1.016148	2.07398	1.244477
H	2.733946	0.0	0.0
