15

C	-0.31508	-0.088177	-1.506226
C	0.0	0.0	0.0
Cl	-0.117559	1.627876	-2.226731
H	1.095703	0.0	0.0
N	0.579025	-1.021736	-2.055841
H	1.521974	-0.836074	-1.694935
H	0.555977	-1.033683	-3.066364
C	-1.715587	-0.432628	-1.781047
N	-2.840901	-0.7029	-1.987007
N	-0.400351	-1.238546	0.654632
H	0.422765	-1.620881	1.108369
H	-1.119916	-1.081344	1.344935
C	-0.542952	1.179121	0.65243
N	-0.974575	2.076132	1.279805
H	2.684943	0.0	0.0
