15

C	-0.426815	-0.029275	-1.447702
C	0.0	0.0	0.0
Cl	-2.364053	-0.305645	-1.493624
H	1.094977	0.0	0.0
N	-0.068667	1.122347	-2.144344
H	-0.367853	1.120122	-3.107961
H	-0.342406	1.970183	-1.666371
C	0.066896	-1.228319	-2.124363
N	0.485991	-2.157395	-2.707909
N	-0.367784	-1.215844	0.686696
H	-1.274583	-1.146158	1.129015
H	0.351494	-1.412629	1.375368
C	-0.462537	1.236033	0.620232
N	-0.829911	2.239769	1.114634
H	2.579538	0.0	0.0
