15

C	-0.539816	-0.031507	-1.434592
C	0.0	0.0	0.0
Cl	0.022172	-1.511936	-2.260483
H	1.094356	0.0	0.0
N	-1.994119	-0.051824	-1.439986
H	-2.324737	-0.079622	-2.399451
H	-2.322053	0.813734	-1.019894
C	-0.004157	1.11202	-2.202099
N	0.316905	2.073796	-2.797678
N	-0.364352	-1.194789	0.73112
H	0.426727	-1.433122	1.320208
H	-1.200209	-1.07898	1.285708
C	-0.471645	1.234408	0.624664
N	-0.884982	2.20366	1.151078
H	2.643316	0.0	0.0
