15

C	-0.534475	-0.017706	-1.437707
C	0.0	0.0	0.0
Cl	0.02065	-1.494965	-2.27225
H	1.094465	0.0	0.0
N	-1.988149	-0.026204	-1.4513
H	-2.312963	0.834264	-1.017635
H	-2.312997	-0.031278	-2.412965
C	0.013131	1.128383	-2.194154
N	0.341044	2.084955	-2.794231
N	-0.371329	-1.199553	0.720949
H	-1.191317	-1.07273	1.295626
H	0.422745	-1.450992	1.302726
C	-0.469683	1.229652	0.633329
N	-0.880591	2.197311	1.164914
H	2.642963	0.0	0.0
