15

C	-0.253669	0.063469	-1.499958
C	0.0	0.0	0.0
Cl	-2.015761	0.405802	-1.900838
H	1.103265	0.0	0.0
N	0.571734	1.110467	-2.011254
H	0.636996	1.065507	-3.020591
H	1.506412	0.982611	-1.593596
C	0.001976	-1.260249	-2.100758
N	0.247794	-2.251237	-2.683939
N	-0.468884	-1.222823	0.611977
H	-1.337413	-1.084945	1.110675
H	0.243617	-1.546582	1.256416
C	-0.449784	1.220741	0.656759
N	-0.821413	2.150516	1.274048
H	2.64926	0.0	0.0
