15

C	-0.270745	-0.061936	-1.511128
C	0.0	0.0	0.0
Cl	-0.032702	1.640916	-2.209967
H	1.103486	0.0	0.0
N	0.651735	-1.00623	-2.016145
H	1.587462	-0.781454	-1.642961
H	0.65162	-1.044988	-3.027098
C	-1.652987	-0.417461	-1.86131
N	-2.749879	-0.694208	-2.177158
N	-0.506065	-1.250314	0.599873
H	-0.272034	-1.209693	1.588162
H	0.081064	-1.983455	0.208069
C	-0.589061	1.142599	0.670517
N	-1.037247	2.036657	1.288488
H	2.735174	0.0	0.0
