15

C	-0.505961	0.14542	-1.412758
C	0.0	0.0	0.0
Cl	-2.438234	-0.094204	-1.370347
H	1.104516	0.0	0.0
N	-0.162337	1.368324	-1.993035
H	-0.366821	2.152694	-1.388419
H	-0.554628	1.496216	-2.914607
C	-0.081747	-0.972175	-2.257459
N	0.232524	-1.819038	-3.007847
N	-0.326859	-1.297271	0.550462
H	-1.165697	-1.282719	1.114121
H	0.468935	-1.596439	1.106688
C	-0.431803	1.142493	0.795033
N	-0.740623	2.075683	1.443882
H	2.559239	0.0	0.0
