15

C	-0.266741	0.387581	-1.452093
C	0.0	0.0	0.0
Cl	-2.040494	0.71159	-1.735184
H	1.10665	0.0	0.0
N	0.491288	1.54977	-1.854762
H	0.195797	2.327722	-1.271052
H	1.461091	1.333245	-1.587306
C	0.085622	-0.742989	-2.325049
N	0.36261	-1.609847	-3.066675
N	-0.47201	-1.317275	0.355907
H	0.239079	-1.76718	0.92221
H	-1.346295	-1.286141	0.864993
C	-0.422789	1.074289	0.89034
N	-0.75438	1.918734	1.64087
H	2.64071	0.0	0.0
