15

C	-0.237604	0.112183	-1.530035
C	0.0	0.0	0.0
Cl	0.005429	1.878797	-2.041072
H	1.10434	0.0	0.0
N	0.6766	-0.779227	-2.132716
H	1.60548	-0.621742	-1.70977
H	0.705286	-0.67481	-3.138607
C	-1.623826	-0.195999	-1.906234
N	-2.736988	-0.492131	-2.141684
N	-0.390898	-1.28042	0.555521
H	0.306858	-1.960263	0.27644
H	-1.29986	-1.57846	0.217526
C	-0.601339	1.087037	0.754458
N	-1.094664	1.932856	1.405032
H	2.694014	0.0	0.0
