11
Coordinates from ORCA-job run
  C   0.50116124886127      0.08128230593710      0.38612245711930
  C   -0.89344255116305      0.29504327069546     -0.24598111210565
  Br  0.30451194464882     -0.76637892353530      2.14221680474697
  H   -0.76166925033103      0.82370495322328     -1.19604767778699
  H   -1.48337954674040      0.92867541277694      0.42151536239696
  C   1.32783776281978     -0.77862755390611     -0.45831299478629
  N   1.97231690664076     -1.46428603542475     -1.16322556437046
  C   1.14377717676806      1.38165808062042      0.57099607658860
  N   1.61797738487773      2.44998198401666      0.69731007225124
  C   -1.58380096009975     -0.96905356249431     -0.47856689108857
  N   -2.14429011628218     -1.98099993190940     -0.67702653296512
