11
Coordinates from ORCA-job run
  C   0.55170822831348     -0.03825421689078      0.31486490728066
  C   -0.70968658434374     -0.48157175357602     -0.46104925843181
  Br  0.36307502195379     -0.51808545711852      2.20602145871023
  H   -0.82297085787303     -1.56308801071078     -0.34911226467568
  H   -0.55537829348384     -0.25904444032704     -1.52218956298413
  C   1.71442763586743     -0.74148066751597     -0.22515043832580
  N   2.61887606790949     -1.32805919441720     -0.69430445652803
  C   0.74266083996913      1.40734165367892      0.21671927498182
  N   0.87875953079320      2.57043819159797      0.11112188646734
  C   -1.90787620347781      0.20089971560097      0.01547457518572
  N   -2.87459538562809      0.75190417967845      0.38860387831968
