11
Coordinates from ORCA-job run
  C   0.56591555561107      0.02076717971495      0.29264899749521
  C   -0.71320430639001     -0.56138373360341     -0.35177096802195
  Br  0.47126328187267     -0.18029458139577      2.23993938995985
  H   -0.60893098280966     -0.49623447711777     -1.43997770982490
  H   -0.79107698711740     -1.61632465223865     -0.07611405503508
  C   1.72520122669575     -0.72652527867796     -0.19301254927979
  N   2.62425995140368     -1.35529331359436     -0.61531355159852
  C   0.70812582610169      1.44038755917359     -0.02437583569589
  N   0.80374597879799      2.57826277376348     -0.30451160570001
  C   -1.90950599851870      0.15825065358455      0.07177962280229
  N   -2.87579354564709      0.73738787039136      0.40070826489878
