11
Coordinates from ORCA-job run
  C   0.53128768848129      0.06591971769669      0.34642060292095
  C   -0.93071789298407      0.25736949651439     -0.11799286980228
  Br  0.56664763427649     -1.01929237466964      1.97807310939677
  H   -1.48725113103966      0.75064278076820      0.68314849422413
  H   -0.92897602631147      0.91625399012322     -0.99277336918693
  C   1.31897732984156     -0.61013175095483     -0.68250563415749
  N   1.92986204758818     -1.14280993887558     -1.53425981571220
  C   1.10962476627332      1.37431597835810      0.64966598624360
  N   1.53121566253286      2.44786353806663      0.87746185758230
  C   -1.56260036027036     -1.01217219514468     -0.46055036416318
  N   -2.07806971838813     -2.02695924188252     -0.74668799734566
