11
Coordinates from ORCA-job run
  C   0.50882906472467      0.06346831716767      0.38056552407263
  C   -0.91250622834002      0.27768770487263     -0.18855934270529
  Br  0.40251117382672     -0.96642174228861      2.04454200808737
  H   -0.83301486750747      0.90892360344221     -1.08000458232204
  H   -1.50865207275594      0.80955015557494      0.55772277911387
  C   1.34337537809735     -0.66849393804498     -0.56999687584735
  N   1.99397489008692     -1.24663330941373     -1.36057918825707
  C   1.10266175431731      1.36554319120659      0.67976068032207
  N   1.53807142430562      2.43482050350951      0.90141065936977
  C   -1.55534358076125     -0.98493491468540     -0.53665297545431
  N   -2.07990693599390     -1.99350957134083     -0.82820868637966
