11
Coordinates from ORCA-job run
  C   0.53307981549627      0.00759807547506      0.34998347187268
  C   -0.71938768399555     -0.53758880838744     -0.37353992905372
  Br  0.22404524262439      0.01171194881655      2.28556446896018
  H   -0.49980309107843     -0.59270793421177     -1.44511406279952
  H   -0.91692973124443     -1.54961077016660     -0.01022508534597
  C   1.66767425430058     -0.86983815234586      0.06587736878584
  N   2.55048294686917     -1.60263147656144     -0.19021763495736
  C   0.82843115296335      1.37308390702205     -0.07912213278132
  N   1.05057472852172      2.46511235235373     -0.45406799727823
  C   -1.88652112035825      0.31003505345831     -0.15422462208387
  N   -2.83264651409882      0.98583580454741      0.00608615468128
