11
Coordinates from ORCA-job run
  C   0.48124725448445      0.07238406319025      0.41130668234747
  C   -0.88508814365974      0.29397081325232     -0.27730376360505
  Br  0.21362248409711     -0.83735413336443      2.12654518557222
  H   -1.51230849893849      0.89832317963701      0.38321473844260
  H   -0.71586424931644      0.85625803711925     -1.20170495453932
  C   1.35631014060574     -0.74899973651360     -0.42275212871424
  N   2.04293807936385     -1.39883624936976     -1.12166305327050
  C   1.09961866660355      1.37194392860820      0.67037008107698
  N   1.55345670123083      2.44013442457516      0.85772860901469
  C   -1.54881523073942     -0.96854306218672     -0.58390016882774
  N   -2.08511720373143     -1.98028126494768     -0.84084122749709
