11
Coordinates from ORCA-job run
  C   0.57355656835867     -0.01962607378298      0.42775128179719
  C   -0.90206978560573     -0.45352109044524      0.27547344123798
  Br  1.22006793366358     -0.68811836053159      2.15622295179719
  H   -1.47569773039890     -0.03648647899622      1.10718973870149
  H   -0.95221412048326     -1.54390146899627      0.33366466881137
  C   1.39652766023899     -0.60245310576331     -0.62989105253675
  N   2.03153628820666     -1.09021940057767     -1.49074217676540
  C   0.68872530017936      1.43722022570898      0.42363274381596
  N   0.74847934165736      2.61156455528030      0.42175137937492
  C   -1.44910724957398      0.00837839945347     -0.99807005005735
  N   -1.87980420624276      0.37716279865050     -2.02598292617659
