11
Coordinates from ORCA-job run
  C   0.55611497484015      0.02083545515113      0.45074039218197
  C   -0.89042469687892     -0.48712942596537      0.25436030031033
  Br  1.15677397977246     -0.55090123892168      2.22948567137563
  H   -0.89323626442825     -1.57617869249023      0.34809715640046
  H   -1.51689440693655     -0.07061679267643      1.04738266118655
  C   1.44922747798345     -0.56217120021972     -0.54854736545777
  N   2.14315524111786     -1.05164024501225     -1.36172921857238
  C   0.60483461024950      1.48037269392729      0.39306761110966
  N   0.60919375082437      2.65521385794660      0.34694035092604
  C   -1.40509695197087     -0.09092561265548     -1.05434595034355
  N   -1.81264771457320      0.23314120091614     -2.10645160911691
