11
Coordinates from ORCA-job run
  C   0.55295868130452      0.11766902589356      0.29328701869377
  C   -0.96800189586045      0.10024376876213      0.01735862021044
  Br  0.97344392469190     -1.13650070944200      1.73967898647017
  H   -1.18602856614836      0.85033772720435     -0.75019227599115
  H   -1.49000900836350      0.38474446727833      0.93474331185989
  C   1.30184137850692     -0.27540602740555     -0.89867578005216
  N   1.87709330168000     -0.58396374541791     -1.87653103694626
  C   0.94492391143939      1.46047853169830      0.71916483457954
  N   1.21532386112852      2.55430357473851      1.05469795423115
  C   -1.42335871090344     -1.21091613548683     -0.43230717638851
  N   -1.79918687747551     -2.25999047782289     -0.80022445666687
