11
Coordinates from ORCA-job run
  C   0.56848693243864      0.00833169262160      0.28764865401207
  C   -0.73745754311334     -0.54450471726954     -0.32788096103299
  Br  0.48076718953745     -0.12036777027176      2.24135065855122
  H   -0.85358795209083     -1.58624184625948     -0.01788977030469
  H   -0.64021531128552     -0.51776040815715     -1.41828033788352
  C   1.69464347824464     -0.80015491289046     -0.17761761870971
  N   2.56953206136686     -1.47513458051240     -0.57897033350110
  C   0.76297333421614      1.40925841012804     -0.08096881214680
  N   0.89807022326371      2.53155953339503     -0.40435985983506
  C   -1.90169314741408      0.23417346530172      0.08079205404402
  N   -2.84251926516367      0.86084113391439      0.39617632680657
