11
Coordinates from ORCA-job run
  C   0.55881874170895      0.00916871763579      0.30729117303346
  C   -0.71626027509402     -0.53960868168478     -0.37356624226938
  Br  0.40292615775756     -0.18407627532337      2.25115793645710
  H   -0.82490303484026     -1.59448710381396     -0.10755300084124
  H   -0.58201969459294     -0.46962356438513     -1.45831580130167
  C   1.71041166547412     -0.77143673546795     -0.14249178641113
  N   2.60373501070914     -1.42834328267610     -0.53339404776939
  C   0.74791691334593      1.42329851776478     -0.00905146755728
  N   0.87925589215676      2.55702966510351     -0.29199841308926
  C   -1.90748080054855      0.20312102235365      0.02409805523367
  N   -2.87140057607668      0.79595772049356      0.33482359451511
