11
Coordinates from ORCA-job run
  C   0.51147526355047      0.11339361675478      0.36233300065417
  C   -0.95205441914082      0.14791454699807     -0.13458328808826
  Br  0.64353829767285     -1.04043534522415      1.94103263040600
  H   -1.58312879211273      0.53132936443474      0.67146718320502
  H   -1.01114717700971      0.84277417987758     -0.97894886880879
  C   1.39941941828694     -0.40875276007875     -0.67454327616168
  N   2.09033716246986     -0.82091037337289     -1.53199403969518
  C   0.91659184712900      1.46541962581480      0.74459241917620
  N   1.19517825926551      2.56904919375502      1.03873264362749
  C   -1.41551234493293     -1.17192502219856     -0.54912673975640
  N   -1.79569751517843     -2.22885702676064     -0.88896166455856
