11
Coordinates from ORCA-job run
  C   0.50999567320878      0.16818954417150      0.34277659272302
  C   -0.93341196942083      0.18231671584904     -0.21048762042794
  Br  0.50218474026298     -0.51037532170906      2.18170685052643
  H   -1.54619164162878      0.81759615774660      0.43433423345858
  H   -0.91255044239149      0.62544470561662     -1.21175637120784
  C   1.36961578279453     -0.69128643398490     -0.46865420297203
  N   2.04114219044043     -1.37998842517304     -1.14481995840708
  C   1.02865172261130      1.53529083320773      0.35805263598033
  N   1.40345194833680      2.64950385001823      0.34931522624442
  C   -1.50042304835021     -1.16017812044682     -0.27973971160084
  N   -1.96046495586351     -2.23751350529589     -0.34972767431705
