11
Coordinates from ORCA-job run
  C   0.55320954834631      0.02755637538202      0.45386181696394
  C   -0.89588206701958     -0.47396057602555      0.25946060917874
  Br  1.13875221959443     -0.51097785987055      2.24787145315134
  H   -1.52379795664636     -0.03503912412386      1.03916176510134
  H   -0.90739144935025     -1.56063469789173      0.37736277586352
  C   1.44815707078092     -0.58222532192391     -0.52752892974649
  N   2.14144939749830     -1.09402198293809     -1.32743839416830
  C   0.61264970897513      1.48518957919320      0.36635470599580
  N   0.62631337807288      2.65882265466330      0.29686182507801
  C   -1.39877803887898     -0.10505197797168     -1.06175283325502
  N   -1.79468181137280      0.19234293150685     -2.12621479416288
