11
Coordinates from ORCA-job run
  C   0.57616929844306      0.00045918936994      0.42414565581284
  C   -0.89100854671096     -0.46648811244615      0.28945764443399
  Br  1.24157842521047     -0.60860350928828      2.16738835165889
  H   -1.46835709678133     -0.04385640657947      1.11588330078582
  H   -0.91874270378243     -1.55620320873162      0.37056279031237
  C   1.40734411416625     -0.59380938753772     -0.62073591762459
  N   2.05135541683491     -1.09141654704317     -1.46933682628916
  C   0.66251161124397      1.45868909217221      0.38052238266326
  N   0.70007656464444      2.63340380487474      0.34650542656522
  C   -1.45544833419031     -0.03995995080163     -0.98885084063086
  N   -1.90447874907808      0.30978503601115     -2.01554196768777
