11
Coordinates from ORCA-job run
  C   0.56747726556837      0.03172481893729      0.28889907955290
  C   -0.72057131222559     -0.56999158287435     -0.31870246290481
  Br  0.47799135481602     -0.05951999436207      2.24447030496617
  H   -0.62157382555285     -0.56080452317969     -1.40933501962255
  H   -0.80716631804662     -1.60884155504099      0.01037647174130
  C   1.71707497513709     -0.75431543734026     -0.15705476419272
  N   2.61092644246894     -1.41462649200934     -0.54055615401197
  C   0.72405644993285      1.42924145024154     -0.10926178645028
  N   0.82893149880275      2.54543333511292     -0.46384568503626
  C   -1.90804268314288      0.18101122478087      0.07419401849469
  N   -2.86910384775808      0.78068875573407      0.38081599746353
