11
Coordinates from ORCA-job run
  C   0.57855410443270      0.05304508057209      0.26331305824543
  C   -0.73374746375745     -0.59125423379798     -0.23994289041494
  Br  0.56305134094229      0.13433433274329      2.22121182794171
  H   -0.67563792148429     -0.68079862378787     -1.32983810636052
  H   -0.81151470925892     -1.59579539163780      0.18424538829889
  C   1.70669124587554     -0.77765433080045     -0.15550954858189
  N   2.58126576100581     -1.47553879366618     -0.51636899773468
  C   0.72455975160248      1.40965982515452     -0.26050021307175
  N   0.81973594691361      2.49310188989631     -0.70691013232063
  C   -1.90317741350202      0.19993080384344      0.12776792756428
  N   -2.84978064276974      0.83196944148062      0.41353168643411
