11
Coordinates from ORCA-job run
  C   0.61883313824907      0.01452084483706     -0.14922795139340
  C   -0.77200490754752     -0.55134728941045      0.21844282180399
  Br  0.99794336491587     -0.34659810970548     -2.03784230059050
  H   -0.77038992837810     -1.62755166070478      0.02670071020345
  H   -0.93456117257692     -0.39228253947925      1.28970968074784
  C   0.66704468952920      1.45870880601545      0.07055282998075
  N   0.68173028440541      2.61683540761551      0.27265272588426
  C   1.63515783748817     -0.65490183008604      0.66158835531957
  N   2.41630355129659     -1.21670527865216      1.33703384980501
  C   -1.83788646499734      0.09222233383205     -0.54200060985988
  N   -2.70217039238443      0.60809931573808     -1.14561011190111
