11
Coordinates from ORCA-job run
  C   0.57106274696214      0.00268493982327      0.43118903197885
  C   -0.90524771429040     -0.43294310986134      0.29175363802373
  Br  1.19845307629120     -0.56557910787771      2.20222889640040
  H   -0.96095991964446     -1.51802484331861      0.41166359868398
  H   -1.48313741194083      0.03318896194350      1.09403702547519
  C   1.40065929668389     -0.64561754603017     -0.58229181271537
  N   2.04259920895403     -1.18852789728559     -1.40412190509178
  C   0.69308108774618      1.45630341314596      0.34293760321830
  N   0.75725748779061      2.62836713112876      0.27672719879961
  C   -1.44257026348254     -0.04155294400904     -1.00921742676260
  N   -1.87319759506983      0.27370100234098     -2.05490584801030
