11
Coordinates from ORCA-job run
  C   0.52814907394627      0.02034952405803      0.35678620280426
  C   -0.73433137484290     -0.54200292109723     -0.33589919546780
  Br  0.19194418319093      0.21638972139143      2.27781370039467
  H   -0.50254273785634     -0.70109854503318     -1.39434330432071
  H   -0.97428109800370     -1.50940694957017      0.11295409996219
  C   1.63025304894487     -0.92349146217567      0.17572903639967
  N   2.48279219746857     -1.71459840427696      0.00403401708138
  C   0.88361024363281      1.32753204125333     -0.19175811571656
  N   1.15368115497380      2.37056770916417     -0.66239099023838
  C   -1.87054662028026      0.36476366512264     -0.21267740537914
  N   -2.78772807117405      1.09199562116360     -0.12724804551959
