11
Coordinates from ORCA-job run
  C   0.57639765072754     -0.01166352275732      0.42341789294206
  C   -0.89825299187417     -0.45409127382137      0.28681176151565
  Br  1.23390661826043     -0.64477831354112      2.16120425258844
  H   -0.94368897617620     -1.54375778178390      0.35976631788197
  H   -1.46790130980070     -0.02831173026061      1.11691198485170
  C   1.39667523666388     -0.61182032706688     -0.62671654506470
  N   2.03069715577235     -1.11564926147015     -1.47910550011210
  C   0.68553426244100      1.44530681856278      0.39112479967661
  N   0.74185580098785      2.61949511285114      0.36720188423530
  C   -1.45641741278998     -0.00899200899624     -0.98788443879754
  N   -1.89880603421200      0.35426228828366     -2.01273240971739
