11
Coordinates from ORCA-job run
  C   0.54712013885919      0.03065157610160      0.32599860139805
  C   -0.74022486022908     -0.55918355177066     -0.29484870423948
  Br  0.31937369388780      0.21268193878130      2.26375453204723
  H   -0.93268143331625     -1.53221252977131      0.16499375168889
  H   -0.56557460165035     -0.71210646062443     -1.36521496392544
  C   1.65904585532813     -0.88510903922141      0.07540697522168
  N   2.52179529992721     -1.65057386413168     -0.15215162654267
  C   0.83816999863596      1.34767345107288     -0.23681973120567
  N   1.05320045319655      2.39892306788589     -0.71739856257436
  C   -1.88759278910311      0.32152772136958     -0.10352048993059
  N   -2.81463175553605      1.02672769030824      0.04080021806237
