11
Coordinates from ORCA-job run
  C   0.50697080765385      0.13520232482361      0.36237692299829
  C   -0.92186281613434      0.21885605635616     -0.22248671983660
  Br  0.43700079835613     -0.63654339973440      2.16221605495303
  H   -1.53215398240644      0.83816751250049      0.44028574844739
  H   -0.86420791777694      0.71177980912384     -1.19884025919056
  C   1.36157152473029     -0.70491120646785     -0.47422010006478
  N   2.02767001486603     -1.37495852513540     -1.17398251189320
  C   1.06113514849837      1.48474873534963      0.45946417003539
  N   1.46483526591502      2.58740517892897      0.51629439404292
  C   -1.52515638476077     -1.10117760141198     -0.37161334552882
  N   -2.01580245894121     -2.15956888433307     -0.50049435396305
