11
Coordinates from ORCA-job run
  C   0.55359222283362      0.00864954525442      0.45408258062486
  C   -0.90150837455513     -0.46970073249834      0.24719286962328
  Br  1.13309737290873     -0.58441058716121      2.23302506132353
  H   -0.92689567982434     -1.55869329225649      0.33884307712225
  H   -1.52462355074909     -0.04202055793835      1.03700601291461
  C   1.44103481266124     -0.58595134975452     -0.54323732321899
  N   2.12902342807235     -1.08479669536062     -1.35581930600173
  C   0.63076667213874      1.46726268032277      0.40551600703198
  N   0.65721233332065      2.64210812748526      0.36672987591511
  C   -1.39912978916833     -0.06160565415671     -1.06441706468329
  N   -1.79156944763844      0.27015851606381     -2.11992179065160
