11
Coordinates from ORCA-job run
  C   0.57786851219574      0.05830019799161      0.26248292669024
  C   -0.96262492235517      0.01169773147075      0.14100976973370
  Br  1.21615915645293     -1.56054155895465      1.16397047538826
  H   -1.29961420129775      0.95097234520011     -0.31011519053486
  H   -1.38752678517431     -0.05954699844408      1.14566563520052
  C   1.20075632196045      0.13597082952186     -1.05745424228891
  N   1.67186842177722      0.21128131681969     -2.13204850357357
  C   0.95668349389119      1.21658255292015      1.07079160475741
  N   1.21346156193841      2.16063157421689      1.72263284007036
  C   -1.40922253988736     -1.11329751277614     -0.67352945295468
  N   -1.77780901950136     -2.01105047796620     -1.33340586248847
