11
Coordinates from ORCA-job run
  C   0.54689641607162      0.03246007564699      0.32573653102002
  C   -0.73736005458305     -0.55861318874112     -0.29996108483980
  Br  0.31184425387968      0.21540776445635      2.26288765700757
  H   -0.56131412229101     -0.70441581624435     -1.37082869863508
  H   -0.92636602651952     -1.53492988572475      0.15383268855126
  C   1.66054116910007     -0.88300856650514      0.08057246222435
  N   2.52385289253308     -1.64773617764677     -0.14703599572150
  C   0.83932813602137      1.34945468648581     -0.23674804964973
  N   1.05211621481110      2.40200759595347     -0.71557034590913
  C   -1.88872062780269      0.31556539311359     -0.10349069849833
  N   -2.81981825122065      1.01280811920594      0.05060553445038
