11
Coordinates from ORCA-job run
  C   0.56204987781761     -0.00054296551346      0.44339136775346
  C   -0.89815692872747     -0.47123147469637      0.25642221125504
  Br  1.17323974154002     -0.62718935281457      2.20054268929059
  H   -1.50437913242973     -0.05691919874207      1.06615627785936
  H   -0.92464904571805     -1.56165806666639      0.32815062655679
  C   1.42854143428310     -0.58032010756884     -0.58081224970413
  N   2.09935027630553     -1.06681833893665     -1.41491658062450
  C   0.64347117878261      1.45838724828168      0.41924078122039
  N   0.67502929141415      2.63356668703551      0.39944877975583
  C   -1.42085483611774     -0.03866561043997     -1.03744169942844
  N   -1.83364185715004      0.31139118006113     -2.07918220393440
