16

C	0.0	0.0	0.0
C	-0.353518	0.057097	-1.490445
F	1.392731	0.0	0.0
H	0.037275	-0.844118	-1.971059
H	-0.314777	0.930467	0.480856
C	-0.601827	-1.197579	0.674148
H	-0.287702	-2.122008	0.180655
H	-1.688456	-1.094481	0.617729
H	-0.30492	-1.240781	1.723908
N	0.487203	1.171515	-2.087893
O	1.264979	0.888338	-2.995912
O	0.305081	2.298885	-1.634658
N	-1.697002	0.298054	-1.892331
H	-2.19895	0.903771	-1.250326
H	-2.239289	-0.555768	-1.90344
Cl	-4.214784	0.0	0.0
