16

C	0.0	0.0	0.0
C	-0.492223	0.053277	-1.43612
F	1.395793	0.0	0.0
H	-1.586857	0.008488	-1.408186
H	-0.331253	0.939294	0.448192
C	-0.481801	-1.177485	0.808977
H	-0.073669	-2.11015	0.416995
H	-0.149552	-1.055369	1.842544
H	-1.572438	-1.204693	0.776469
N	-0.033271	-1.227606	-2.144271
O	0.994135	-1.167364	-2.824434
O	-0.704363	-2.242779	-1.978804
N	-0.006048	1.221259	-2.088411
H	0.999904	1.160017	-2.179026
H	-0.411228	1.308997	-3.010386
Cl	-3.728638	0.0	0.0
