16

C	0.0	0.0	0.0
C	-0.501688	-0.012609	-1.444674
F	1.388509	0.0	0.0
H	-1.509296	-0.440192	-1.449319
H	-0.339056	0.951023	0.414219
C	-0.456351	-1.15799	0.854601
H	-0.045839	-2.091012	0.468538
H	-1.545071	-1.196453	0.861459
H	-0.091525	-1.007296	1.874194
N	0.358834	-0.957395	-2.237745
O	1.088225	-0.506113	-3.119893
O	0.284023	-2.146748	-1.940279
N	-0.431975	1.319397	-2.014983
H	-1.367509	1.705321	-1.956785
H	-0.162145	1.256907	-2.987857
Cl	-3.640694	0.0	0.0
