16

C	0.0	0.0	0.0
C	-0.474461	-0.110014	-1.439762
F	1.3958	0.0	0.0
H	-1.569556	-0.135944	-1.426136
H	-0.33447	0.982005	0.340547
C	-0.476816	-1.088392	0.927679
H	-0.026969	-2.045495	0.658712
H	-0.180116	-0.837295	1.948794
H	-1.564576	-1.154221	0.87155
N	-0.026214	-1.473372	-1.981468
O	-0.721148	-2.449653	-1.713084
O	1.016545	-1.512535	-2.639531
N	0.047251	0.964084	-2.214575
H	-0.314573	0.933344	-3.158099
H	1.055826	0.888737	-2.250246
Cl	-3.711015	0.0	0.0
