16

C	0.0	0.0	0.0
C	-0.505027	-0.081668	-1.437828
F	1.394083	0.0	0.0
H	-1.589688	-0.217157	-1.393357
H	-0.334103	0.969425	0.381859
C	-0.472684	-1.115344	0.900194
H	-0.08898	-0.947598	1.909929
H	-0.103389	-2.077193	0.540544
H	-1.563684	-1.122241	0.915575
N	0.073622	-1.326821	-2.058712
O	1.1667	-1.229609	-2.612544
O	-0.562248	-2.372788	-1.929354
N	-0.158233	1.035035	-2.274037
H	0.762628	1.378302	-2.033195
H	-0.845061	1.763477	-2.131784
Cl	-3.694403	0.0	0.0
