16

C	0.0	0.0	0.0
C	-0.392534	-0.081214	-1.496177
F	1.397349	0.0	0.0
H	0.458322	-0.582627	-1.972549
H	-0.327443	0.940536	0.446208
C	-0.504706	-1.1812	0.786944
H	-0.166539	-2.118231	0.335206
H	-0.116261	-1.129739	1.806645
H	-1.59586	-1.156352	0.81651
N	-0.321776	1.340811	-2.085458
O	0.540205	2.080393	-1.610621
O	-1.071795	1.63874	-3.003667
N	-1.597096	-0.696472	-1.910658
H	-2.411404	-0.401123	-1.360496
H	-1.511677	-1.700865	-1.852099
Cl	-4.058667	0.0	0.0
