16

C	0.0	0.0	0.0
C	-0.393546	-0.27045	-1.475222
F	1.397441	0.0	0.0
H	0.469534	-0.805013	-1.889563
H	-0.329264	0.989121	0.323595
C	-0.505514	-1.070887	0.93077
H	-0.175429	-2.058767	0.596669
H	-1.595863	-1.035774	0.965506
H	-0.107027	-0.897533	1.933436
N	-0.359881	1.071828	-2.223433
O	0.54355	1.84421	-1.899944
O	-1.184089	1.286812	-3.100595
N	-1.584435	-0.959431	-1.810932
H	-2.406281	-0.595201	-1.315588
H	-1.486209	-1.941542	-1.597132
Cl	-4.039496	0.0	0.0
