16

C	0.0	0.0	0.0
C	-0.309262	0.156737	-1.52478
Br	2.002845	0.0	0.0
H	0.31655	-0.577362	-2.030587
N	-0.459399	1.116362	0.753757
H	-1.49038	1.017661	0.633314
H	-0.234887	0.949844	1.729881
N	-0.458733	-1.325344	0.328378
H	-1.487511	-1.150751	0.336083
H	-0.161322	-1.534737	1.27762
N	0.149798	1.491622	-2.066589
O	1.159708	1.480642	-2.770201
O	-0.522699	2.47911	-1.80046
C	-1.675702	-0.030969	-2.037509
N	-2.485215	-0.194194	-2.877811
F	-2.698443	0.0	0.0
