16

C	0.0	0.0	0.0
C	-0.299389	0.097983	-1.532072
Br	2.003499	0.0	0.0
H	0.356519	-0.628553	-2.008595
N	-0.463196	1.147611	0.706619
H	-0.245498	1.008515	1.68954
H	-1.494065	1.029585	0.580847
N	-0.461963	-1.310697	0.375374
H	-1.492244	-1.133508	0.372363
H	-0.168323	-1.484553	1.333287
N	0.119183	1.429975	-2.109822
O	-0.59836	2.398414	-1.893387
O	1.143842	1.433839	-2.793036
C	-1.649809	-0.163871	-2.049112
N	-2.470289	-0.426758	-2.850224
F	-2.704893	0.0	0.0
