16

C	0.0	0.0	0.0
C	-0.346315	-0.04205	-1.521448
Br	1.949087	0.0	0.0
H	0.234935	-0.869368	-1.929697
N	-0.478995	1.176244	0.640312
H	-1.501858	1.083153	0.496015
H	-0.29915	1.040423	1.630508
N	-0.463468	-1.196971	0.650658
H	-0.18089	-2.027318	0.138839
H	-1.493635	-1.069346	0.589744
N	0.148081	1.140947	-2.333162
O	-0.131622	2.270738	-1.960269
O	0.768747	0.854185	-3.359253
C	-1.733605	-0.263591	-1.976334
N	-2.518354	-0.540196	-2.813349
F	-2.732137	0.0	0.0
