16

C	0.0	0.0	0.0
C	-0.08045	-0.061582	-1.5928
Br	2.15659	0.0	0.0
H	0.557727	0.722254	-1.998322
N	-0.494398	1.187293	0.532708
H	-1.527612	0.992969	0.557422
H	-0.322895	1.959056	-0.098722
N	-0.504323	-1.109036	0.672363
H	-0.248231	-1.969252	0.20421
H	-1.542899	-0.938029	0.608159
N	-1.452099	0.270736	-2.161231
O	-2.144769	-0.635722	-2.596131
O	-1.695726	1.471786	-2.22206
C	0.328209	-1.359669	-2.112635
N	0.666582	-2.414271	-2.505189
F	-2.735193	0.0	0.0
