16

C	0.0	0.0	0.0
C	-0.68268	-0.008667	-1.366819
Br	1.966198	0.0	0.0
H	-1.796616	-0.003461	-1.021264
N	-0.559206	1.119187	0.665655
H	-0.24076	1.151396	1.628255
H	-1.585948	0.88926	0.6245
N	-0.361468	-1.286632	0.60126
H	0.291483	-2.011192	0.335526
H	-0.367701	-1.185952	1.606102
N	-0.483083	-1.270367	-2.144968
O	0.664511	-1.718552	-2.259488
O	-1.475465	-1.750422	-2.685562
C	-0.358927	1.094345	-2.249598
N	-0.199652	1.918668	-3.076436
F	-2.89975	0.0	0.0
