15

C	0.0	0.0	0.0
C	-0.412664	-0.344749	-1.454252
Cl	1.869133	0.0	0.0
H	0.422046	-0.135833	-2.12547
H	-0.596461	-1.432121	-1.486681
N	-0.402833	1.285832	0.48679
H	-1.412185	1.221162	0.62072
H	-0.262799	1.964986	-0.252656
N	-0.495607	-0.959964	0.90018
H	-0.254791	-0.724278	1.852111
H	-0.216762	-1.90079	0.667841
N	-1.53795	0.479142	-1.860385
H	-2.362326	0.271864	-1.287704
H	-1.780543	0.245975	-2.815781
Cl	-4.220294	0.0	0.0
