15

C	0.0	0.0	0.0
C	-0.425683	-0.095256	-1.474308
Cl	1.846636	0.0	0.0
H	0.258164	0.51047	-2.07239
H	-0.287722	-1.147273	-1.776047
N	-0.431511	1.235706	0.554745
H	-0.684215	1.129873	1.528187
H	-1.255021	1.524696	0.029591
N	-0.484805	-1.138681	0.709588
H	-0.068601	-1.992903	0.361139
H	-0.299011	-1.064352	1.701982
N	-1.761103	0.442981	-1.617611
H	-2.063475	0.440591	-2.581547
H	-2.476539	-0.027502	-1.059263
Cl	-4.626238	0.0	0.0
