15

C	0.0	0.0	0.0
C	-0.40388	-0.028945	-1.468516
Cl	1.884884	0.0	0.0
H	-1.497364	0.013858	-1.434129
H	-0.022777	0.871677	-1.972553
N	-0.449509	1.185158	0.607437
H	-0.057805	2.013294	0.185368
H	-0.272952	1.164519	1.602222
N	-0.463214	-1.108491	0.764755
H	-1.478185	-0.966301	0.815063
H	-0.30677	-1.939122	0.202974
N	0.016794	-1.281382	-2.089196
H	0.976448	-1.208705	-2.402315
H	-0.571456	-1.47068	-2.889846
Cl	-3.80223	0.0	0.0
