15

C	0.0	0.0	0.0
C	-0.328716	-0.388778	-1.460352
Cl	1.847983	0.0	0.0
H	0.057396	-1.40365	-1.621517
H	0.256217	0.267885	-2.111969
N	-0.45051	1.290149	0.437281
H	-0.18275	1.999024	-0.23413
H	-1.467945	1.240794	0.488243
N	-0.532691	-0.94568	0.892834
H	-0.373149	-0.684116	1.855305
H	-0.220729	-1.886112	0.706144
N	-1.711965	-0.331315	-1.855095
H	-2.327766	-0.786731	-1.185511
H	-2.045118	0.624164	-1.868146
Cl	-4.365912	0.0	0.0
