15

C	0.0	0.0	0.0
C	-0.422821	-0.007438	-1.47756
Cl	1.846333	0.0	0.0
H	0.258274	-0.659414	-2.028759
H	-0.276067	1.019302	-1.854211
N	-0.483269	1.18638	0.627991
H	-0.299645	1.181123	1.62341
H	-0.066765	2.014313	0.2217
N	-0.433682	-1.19331	0.639215
H	-1.25586	-1.518523	0.133801
H	-0.688558	-1.020239	1.602362
N	-1.761031	-0.546697	-1.587294
H	-2.475099	-0.040032	-1.06025
H	-2.062049	-0.60498	-2.54989
Cl	-4.634453	0.0	0.0
