15

C	0.0	0.0	0.0
C	-0.418944	0.035386	-1.479454
Cl	1.846493	0.0	0.0
H	-0.278836	-0.985538	-1.873412
H	0.26674	0.693849	-2.017607
N	-0.433678	1.182161	0.659989
H	-0.708811	0.985868	1.613184
H	-1.245403	1.52526	0.1486
N	-0.485583	-1.195517	0.605442
H	-0.293913	-1.214132	1.599371
H	-0.076988	-2.016426	0.178486
N	-1.754229	0.585059	-1.581226
H	-2.468766	0.072376	-1.059202
H	-2.056545	0.648289	-2.543042
Cl	-4.606856	0.0	0.0
