15

C	0.0	0.0	0.0
C	-0.376856	0.165215	-1.466276
Cl	1.909348	0.0	0.0
H	-1.469571	0.205153	-1.465732
H	0.020313	1.123812	-1.821595
N	-0.433722	1.137395	0.740231
H	-1.448529	1.188073	0.608104
H	-0.265454	0.942624	1.722539
N	-0.391676	-1.244589	0.584908
H	-0.204967	-1.973746	-0.096153
H	-1.407779	-1.175662	0.688752
N	0.051065	-0.995448	-2.245143
H	-0.529446	-1.078034	-3.067678
H	1.01131	-0.873465	-2.540369
Cl	-3.611393	0.0	0.0
