15

C	0.0	0.0	0.0
C	-0.389612	0.112732	-1.469487
Cl	1.885384	0.0	0.0
H	-1.482964	0.185996	-1.461394
H	0.039838	1.042817	-1.86843
N	-0.395829	1.095612	0.836804
H	-1.41906	1.061852	0.846323
H	-0.089073	1.968434	0.422209
N	-0.499686	-1.180554	0.523005
H	-0.228259	-1.357312	1.476006
H	-0.390576	-1.959062	-0.10792
N	0.00478	-1.087955	-2.203946
H	0.971742	-1.014293	-2.495149
H	-0.577137	-1.19526	-3.023503
Cl	-3.864818	0.0	0.0
