16

C	-0.787926	0.048493	-1.467373
C	0.103711	-0.049319	-0.24757
Cl	-0.596255	-1.301976	-2.626568
H	1.14691	-0.075201	-0.585083
H	-1.84407	0.10061	-1.207745
N	-0.505722	1.32556	-2.210874
O	0.634278	1.501116	-2.616827
O	-1.455177	2.090117	-2.365292
C	-0.18457	-1.30346	0.572109
H	-1.229338	-1.304107	0.908248
H	0.007527	-2.231353	0.025454
H	0.466892	-1.249606	1.446532
N	-0.0719	1.193628	0.480225
H	0.777238	1.227245	1.123116
H	-0.873259	1.088043	1.099625
H	2.04242	0.820621	1.998514
