16

C	-0.571443	-0.110941	-1.544221
C	0.11882	-0.033348	-0.18493
Cl	-2.338724	-0.015445	-1.447154
H	1.201044	-0.118902	-0.390686
H	-0.227034	0.710936	-2.165487
N	-0.169594	-1.372239	-2.266895
O	0.89783	-1.289624	-2.874512
O	-0.846131	-2.389258	-2.154522
C	-0.265727	-1.154041	0.772776
H	-1.319857	-1.079032	1.056599
H	0.355635	-1.016167	1.659804
H	-0.089979	-2.153634	0.363182
N	-0.072271	1.304942	0.329388
H	0.794236	1.450891	0.924597
H	-0.870172	1.299406	0.95903
H	2.190647	1.149376	1.654292
