16
Coordinates from ORCA-job run
  C   0.90698985135743     -0.11779921478479     -0.45754853330891
  C   -0.53932903807732     -0.47751775741916     -0.04911775977385
  Cl  1.35073662835792     -1.14260489693537     -1.90999002007292
  H   -0.53646711671577     -1.56416975870032      0.09895386648530
  N   1.81062423778388     -0.29676270120560      0.62928669022809
  H   2.75627769384716     -0.05052420319533      0.36239255113484
  H   1.80176161184005     -1.26570938248093      0.92866710099232
  C   0.95127341085994      1.27761505089594     -0.90610325962499
  N   0.94483656091614      2.40726257578536     -1.22743977274801
  N   -1.42321427084476     -0.18062639701804     -1.16306909076402
  H   -2.21609733205604     -0.80685968549217     -1.17082787476951
  H   -1.77049868121592      0.76880586553189     -1.09431162868222
  C   -0.92673043548310      0.22409448292402      1.25139846834286
  H   -0.88346008682220      1.30963233490597      1.12111117492046
  H   -0.27242047648505     -0.03935568200665      2.08153391275088
  H   -1.95428255726236     -0.04648063080481      1.50606417488969
