16
Coordinates from ORCA-job run
  C   0.86813184321688     -0.09644029259399     -0.43985276293311
  C   -0.56975578558342     -0.41370932777208      0.00263198377446
  Cl  1.18086892560369     -1.05853544602921     -1.99573401707724
  H   -0.57165461173178     -1.49442428552295      0.22870268925101
  N   1.80088740806128     -0.42068258546202      0.57803705379944
  H   2.74852809457188     -0.19110194603481      0.30561090946241
  H   1.74882120814456     -1.40652170901496      0.80664221192280
  C   1.00345558337621      1.31435478312384     -0.80801394233705
  N   1.14755738812216      2.45338711890665     -1.05395201260797
  N   -1.48400408019349     -0.03806281892959     -1.06017879262959
  H   -1.45070439195287     -0.69917460894810     -1.82517168585856
  H   -2.43102744871661     -0.00877259361899     -0.70502616952804
  C   -0.92260691888420      0.36822996752513      1.26029752387084
  H   -1.91442301871885      0.06702548661577      1.60935127240104
  H   -0.20377978416134      0.18818518238802      2.05741512531438
  H   -0.94829441115411      1.43724307536728      1.03724061317519
