16
Coordinates from ORCA-job run
  C   0.92687902952742     -0.28149808482331     -0.33844400642829
  C   -0.59852339017563     -0.35147819616631     -0.10127453377974
  Cl  1.66700154674321     -1.89295028153894     -0.05096382271267
  H   -0.97619325697458     -1.15770705770385     -0.74557719523146
  N   1.50825459229238      0.67559683387760      0.55585453410766
  H   2.47958782157801      0.84800588720940      0.32638558707186
  H   0.97219375527775      1.53366867012451      0.45996166121154
  C   1.15193548138196      0.02110916540822     -1.76734194702156
  N   1.29158744577968      0.32743380540995     -2.89396471237702
  N   -1.11862968145305      0.96872156908823     -0.45746756731455
  H   -2.00645447518629      1.13005099042418      0.00080048242740
  H   -1.26476723330864      1.04455145748825     -1.45738898232077
  C   -0.93861417031727     -0.65910378486330      1.34749607312948
  H   -0.46009308463918     -1.57840544483161      1.68159317135830
  H   -0.61451115525035      0.15546303953061      1.99497136098121
  H   -2.02065322527540     -0.78445856863364      1.44435989689862
