16
Coordinates from ORCA-job run
  C   0.88037350859630      0.12989842354447     -0.41420319796033
  C   -0.38246209614668     -0.22174971642068      0.39955387532091
  Cl  0.27979243453778      0.85724297199995     -2.06482943982350
  H   0.01844847352009     -0.51322774753922      1.37791273719447
  N   1.67273426685280     -0.98307436919204     -0.57768260337870
  H   2.65763693048139     -0.91022687585915     -0.74668285395709
  H   1.20386710113723     -1.87281417446128     -0.59512263000408
  C   1.61673793835158      1.23255038007628      0.20497549056246
  N   2.21097332338377      2.09053088403636      0.74441446754454
  N   -0.94848029622738     -1.42527973733961     -0.20077439549124
  H   -1.41127048874490     -1.17778633748570     -1.06948926190361
  H   -1.64477729063233     -1.82144490303943      0.41856025333913
  C   -1.35003193179626      0.93875163151810      0.58914285912242
  H   -0.84549903668285      1.82944877684031      0.97218756132107
  H   -1.84098851974570      1.19802545191455     -0.34919694435592
  H   -2.11705431688483      0.64915534140707      1.31223408246947
