16
Coordinates from ORCA-job run
  C   0.87478572087160     -0.35295405744422     -0.40406311253335
  C   -0.63811066768579     -0.27337776906445     -0.09950011491878
  Cl  1.43654042052735     -2.05505808844467     -0.28058753299183
  H   -1.13067214567285     -0.97636739984313     -0.78582681387003
  N   1.59622836539555      0.45569540528403      0.53368198745307
  H   1.15699799376926      1.37217952041524      0.53333415682086
  H   2.57067442959766      0.53996929783398      0.27058401420788
  C   1.07709135003327      0.04138984951323     -1.81369905271620
  N   1.20669929242932      0.42338196753211     -2.91818933941927
  N   -1.01788864931179      1.12123483983617     -0.32523184686909
  H   -1.19252739033713      1.29611527927942     -1.30797507118441
  H   -1.86334219642225      1.34059924103412      0.18598155909278
  C   -0.95360195940504     -0.66140668479073      1.33550067155754
  H   -2.03819323257425     -0.67217182227651      1.47523383158680
  H   -0.51162485923378      0.05424275082786      2.02859741035755
  H   -0.57205647198113     -1.65347232969244      1.57215925342648
