16
Coordinates from ORCA-job run
  C   0.90252252488827      0.19618181557019     -0.33379618962695
  C   -0.38968845144925     -0.33460376160424      0.32283804793054
  Cl  0.40385371561192      1.34801600469477     -1.71085077900001
  H   -0.02011437074625     -0.97676772470000      1.13039466212301
  N   1.67732851765305     -0.89116915258161     -0.77758473968209
  H   2.49042094473296     -0.60561052468919     -1.30663219911974
  H   1.08167321071628     -1.51856753284625     -1.30753538520179
  C   1.66554769191532      1.02757208995224      0.60029126246614
  N   2.26613927424440      1.67074013486529      1.37819056842827
  N   -1.03778340691698     -1.20448144094225     -0.65291906290120
  H   -1.62973643582328     -0.65523625490113     -1.26563593747439
  H   -1.62070071886930     -1.88226804546439     -0.17916326539841
  C   -1.27358215252835      0.75557870173867      0.91215959279670
  H   -1.68089656233356      1.39463797878582      0.12675619492723
  H   -0.72775755786299      1.38408597508951      1.61967387769565
  H   -2.10722622323224      0.29189173703256      1.44481335203703
