17

C	-0.461453	-0.030184	-1.432024
C	0.0	0.0	0.0
Cl	-0.688472	1.685831	-2.049934
H	1.089914	0.0	0.0
N	0.420766	-0.797978	-2.189407
H	0.070086	-0.939419	-3.149628
H	1.405204	-0.404425	-2.105331
N	-1.871262	-0.618437	-1.647753
O	-2.07841	-1.219344	-2.700404
O	-2.729977	-0.278065	-0.846662
N	-0.397797	-1.222888	0.720511
O	-0.767571	-2.198915	0.066224
O	-0.20952	-1.220246	1.933248
N	-0.445898	1.158999	0.8335
O	-1.576317	1.16306	1.323519
O	0.331236	2.12131	0.862565
F	2.485716	0.0	0.0
