17

C	-0.544841	-0.002178	-1.42608
C	0.0	0.0	0.0
Cl	-2.208904	0.52223	-1.610295
H	1.088901	0.0	0.0
N	0.294882	0.789779	-2.233205
H	-0.041811	0.85557	-3.194026
H	1.273831	0.479602	-2.160876
N	-0.481444	-1.510519	-1.896601
O	-1.422322	-2.020664	-2.482537
O	0.627607	-2.007604	-1.713649
N	-0.45424	-1.182542	0.789879
O	-1.578671	-1.629882	0.550144
O	0.356152	-1.641272	1.586013
N	-0.439512	1.210654	0.771052
O	-0.277396	2.289031	0.221081
O	-0.884005	1.023412	1.900378
F	2.495657	0.0	0.0
