17

C	-0.566911	0.010454	-1.414401
C	0.0	0.0	0.0
Cl	0.443754	-1.181766	-2.385352
H	1.086388	0.0	0.0
N	-1.934264	-0.144959	-1.578349
H	-2.226087	0.05674	-2.528574
H	-2.255811	-1.039505	-1.239793
N	-0.201438	1.352998	-2.074694
O	0.799111	1.920203	-1.658187
O	-0.927686	1.718751	-2.994193
N	-0.463861	-1.178223	0.796719
O	-1.068232	-2.091045	0.230082
O	-0.12582	-1.160775	1.975668
N	-0.471046	1.192971	0.794816
O	-1.688013	1.357388	0.895482
O	0.401761	1.890273	1.298757
F	2.489215	0.0	0.0
