15
Coordinates from ORCA-job run
  C   -0.64973310514747     -0.17912881490512      0.18582169187967
  C   0.77124665732560     -0.00174241827468     -0.38573528312584
  Cl  -1.28376918606852     -1.77577542948210     -0.12010906955084
  H   1.07743513422247      1.01266021777685     -0.08184290074963
  N   -1.49476751086619      0.81595402135014     -0.37696252454644
  H   -1.27058983073216      1.71846146272358      0.02862915408939
  H   -2.47111320757458      0.60204757153656     -0.21549695166545
  N   -0.48764030591231      0.01966543642855      1.73033580523604
  O   -0.52536768593326     -0.93761055660180      2.48448057398866
  O   -0.28620216113132      1.19320500786954      2.04111469884632
  N   0.72702035568902     -0.22142942886657     -1.81751675491596
  H   0.06119166578106      0.42635579351308     -2.22088970194311
  H   1.64083695001143     -0.06215629999291     -2.22219095981406
  C   1.70487150451749     -0.94213810397901      0.24192612997392
  N   2.48758072581871     -1.66836845909612      0.72943609229732
