15
Coordinates from ORCA-job run
  C   -0.81004281346855      0.20519202304777      0.02695367854573
  C   0.47125330688988     -0.26574321281653     -0.70052942324576
  Cl  -2.07761986249366      0.53900034061379     -1.15857010373886
  H   0.21412864900216     -1.07421930293496     -1.39080647739047
  N   -0.65802051706008      1.28828724593839      0.90916841836632
  H   0.20437045448858      1.18257529686775      1.43221908714860
  H   -0.69541774365430      2.17582258275712      0.42820765754957
  N   -1.28999821800504     -1.03110479987228      0.84428453667121
  O   -1.05122541186759     -2.12633929282122      0.34007776937361
  O   -1.88093147257887     -0.82736652977552      1.88943425796314
  N   1.42565140060740     -0.64967848848653      0.33654328423017
  H   2.37438517276390     -0.42494598828228      0.06857183504348
  H   1.36164807476594     -1.64732943739164      0.49666082777941
  C   0.98754802271500      0.86923072513166     -1.46601947110769
  N   1.42427095789524      1.78661883802446     -2.05419587718848
