15
Coordinates from ORCA-job run
  C   -0.71451544548193     -0.24175781433363      0.20357279732463
  C   0.69573278983937      0.18768698993859     -0.27185729424583
  Cl  -1.11068898711775     -1.79698552605393     -0.51945954512917
  H   0.89341330456085      1.13928532172882      0.23077735406232
  N   -1.74815631262767      0.69866347227904     -0.06221899679006
  H   -1.72895586840187      0.91469283518852     -1.05287059831839
  H   -1.56870916332614      1.54464753558712      0.46797920313427
  N   -0.62408101462719     -0.36858610883736      1.73101629883357
  O   -0.42525379812206      0.70989275870496      2.28818113982130
  O   -0.71888065432008     -1.45968288310936      2.26475960283029
  N   0.64277625341026      0.42742103289709     -1.70201178467019
  H   1.42086756177253      1.00874674416457     -1.98677396887556
  H   0.70088009637089     -0.44808388758795     -2.20869172906890
  C   1.72190575860447     -0.77620360756089      0.15935706998105
  N   2.56366547946633     -1.53973686300558      0.45824045111070
