15
Coordinates from ORCA-job run
  C   -0.75613406403594      0.09620846574762      0.09584557370801
  C   0.53156791286536      0.07986365927007     -0.74987159405585
  Cl  -2.07230059234310     -0.72185007430725     -0.82774998825622
  H   0.30763991585770      0.75390404525544     -1.58581541130428
  N   -1.05120690152034      1.40485865858440      0.51590332259325
  H   -1.83074916642052      1.41199130409372      1.16264535377660
  H   -1.24347570425840      2.01228496676533     -0.27004755249831
  N   -0.59170015544433     -0.72750168903929      1.37307738982824
  O   -1.42893544043178     -0.53733810987040      2.24374465813609
  O   0.34462867040232     -1.51663048036371      1.42339123913255
  N   0.85386238836578     -1.20850693664870     -1.31526320465252
  H   1.49953020293309     -1.09389476244472     -2.08498778187332
  H   1.27281468014254     -1.80394003115104     -0.61428581672662
  C   1.61843821881278      0.70182299357267      0.03405963682708
  N   2.54602003507485      1.14772799053587      0.60035417536530
