16
Coordinates from ORCA-job run
  C   0.86902502886529     -0.20270102031916     -0.39248495443603
  C   -0.59328514381663      0.19775167780541     -0.19848314850089
  Cl  1.26227660620754      0.00877819884256     -2.12847489655572
  H   -0.72945851428043      1.23822827132924     -0.49849845454888
  H   0.97493253054129     -1.26874295019610     -0.18255879905094
  C   1.83206440954138      0.61274985922189      0.44949520848159
  H   1.69911240609734      1.68094738091105      0.26607734108947
  H   2.86089974394328      0.34456224124704      0.20731263990138
  H   1.67068191487669      0.41241431726731      1.51098623028169
  N   -0.84699367967447      0.18236056272855      1.27986053795565
  O   -1.10373750029315      1.25181566450870      1.82800227823339
  O   -0.75460014778323     -0.90808791543982      1.84163996528592
  C   -1.59754492758107     -0.71915084401478     -0.87066838331866
  H   -2.61542215312577     -0.40697358689664     -0.62766403122460
  H   -1.47335496665598     -0.67635563968884     -1.95227122057304
  H   -1.45559560686207     -1.74659621730639     -0.53327031302032
