12
Coordinates from ORCA-job run
  C   0.81359268766434      0.71494704525920     -0.22378076594250
  C   -0.48109038635165      0.37347564768899      0.51075572639958
  Br  1.71487845714629      2.23186801243224      0.62043628194386
  H   -0.23848507546816      0.12381815243666      1.54702782022522
  H   0.60316916474836      1.03854890099032     -1.24573221005619
  H   -1.09890611062640      1.27526677243844      0.52923021952078
  C   1.73092719106893     -0.41733059266437     -0.26703605054482
  N   2.43278416605960     -1.35897454138199     -0.29757083957204
  C   -1.22250276192659     -0.77620093304990     -0.16633304750454
  H   -0.63439544745476     -1.69596631594225     -0.14960350702166
  H   -2.16459063788916     -0.97106829972014      0.34998944521092
  H   -1.45638124697080     -0.53838384848721     -1.20738307265860
