16

C	0.0	0.0	0.0
C	-0.223936	0.144624	-1.524459
F	1.341214	0.0	0.0
H	0.35528	-0.687514	-1.930738
H	0.321304	1.059594	-1.767096
N	-0.425413	1.199666	0.787873
O	-0.394382	1.154421	2.020477
O	-0.524811	2.254271	0.137128
N	-0.472071	-1.299313	0.546262
O	-0.541896	-2.222179	-0.291885
O	-0.462241	-1.487422	1.770388
C	-1.578445	0.176808	-2.201451
H	-2.137346	-0.734958	-2.00011
H	-1.407414	0.261255	-3.287261
H	-2.168854	1.027291	-1.867969
H	-2.030246	0.0	0.0
