16

C	0.0	0.0	0.0
C	-0.344716	0.03909	-1.486208
F	1.340961	0.0	0.0
H	0.088075	-0.888376	-1.871098
H	-1.423739	-0.018182	-1.598408
N	-0.29068	1.328756	0.730154
O	-1.209983	2.036348	0.327717
O	0.463417	1.609266	1.656795
N	-0.730129	-1.069142	0.711021
O	-0.675804	-2.172874	0.079887
O	-0.696191	-0.998933	1.972765
C	0.239222	1.243435	-2.217284
H	-0.252871	2.16799	-1.911582
H	0.095314	1.125049	-3.295406
H	1.312279	1.341694	-2.035063
H	-2.247686	0.0	0.0
