16

C	0.0	0.0	0.0
C	-0.374829	-0.027524	-1.485157
F	1.338569	0.0	0.0
H	-0.27861	0.995644	-1.860735
H	-1.427605	-0.29252	-1.552808
N	-0.279847	1.380262	0.646994
O	0.441027	1.681954	1.592886
O	-1.14666	2.100147	0.161207
N	-0.74053	-1.013684	0.784229
O	-0.702996	-2.155995	0.221341
O	-0.70877	-0.873084	2.037185
C	0.488824	-0.979964	-2.30802
H	0.388709	-1.989433	-1.911344
H	1.543525	-0.697869	-2.301318
H	0.141929	-0.969878	-3.346566
H	-2.216392	0.0	0.0
