16

C	0.0	0.0	0.0
C	-0.386656	0.095641	-1.48106
F	1.341236	0.0	0.0
H	-1.360304	0.573949	-1.533921
H	-0.512305	-0.921082	-1.859825
N	-0.693276	1.023058	0.804228
O	-0.685769	0.883258	2.054479
O	-0.638949	2.162946	0.240528
N	-0.270247	-1.397026	0.62012
O	0.369585	-1.654406	1.634212
O	-1.018007	-2.179851	0.04422
C	0.638304	0.8636	-2.313939
H	1.600519	0.351435	-2.370619
H	0.255331	0.978454	-3.333321
H	0.789455	1.854725	-1.88632
H	-2.173732	0.0	0.0
