16

C	0.0	0.0	0.0
C	-0.405778	-0.016653	-1.474921
F	1.344468	0.0	0.0
H	0.45963	0.40354	-2.004563
H	-1.239868	0.666945	-1.584529
N	-0.54673	1.153791	0.716408
O	-0.422426	1.141529	1.965829
O	-0.579699	2.218392	0.040208
N	-0.268324	-1.337493	0.778028
O	0.467795	-2.253026	0.402342
O	-1.097127	-1.434476	1.664307
C	-0.760521	-1.372525	-2.068319
H	0.064552	-2.082456	-2.007536
H	-1.02952	-1.241541	-3.121782
H	-1.625976	-1.783177	-1.543676
H	-2.188205	0.0	0.0
