17

C	-0.538511	0.007031	-1.438786
C	0.0	0.0	0.0
Cl	0.073619	1.401756	-2.336168
H	1.098688	0.0	0.0
N	-0.096583	-1.277428	-2.163264
O	-0.837836	-2.244863	-1.995205
O	0.94999	-1.265901	-2.785578
C	-2.000081	0.037564	-1.467026
N	-3.174719	0.074858	-1.442992
C	-0.465025	-1.207432	0.792525
H	0.017422	-1.143812	1.771724
H	-0.148607	-2.147093	0.340555
H	-1.552861	-1.227822	0.925377
N	-0.456362	1.254649	0.602131
H	0.373078	1.823088	0.758218
H	-0.873784	1.068266	1.505576
H	2.79251	0.0	0.0
