17

C	-0.551549	0.011353	-1.411147
C	0.0	0.0	0.0
Cl	-2.355769	0.03971	-1.446249
H	1.093804	0.0	0.0
N	-0.042638	1.269521	-2.133086
O	1.087017	1.152796	-2.594706
O	-0.745764	2.266169	-2.144135
C	-0.12319	-1.141303	-2.198708
N	0.203203	-2.088029	-2.814869
C	-0.40489	-1.258202	0.750361
H	-0.15266	-2.164316	0.192488
H	0.17307	-1.277826	1.678441
H	-1.47417	-1.27457	0.98858
N	-0.358351	1.242634	0.657235
H	-1.112117	1.116524	1.320736
H	0.470878	1.567229	1.146421
H	2.70513	0.0	0.0
