17

C	-0.553506	-0.002426	-1.411748
C	0.0	0.0	0.0
Cl	-2.357412	0.004216	-1.450669
H	1.094116	0.0	0.0
N	-0.059284	1.261676	-2.136569
O	1.075187	1.162494	-2.588737
O	-0.777524	2.248571	-2.15643
C	-0.102328	-1.149745	-2.193802
N	0.259176	-2.090697	-2.798356
C	-0.402871	-1.256078	0.754839
H	0.173128	-1.270178	1.684701
H	-1.47292	-1.275362	0.990156
H	-0.14581	-2.163484	0.200049
N	-0.361246	1.245983	0.649743
H	-1.120872	1.122689	1.306865
H	0.465136	1.571745	1.143347
H	2.70422	0.0	0.0
