17

C	-0.551211	-0.078284	-1.409777
C	0.0	0.0	0.0
Cl	-2.354636	-0.063792	-1.447252
H	1.094173	0.0	0.0
N	-0.047797	1.13716	-2.205494
O	1.088485	1.00355	-2.644394
O	-0.759927	2.123896	-2.288041
C	-0.114701	-1.273541	-2.125516
N	0.192583	-2.259702	-2.686092
C	-0.405472	-1.208499	0.827534
H	-0.156584	-2.147805	0.325927
H	0.17449	-1.17232	1.754078
H	-1.474433	-1.208014	1.068429
N	-0.359378	1.281685	0.57766
H	0.47114	1.639948	1.040223
H	-1.107677	1.195894	1.253268
H	2.705341	0.0	0.0
