17

C	-0.482119	0.019941	-1.469887
C	0.0	0.0	0.0
Cl	0.225279	1.379126	-2.360868
H	1.09478	0.0	0.0
N	-0.087399	-1.286167	-2.173308
O	-0.924328	-2.184417	-2.101792
O	1.019235	-1.359084	-2.67786
C	-1.938973	0.131983	-1.548926
N	-3.102965	0.300519	-1.517966
C	-0.488904	-1.237783	0.731364
H	-1.58193	-1.31491	0.761726
H	-0.114849	-1.147469	1.75229
H	-0.079235	-2.154222	0.303609
N	-0.395585	1.202244	0.704239
H	0.249686	1.948437	0.475073
H	-1.346966	1.492107	0.507946
H	2.799439	0.0	0.0
