17

C	-0.415344	0.037258	-1.462069
C	0.0	0.0	0.0
Cl	-2.214374	0.22161	-1.689331
H	1.095489	0.0	0.0
N	0.245098	1.244193	-2.128555
O	1.259494	1.011284	-2.774579
O	-0.234618	2.346139	-1.89024
C	-0.018565	-1.154666	-2.201884
N	0.270507	-2.14546	-2.765592
C	-0.468358	-1.27667	0.674524
H	-0.026756	-1.281328	1.672517
H	-1.558411	-1.311752	0.772667
H	-0.12176	-2.167877	0.145547
N	-0.389386	1.17202	0.755634
H	-1.253163	1.578036	0.420759
H	0.34673	1.863964	0.673589
H	2.710406	0.0	0.0
