17

C	-0.405033	0.024962	-1.466267
C	0.0	0.0	0.0
Cl	-2.205265	0.134685	-1.709307
H	1.095454	0.0	0.0
N	0.217241	1.258806	-2.117381
O	-0.32265	2.340273	-1.902343
O	1.273439	1.072169	-2.708186
C	0.052261	-1.145088	-2.204949
N	0.396298	-2.111889	-2.779047
C	-0.45382	-1.280532	0.677529
H	-0.003066	-1.282812	1.67122
H	-1.542255	-1.325121	0.783674
H	-0.103697	-2.168027	0.144627
N	-0.410498	1.1677	0.750294
H	0.301729	1.882202	0.646675
H	-1.293401	1.539943	0.425326
H	2.716389	0.0	0.0
