17

C	-0.46887	0.026882	-1.475051
C	0.0	0.0	0.0
Cl	0.261308	1.37996	-2.357717
H	1.094785	0.0	0.0
N	-0.070808	-1.282231	-2.168702
O	1.063065	-1.375546	-2.605954
O	-0.930143	-2.162703	-2.152247
C	-1.923327	0.14964	-1.570375
N	-3.086931	0.320428	-1.542001
C	-0.483269	-1.253567	0.708246
H	-0.055017	-2.157456	0.271604
H	-0.124153	-1.176228	1.735347
H	-1.575182	-1.34624	0.721293
N	-0.411496	1.188696	0.713902
H	-1.374535	1.449424	0.540441
H	0.20456	1.954231	0.477748
H	2.804996	0.0	0.0
