16

C	0.0	0.0	0.0
C	-0.337565	-0.1026	-1.506141
F	1.392848	0.0	0.0
H	0.516559	0.409317	-1.966907
N	-0.255833	1.448486	0.493221
O	-0.098768	2.34869	-0.324238
O	-0.48169	1.591691	1.68909
N	-0.528227	-0.979283	0.809579
H	-0.478889	-0.670541	1.77547
H	-1.52617	-1.054993	0.563153
C	-1.491443	0.608652	-2.073968
N	-2.14116	1.187034	-2.86583
N	-0.416256	-1.516951	-1.856541
H	0.433368	-1.971296	-1.546881
H	-0.474465	-1.593743	-2.864198
Cl	-3.435083	0.0	0.0
