16

C	0.0	0.0	0.0
C	-0.574779	0.098023	-1.409563
F	1.354449	0.0	0.0
H	-1.665297	0.181413	-1.249843
N	-0.294106	1.382324	0.670051
O	-1.458001	1.621337	0.938968
O	0.669129	2.106162	0.887428
N	-0.551749	-0.986649	0.844982
H	-1.560767	-0.799208	0.899662
H	-0.430138	-1.899718	0.419357
C	-0.285157	-1.172049	-2.10481
N	0.007623	-2.159376	-2.672001
N	-0.080857	1.279249	-2.090514
H	0.880605	1.15168	-2.381181
H	-0.652086	1.477724	-2.901181
Cl	-3.851328	0.0	0.0
