16

C	0.0	0.0	0.0
C	-0.524432	-0.041964	-1.446234
F	1.347999	0.0	0.0
H	-1.621041	0.022625	-1.35094
N	-0.355758	1.372933	0.617287
O	-0.941081	2.197547	-0.078002
O	0.039522	1.551992	1.761816
N	-0.509817	-0.986465	0.869655
H	-0.241607	-1.902123	0.527177
H	-1.533491	-0.911813	0.866167
C	-0.17911	-1.369603	-1.962871
N	0.11648	-2.422454	-2.389322
N	0.08747	0.971509	-2.313904
H	-0.446204	1.822163	-2.189333
H	-0.014835	0.678229	-3.277803
Cl	-3.586687	0.0	0.0
