16

C	0.0	0.0	0.0
C	-0.46237	0.392335	-1.423195
F	1.357259	0.0	0.0
H	-1.548268	0.540373	-1.354357
N	-0.353526	1.140523	0.981361
O	-0.892661	2.151451	0.54019
O	0.003778	0.967594	2.13933
N	-0.511926	-1.188922	0.54584
H	-0.275451	-1.965976	-0.061358
H	-1.535645	-1.090364	0.572133
C	-0.208611	-0.781849	-2.272265
N	0.042223	-1.719948	-2.933084
N	0.176491	1.548844	-2.032434
H	1.173758	1.511809	-1.856934
H	-0.195907	2.372785	-1.578682
Cl	-3.506111	0.0	0.0
