16

C	0.0	0.0	0.0
C	-0.531546	-0.22231	-1.412117
F	1.352644	0.0	0.0
H	-1.612391	-0.028552	-1.35233
N	-0.304454	1.480053	0.408396
O	0.119697	1.780452	1.52456
O	-0.912889	2.223373	-0.347387
N	-0.522049	-0.905802	0.921464
H	-0.247533	-0.631708	1.857912
H	-1.545757	-0.88427	0.841636
C	-0.326573	-1.628859	-1.780834
N	-0.091425	-2.704859	-2.18963
N	0.144958	0.664146	-2.358085
H	0.736748	0.137221	-2.984387
H	-0.545403	1.16956	-2.894369
Cl	-3.566881	0.0	0.0
