16

C	0.0	0.0	0.0
C	-0.376588	0.237046	-1.482093
F	1.371728	0.0	0.0
H	-0.284135	-0.774834	-1.908694
N	-0.291753	1.282456	0.838034
O	-0.007299	2.35422	0.319525
O	-0.709861	1.112506	1.980676
N	-0.582923	-1.142889	0.531307
H	-0.51563	-1.12722	1.543225
H	-1.579111	-1.14229	0.297945
C	0.669612	1.040251	-2.155434
N	1.459811	1.6269	-2.795181
N	-1.660097	0.857685	-1.712362
H	-2.100662	0.432148	-2.518027
H	-2.332912	0.710422	-0.952878
Cl	-4.078687	0.0	0.0
