19

C	0.0	0.0	0.0
C	-0.543561	0.025952	-1.420195
Br	2.056112	0.0	0.0
H	-1.636253	0.011183	-1.204188
N	-0.418096	1.165387	0.636097
H	-0.26199	1.981701	0.06231
H	-0.112538	1.261214	1.589259
C	-0.450238	-1.215415	0.776004
H	-1.551777	-1.193258	0.716239
H	-0.139364	-1.132458	1.821401
H	-0.04146	-2.141464	0.370733
C	-0.156037	-1.165256	-2.282159
H	0.924654	-1.183126	-2.462193
H	-0.669725	-1.089605	-3.245616
H	-0.447586	-2.114596	-1.826967
N	-0.230116	1.316711	-2.042547
H	0.615869	1.235467	-2.596495
H	-0.993778	1.574586	-2.65548
H	-3.454244	0.0	0.0
