19

C	0.0	0.0	0.0
C	-0.475716	-0.048122	-1.469369
Br	1.982124	0.0	0.0
H	-1.571491	-0.061578	-1.322372
N	-0.503047	1.143216	0.716248
H	-0.339885	1.975389	0.156553
H	-1.531202	0.98129	0.711101
C	-0.445508	-1.23579	0.76408
H	-1.541901	-1.267336	0.669553
H	-0.171245	-1.119446	1.814274
H	0.003953	-2.149404	0.374238
C	-0.064475	-1.281496	-2.258595
H	-0.396579	-2.201548	-1.777972
H	-0.526617	-1.223559	-3.246028
H	1.019256	-1.327275	-2.391403
N	-0.153542	1.145565	-2.253569
H	0.817438	1.401243	-2.105569
H	-0.737556	1.914486	-1.950171
H	-3.176018	0.0	0.0
