19

C	0.0	0.0	0.0
C	-0.256658	-0.017387	-1.562254
Br	1.99239	0.0	0.0
H	0.492224	0.65748	-1.992197
N	-0.477499	1.176175	0.668039
H	-0.3107	1.991269	0.086464
H	-1.495694	1.057777	0.748576
C	-0.540993	-1.208934	0.725003
H	-0.135734	-2.141604	0.333999
H	-1.636052	-1.184506	0.607375
H	-0.299083	-1.129737	1.786721
C	-1.629356	0.501898	-1.963824
H	-2.454239	0.093449	-1.359641
H	-1.688099	1.586897	-1.837928
H	-1.772767	0.27519	-3.024799
N	-0.041537	-1.321844	-2.190054
H	0.8254	-1.723901	-1.849204
H	-0.800364	-1.936006	-1.912708
H	-3.680394	0.0	0.0
