15

C	-0.258944	-0.004293	-1.514842
C	0.0	0.0	0.0
Br	-0.548047	1.890009	-2.139564
H	1.095918	0.0	0.0
H	-1.194816	-0.483442	-1.795219
N	0.849894	-0.562593	-2.202489
H	0.687327	-1.550495	-2.338106
H	1.690437	-0.427814	-1.620206
N	-0.394542	-1.333867	0.533827
O	-0.402767	-1.452579	1.75975
O	-0.629179	-2.262879	-0.244156
N	-0.670173	0.997161	0.813746
H	-0.307991	1.892507	0.513694
H	-0.330304	0.853043	1.757443
F	2.639109	0.0	0.0
