15

C	-0.479259	0.014673	-1.402598
C	0.0	0.0	0.0
Br	-2.74469	-0.208721	-1.273105
H	1.093483	0.0	0.0
H	-0.330876	-0.895546	-1.963561
N	-0.180191	1.172236	-2.042605
H	-0.25373	1.974799	-1.4335
H	-0.563233	1.287607	-2.964958
N	-0.377929	-1.286073	0.656618
O	-0.765305	-1.25199	1.827428
O	-0.2097	-2.316311	0.007791
N	-0.410926	1.169154	0.705485
H	-1.34568	1.056962	1.081442
H	0.242864	1.331661	1.460396
F	2.502858	0.0	0.0
