15

C	-0.64525	0.081924	-1.379104
C	0.0	0.0	0.0
Br	-0.168486	1.844034	-2.189276
H	1.089195	0.0	0.0
H	-1.734518	0.1794	-1.279345
N	-0.224829	-0.925025	-2.304747
H	-0.195898	-1.809721	-1.81702
H	-0.894124	-0.993006	-3.061509
N	-0.456495	-1.267741	0.683219
O	-0.082287	-1.442494	1.833559
O	-1.153605	-2.091014	0.064713
N	-0.368018	1.084672	0.881236
H	-1.050321	1.700556	0.465119
H	0.477613	1.606806	1.061255
F	2.541713	0.0	0.0
