15

C	-0.680051	0.104065	-1.355019
C	0.0	0.0	0.0
Br	-0.044537	1.74375	-2.237394
H	1.090073	0.0	0.0
H	-1.753774	0.306757	-1.220078
N	-0.376337	-0.989818	-2.24676
H	-0.758572	-1.831519	-1.838689
H	-0.820983	-0.825796	-3.140085
N	-0.440944	-1.252893	0.704714
O	0.003986	-1.434262	1.835033
O	-1.254501	-2.02651	0.170837
N	-0.326673	1.130867	0.839268
H	0.475156	1.294224	1.43423
H	-1.142293	0.971973	1.416836
F	2.540057	0.0	0.0
