15

C	-0.425532	0.030959	-1.424035
C	0.0	0.0	0.0
Br	-2.676846	0.401692	-1.394807
H	1.094553	0.0	0.0
H	-0.518787	-0.924342	-1.921305
N	0.184787	1.001887	-2.151792
H	-0.160441	1.158298	-3.083517
H	0.416597	1.835373	-1.634719
N	-0.463305	-1.284091	0.623857
O	-0.406157	-2.292124	-0.086726
O	-0.796657	-1.291576	1.803517
N	-0.341723	1.134082	0.771384
H	-1.169741	1.630248	0.479341
H	0.46277	1.705587	0.970046
F	2.507926	0.0	0.0
