15

C	-0.169512	0.144132	-1.50553
C	0.0	0.0	0.0
Br	-2.027443	0.869105	-1.987346
H	1.103984	0.0	0.0
H	-0.222036	-0.824926	-1.997742
N	0.839828	1.034291	-1.960247
H	1.013403	0.905397	-2.94766
H	1.693562	0.822793	-1.410644
N	-0.548138	-1.318991	0.446798
O	-0.275201	-2.294308	-0.260228
O	-1.199699	-1.386917	1.486403
N	-0.424593	1.073218	0.828034
H	0.356978	1.69951	0.953991
H	-1.208427	1.573195	0.429428
F	2.610003	0.0	0.0
