15

C	-0.476559	-0.049299	-1.435736
C	0.0	0.0	0.0
Br	0.149326	-1.751337	-2.334854
H	1.093535	0.0	0.0
H	0.118402	0.698394	-1.962248
N	-1.866338	0.196499	-1.62052
H	-2.099532	0.235588	-2.604352
H	-2.385093	-0.55051	-1.174994
N	-0.55982	-1.112891	0.830812
O	-0.023718	-1.322437	1.911524
O	-1.550258	-1.741739	0.423831
N	-0.394349	1.239431	0.63247
H	0.434068	1.815594	0.70566
H	-1.12571	1.705205	0.112826
F	2.566799	0.0	0.0
