15

C	-0.598824	0.008609	-1.395561
C	0.0	0.0	0.0
Br	-0.08965	-1.47131	-2.572508
H	1.091089	0.0	0.0
H	-0.127582	0.868515	-1.881304
N	-2.048027	0.063828	-1.333987
H	-2.264089	0.867964	-0.751709
H	-2.418178	0.242012	-2.259864
N	-0.506234	-1.167332	0.787128
O	-1.224781	-0.963566	1.774042
O	-0.170998	-2.285247	0.414153
N	-0.397281	1.258363	0.621625
H	0.449999	1.631052	1.033356
H	-1.044569	1.054566	1.377828
F	2.560802	0.0	0.0
