15

C	-0.162326	-0.238449	-1.517688
C	0.0	0.0	0.0
Br	-0.845352	1.650932	-2.476841
H	1.091108	0.0	0.0
H	-1.050297	-0.799162	-1.827149
N	1.025911	-0.705964	-1.978009
H	1.112583	-0.985819	-2.943543
H	1.880825	-0.420644	-1.42454
N	-0.501179	-1.31801	0.594914
O	0.235499	-2.294853	0.554371
O	-1.64787	-1.332365	1.06469
N	-0.591574	1.12752	0.587259
H	-1.597717	1.0711	0.611609
H	-0.226793	1.248004	1.517989
F	2.702312	0.0	0.0
