15

C	0.0	0.0	0.0
C	-0.525944	0.377053	-1.394877
Cl	1.809321	0.0	0.0
H	-1.177191	1.231753	-1.311268
H	0.308446	0.596039	-2.06195
N	-0.248271	1.310694	0.899433
O	-0.399075	1.109423	2.097412
O	-0.207219	2.41382	0.367997
N	-0.53306	-1.119816	0.575161
H	-1.592266	-0.892328	0.463619
H	-0.252001	-1.154109	1.548105
N	-1.337762	-0.635527	-2.135149
O	-1.067011	-1.824333	-2.042498
O	-2.154036	-0.155204	-2.918628
F	-2.648022	0.0	0.0
