15

C	0.0	0.0	0.0
C	-0.537703	-0.067313	-1.421625
Cl	1.776844	0.0	0.0
H	-1.636702	-0.074386	-1.275626
H	-0.160302	0.760018	-2.010784
N	-0.31813	1.484139	0.490695
O	-0.341828	2.390936	-0.332136
O	-0.468689	1.614697	1.697938
N	-0.568211	-0.947541	0.825085
H	-0.311303	-0.760903	1.78713
H	-1.610287	-0.777181	0.66234
N	-0.092394	-1.307776	-2.098652
O	0.798922	-1.197419	-2.948581
O	-0.647948	-2.364388	-1.807367
F	-2.797038	0.0	0.0
