15

C	0.0	0.0	0.0
C	-0.53797	0.148026	-1.414692
Cl	1.778628	0.0	0.0
H	-0.199616	1.078056	-1.853926
H	-1.637257	0.083972	-1.275964
N	-0.313027	1.401804	0.70397
O	-0.298603	2.424347	0.030833
O	-0.494197	1.350735	1.91269
N	-0.567105	-1.050938	0.685894
H	-0.311068	-0.998487	1.664695
H	-1.608987	-0.861178	0.547538
N	-0.053004	-0.933577	-2.302135
O	0.682162	-0.600575	-3.239993
O	-0.430272	-2.083017	-2.091919
F	-2.796787	0.0	0.0
