15

C	0.0	0.0	0.0
C	-0.539843	-0.13945	-1.415716
Cl	1.775286	0.0	0.0
H	-0.159081	0.653649	-2.048207
H	-1.638315	-0.134718	-1.267583
N	-0.321039	1.506047	0.416232
O	-0.471454	1.696611	1.615407
O	-0.347027	2.370128	-0.451129
N	-0.567418	-0.906458	0.871355
H	-1.6094	-0.746824	0.701016
H	-0.312147	-0.671169	1.823215
N	-0.101468	-1.416395	-2.025493
O	-0.670549	-2.450936	-1.686254
O	0.798168	-1.358801	-2.871421
F	-2.797936	0.0	0.0
