15

C	0.0	0.0	0.0
C	-0.528506	0.418389	-1.370836
Cl	1.780113	0.0	0.0
H	-1.63423	0.328017	-1.212164
H	-0.209445	1.413484	-1.656595
N	-0.379309	1.175791	0.950964
O	-0.620451	0.906021	2.113766
O	-0.336798	2.305737	0.473123
N	-0.519898	-1.173707	0.571133
H	-1.55266	-0.973682	0.517063
H	-0.302451	-1.930415	-0.066556
N	-0.086483	-0.483409	-2.455067
O	-0.028707	-1.698078	-2.253887
O	0.162963	0.040078	-3.543111
F	-2.752016	0.0	0.0
