15

C	0.0	0.0	0.0
C	-0.518858	0.02901	-1.426448
Cl	1.822533	0.0	0.0
H	-1.618155	-0.009902	-1.294407
H	-0.160055	0.90861	-1.946597
N	-0.291275	1.451641	0.587199
O	-0.303054	2.411881	-0.172736
O	-0.442318	1.503082	1.800423
N	-0.563259	-0.992331	0.763633
H	-0.313705	-0.859629	1.736624
H	-1.60871	-0.813183	0.602354
N	-0.039852	-1.14255	-2.197682
O	0.789348	-0.926897	-3.088562
O	-0.508915	-2.247851	-1.937167
F	-2.782642	0.0	0.0
