15

C	0.0	0.0	0.0
C	-0.51203	0.146778	-1.434395
Cl	1.781234	0.0	0.0
H	-1.616064	0.072315	-1.285202
H	-0.19144	1.072298	-1.895969
N	-0.38521	1.336381	0.705222
O	-0.631208	1.293587	1.896102
O	-0.346604	2.352469	0.017601
N	-0.523721	-1.041539	0.778335
H	-1.558434	-0.849406	0.681557
H	-0.309052	-1.908775	0.30052
N	-0.024182	-0.941321	-2.308177
O	0.404251	-0.620749	-3.418732
O	-0.094502	-2.10704	-1.914293
F	-2.742258	0.0	0.0
