17

C	-0.038074	0.110907	-1.525404
C	0.0	0.0	0.0
Cl	-1.723373	0.449235	-2.164192
H	1.105707	0.0	0.0
N	0.802675	1.24727	-1.834333
H	0.998437	1.248376	-2.827057
H	1.679537	1.049885	-1.324911
C	0.452067	-1.184595	-2.152479
H	1.45094	-1.34822	-1.735388
H	-0.197829	-2.031661	-1.924253
H	0.515108	-1.068274	-3.238459
C	-0.597878	-1.227352	0.497122
N	-1.055626	-2.22605	0.915737
N	-0.530101	1.177595	0.698243
H	0.220856	1.510671	1.295688
H	-0.664895	1.898114	-0.003203
F	2.659282	0.0	0.0
