17

C	-0.159944	0.005098	-1.543202
C	0.0	0.0	0.0
Cl	0.121542	1.815359	-2.06165
H	1.095446	0.0	0.0
N	0.869285	-0.821843	-2.010762
H	1.74138	-0.606655	-1.494182
H	0.987715	-0.772656	-3.011694
C	-1.531135	-0.32306	-2.082436
H	-1.773381	-1.357326	-1.821315
H	-2.267552	0.349238	-1.640566
H	-1.559665	-0.210901	-3.169179
C	-0.484647	-1.273415	0.510014
N	-0.908208	-2.2707	0.968255
N	-0.665436	1.112577	0.682478
H	-0.974684	0.79908	1.594558
H	0.048035	1.820394	0.838729
F	2.65504	0.0	0.0
