17

C	-0.073405	0.012119	-1.533322
C	0.0	0.0	0.0
Cl	-1.795136	0.246973	-2.098218
H	1.096808	0.0	0.0
N	0.727498	1.109439	-2.033376
H	1.645758	0.926969	-1.599716
H	0.378895	1.939019	-1.558629
C	0.472892	-1.286441	-2.084545
H	1.47963	-1.382099	-1.664914
H	0.520423	-1.225144	-3.172727
H	-0.135696	-2.141925	-1.786554
C	-0.57486	-1.185779	0.617818
N	-1.036599	-2.126081	1.154779
N	-0.458985	1.256364	0.575018
H	0.08807	1.447441	1.404792
H	-1.438076	1.206453	0.830176
F	2.632308	0.0	0.0
