17

C	-0.337738	-0.022711	-1.476661
C	0.0	0.0	0.0
Cl	-2.266414	-0.321689	-1.640799
H	1.095652	0.0	0.0
N	-0.007896	1.208248	-2.041471
H	-0.363544	1.319455	-2.979558
H	-0.29018	1.956097	-1.419217
C	0.332237	-1.186261	-2.166018
H	1.388954	-1.093148	-1.895282
H	0.197849	-1.131527	-3.249069
H	-0.064188	-2.136711	-1.807009
C	-0.445732	-1.207943	0.685111
N	-0.767801	-2.162006	1.293218
N	-0.458626	1.233169	0.631778
H	0.210056	1.479102	1.350803
H	-1.373292	1.11441	1.050708
F	2.572354	0.0	0.0
