17

C	-0.383003	0.019272	-1.489419
C	0.0	0.0	0.0
Cl	-0.240636	-1.660941	-2.150256
H	1.094843	0.0	0.0
N	-1.760966	0.434254	-1.654851
H	-1.827815	1.313211	-1.147536
H	-1.925114	0.62909	-2.637181
C	0.657752	0.869099	-2.211135
H	1.652661	0.562635	-1.872596
H	0.503505	1.911062	-1.914852
H	0.546637	0.783266	-3.296253
C	-0.586878	-1.099415	0.748357
N	-1.079957	-1.921213	1.430668
N	-0.367455	1.309167	0.586484
H	-1.100084	1.203094	1.277388
H	0.465317	1.647685	1.055278
F	2.619724	0.0	0.0
