17

C	-0.04659	0.05614	-1.53969
C	0.0	0.0	0.0
Cl	-1.734156	0.408187	-2.168359
H	1.099822	0.0	0.0
N	0.816525	1.167376	-1.884508
H	1.697814	0.961463	-1.380136
H	0.998149	1.148149	-2.882388
C	0.411265	-1.265519	-2.132735
H	0.487878	-1.182143	-3.220843
H	1.402106	-1.444834	-1.704612
H	-0.261112	-2.088613	-1.886225
C	-0.582985	-1.218801	0.534832
N	-1.064683	-2.202498	0.961995
N	-0.491629	1.171456	0.703967
H	0.152299	1.923705	0.488633
H	-1.394397	1.433216	0.316779
F	2.648807	0.0	0.0
