17

C	-0.569991	0.037999	-1.425415
C	0.0	0.0	0.0
Cl	0.293036	1.34304	-2.328282
H	1.092724	0.0	0.0
N	-0.269187	-1.205856	-2.103935
H	-0.695437	-1.197496	-3.025634
H	-0.655543	-1.979921	-1.572086
C	-2.046827	0.413611	-1.445395
H	-2.404151	0.487421	-2.476788
H	-2.619456	-0.36645	-0.930806
H	-2.199119	1.368809	-0.943135
C	-0.497049	-1.190897	0.670906
N	-0.932104	-2.141336	1.21493
N	-0.347668	1.224284	0.743452
H	0.530886	1.554373	1.127175
H	-0.982305	1.034504	1.508086
F	2.547336	0.0	0.0
