17

C	-0.211362	-0.038328	-1.527128
C	0.0	0.0	0.0
Cl	0.115894	1.745937	-2.126395
H	1.102686	0.0	0.0
N	0.773405	-0.916792	-2.003998
H	1.665636	-0.709559	-1.52368
H	0.86509	-0.898162	-3.009991
C	-1.62102	-0.322704	-1.993976
H	-1.890166	-1.339723	-1.697137
H	-2.301443	0.387386	-1.520299
H	-1.707137	-0.229519	-3.079846
C	-0.492271	-1.24851	0.564747
N	-0.892824	-2.230273	1.073277
N	-0.663433	1.13229	0.664361
H	-0.620038	0.954528	1.662836
H	-0.063812	1.934712	0.500437
F	2.643606	0.0	0.0
