15
Coordinates from ORCA-job run
  C   -0.64334622549075     -0.45692995718096     -0.31635702764827
  C   0.53473862685681     -0.01003253924074      0.54501086444712
  Br  -1.60202039384847     -1.89544142489411      0.59309008489365
  H   0.19684373890783      0.29914155189218      1.53504063673697
  H   -0.25160469127736     -0.90314670678196     -1.23320082630044
  C   -1.59793556597783      0.68590041932583     -0.60991329525243
  H   -2.44673670072550      0.33252679464926     -1.19570364092364
  H   -1.98121586355613      1.11869826285957      0.31721790507277
  H   -1.09073881023156      1.46491052938412     -1.18391487667938
  N   1.36311548327918      1.01021407797242     -0.03315055558997
  H   1.52528435766137      0.85162789048552     -1.01905358882857
  H   0.98460856380886      1.93283338146133      0.12070732478137
  N   1.43943605067816     -1.19334410033528      0.77988967216665
  O   1.90884764924886     -1.70508833230668     -0.23375395764026
  O   1.66072378066654     -1.53186984729052      1.93609128076443
