15
Coordinates from ORCA-job run
  C   -0.73637466246550     -0.45539940251308     -0.32706810222010
  C   0.51233411044311     -0.09610012309184      0.45514838800098
  Br  -1.72004466644383     -1.80034724956650      0.69204759113579
  H   0.27012469124258      0.08696359366076      1.50900702632159
  H   -0.43850889060097     -0.94290454601804     -1.25432711864038
  C   -1.62632385812948      0.74685934805078     -0.58537704302250
  H   -1.87107936121869      1.26701857158549      0.34433726001214
  H   -1.12859003360272      1.43569993776904     -1.27222488762546
  H   -2.56077765765225      0.43180427720463     -1.04983141481260
  N   1.25090831052881      0.96424015782638     -0.20291242016103
  H   0.72274016289996      1.82631560822034     -0.14665469954156
  H   2.11977324490365      1.11441870793803      0.30014511136077
  N   1.47841347370202     -1.25858618137221      0.50049531221930
  O   2.29111647506458     -1.21664908758091      1.42295895298205
  O   1.43728866132872     -2.10233361211287     -0.38574395600897
