15
Coordinates from ORCA-job run
  C   -0.69529676373297     -0.45086515083062     -0.33056056584143
  C   0.48758365916581      0.06053348871834      0.48003611454176
  Br  -1.46605808226244     -2.00226290719806      0.56950221349612
  H   0.18384023961390      0.32836627801039      1.49301654800258
  H   -0.32633656777623     -0.83021411206421     -1.28621353245463
  C   -1.75467259004504      0.61802153944618     -0.51933212111427
  H   -1.32525497819488      1.46961668998588     -1.04775120861587
  H   -2.59394656066454      0.22197421161864     -1.09214109381483
  H   -2.12967017548536      0.96032742376015      0.44754362339772
  N   1.09203770447425      1.17342275559946     -0.17946424269901
  H   1.79720148734335      1.60823456152005      0.40213255676426
  H   1.51670406695850      0.87662829396492     -1.05056735750574
  N   1.48327837994621     -1.07889947657327      0.66664659122539
  O   1.77109507440438     -1.40913271679505      1.81290218460261
  O   1.95949510625506     -1.54775087916279     -0.36574970998468
