15
Coordinates from ORCA-job run
  C   -0.72715394608620      0.68343914325086     -0.19280243250771
  C   0.70546729253593      0.41269407578396      0.25960913180596
  Br  -0.63294082873239      1.93803384540341     -1.69773953212784
  H   1.16956770221916      1.36084636260549      0.57082334970845
  H   -1.23989762395724      1.23483404703563      0.59248009182514
  C   -1.48898107631846     -0.56485750809400     -0.58718750562075
  H   -0.97740259426530     -1.10002593721942     -1.38502328628095
  H   -1.57204646581153     -1.22538159988875      0.28028511586426
  H   -2.49667737436669     -0.30455933888685     -0.91317860727436
  N   1.43750349940543     -0.36269706687107     -0.69807861847669
  H   2.35653905731525     -0.59074105428400     -0.34343643843191
  H   1.53077606233220      0.17035249581141     -1.55341164769396
  N   0.64783943142617     -0.37569960705672      1.56043282416128
  O   1.49347628927658     -1.24495841700407      1.73597996407731
  O   -0.20706942497292     -0.03227944058588      2.37224759097176
