15

C	0.0	0.0	0.0
C	-0.326552	-0.064112	-1.540518
Cl	1.789481	0.0	0.0
H	0.450235	-0.723443	-1.948978
C	-0.48332	1.254288	0.706566
H	-0.164885	1.221314	1.750946
H	-1.57442	1.273084	0.64712
H	-0.046389	2.132761	0.22847
C	-0.440652	-1.215862	0.687088
N	-0.6467	-2.189882	1.309181
C	-0.091173	1.250659	-2.154562
N	0.140935	2.282412	-2.66805
C	-1.572319	-0.632057	-2.113463
N	-2.213274	-1.052513	-3.01167
Br	-3.556844	0.0	0.0
