15

C	0.0	0.0	0.0
C	-0.588163	0.197539	-1.414294
Cl	1.785409	0.0	0.0
H	-1.697315	0.147952	-1.246838
C	-0.474797	1.104865	0.937091
H	-0.102109	0.90846	1.943646
H	-1.568032	1.109816	0.936618
H	-0.083458	2.064429	0.594495
C	-0.399155	-1.323898	0.492459
N	-0.619192	-2.409722	0.884641
C	-0.180887	-0.858443	-2.33949
N	0.134479	-1.708979	-3.085901
C	-0.23824	1.510056	-1.95291
N	0.026583	2.568911	-2.387167
Br	-3.703847	0.0	0.0
