15

C	0.0	0.0	0.0
C	-0.588634	0.209797	-1.412203
Cl	1.785639	0.0	0.0
H	-1.697744	0.159055	-1.244432
C	-0.475558	1.095479	0.947291
H	-0.086163	2.058482	0.611057
H	-0.100926	0.891614	1.951429
H	-1.568126	1.098399	0.949135
C	-0.397227	-1.329224	0.479255
N	-0.624503	-2.41988	0.853068
C	-0.181227	-0.836663	-2.347258
N	0.13774	-1.678398	-3.102086
C	-0.239463	1.527774	-1.939506
N	0.025918	2.589087	-2.367257
Br	-3.704021	0.0	0.0
