15

C	0.0	0.0	0.0
C	-0.344961	0.079214	-1.535817
Cl	1.789393	0.0	0.0
H	0.464717	-0.472338	-2.027613
C	-0.505573	1.152789	0.845725
H	-1.598102	1.165569	0.778737
H	-0.076379	2.088337	0.48482
H	-0.200005	0.994307	1.881505
C	-0.41529	-1.307195	0.514618
N	-0.595634	-2.389767	0.934841
C	-0.231456	1.462117	-2.004493
N	-0.077193	2.559126	-2.393163
C	-1.551413	-0.564831	-2.08591
N	-2.191719	-1.136132	-2.892773
Br	-3.660032	0.0	0.0
