14

C	-0.497643	-0.055818	-1.414357
C	0.0	0.0	0.0
Br	0.202194	1.823277	-2.321439
H	1.091471	0.0	0.0
H	-0.317135	-0.944306	0.460772
N	0.153277	-1.110412	-2.049968
H	-0.003557	-1.139415	-3.046846
H	1.145931	-1.037509	-1.829142
N	-1.902394	-0.028683	-1.552006
H	-2.253619	0.774758	-1.041054
H	-2.17307	0.089097	-2.520126
C	-0.560898	1.097386	0.76107
N	-1.034166	1.981093	1.376067
F	2.565305	0.0	0.0
