14

C	-0.176485	-0.080414	-1.525181
C	0.0	0.0	0.0
Br	0.030157	1.861156	-2.221515
H	1.091396	0.0	0.0
H	-0.314839	-0.979163	0.383815
N	0.904685	-0.801766	-2.122278
H	0.713492	-1.786242	-1.959256
H	1.755941	-0.553257	-1.582615
N	-1.420899	-0.616649	-1.946008
H	-1.470443	-0.586223	-2.957528
H	-2.181813	-0.070262	-1.559847
C	-0.703263	1.04078	0.709991
N	-1.30768	1.844353	1.320603
F	2.625917	0.0	0.0
