14

C	-0.065474	-0.053521	-1.529748
C	0.0	0.0	0.0
Br	-1.887422	-0.955222	-2.162525
H	1.095592	0.0	0.0
H	-0.426402	0.913197	0.418271
N	0.022465	1.239618	-2.052631
H	0.167187	1.200192	-3.051133
H	-0.761143	1.825746	-1.805793
N	0.981212	-0.850796	-2.108739
H	1.81759	-0.588497	-1.539066
H	0.788643	-1.825681	-1.908246
C	-0.484552	-1.17695	0.68505
N	-0.861726	-2.123244	1.271535
F	2.629091	0.0	0.0
