14

C	-0.170854	0.116162	-1.528484
C	0.0	0.0	0.0
Br	-0.134488	-1.868252	-2.265444
H	1.093212	0.0	0.0
H	-0.31016	0.967451	0.415395
N	-1.399548	0.613809	-2.098553
H	-2.178104	0.053258	-1.772143
H	-1.506297	1.565865	-1.76243
N	0.909499	0.866616	-1.966454
H	0.984516	0.887621	-2.972939
H	1.780283	0.60876	-1.454743
C	-0.698319	-1.058637	0.68367
N	-1.293593	-1.88389	1.273743
F	2.642666	0.0	0.0
