16

C	0.0	0.0	0.0
C	-0.313286	-0.345361	-1.493084
F	1.398449	0.0	0.0
H	0.47372	0.200296	-2.02394
N	-0.433358	1.357985	0.227736
H	-1.457083	1.290641	0.270183
H	-0.113451	1.631302	1.153559
N	-0.467008	-1.012673	0.895766
H	-0.276844	-0.704826	1.845687
H	-1.489681	-1.003042	0.783384
N	-1.587051	0.038095	-2.070253
H	-1.552954	1.045216	-2.193627
H	-2.334907	-0.115371	-1.362343
C	-0.041629	-1.77346	-1.743936
N	0.197137	-2.889933	-2.016854
H	-3.185792	0.0	0.0
