16

C	0.0	0.0	0.0
C	-0.321822	0.060962	-1.521849
F	1.399533	0.0	0.0
H	0.476083	0.699404	-1.917627
N	-0.407179	1.240269	0.606549
H	-1.419594	1.296973	0.479728
H	-0.24137	1.157973	1.606509
N	-0.465684	-1.224912	0.58232
H	-1.490263	-1.170539	0.516236
H	-0.23334	-1.211479	1.5721
N	-1.600838	0.661032	-1.839939
H	-2.352868	0.309463	-1.198258
H	-1.853945	0.444062	-2.797128
C	-0.099555	-1.275959	-2.124204
N	0.051331	-2.265346	-2.740751
H	-3.270723	0.0	0.0
