16

C	0.0	0.0	0.0
C	-0.29566	0.002637	-1.528973
F	1.42367	0.0	0.0
H	0.351052	0.788031	-1.936351
N	-0.541431	1.178165	0.579563
H	-1.565881	1.061372	0.509988
H	-0.302505	1.192414	1.567283
N	-0.430362	-1.218403	0.598945
H	-0.801067	-1.102191	1.52855
H	0.267576	-1.944795	0.538125
N	-1.657894	0.224612	-1.956027
H	-1.806483	1.225656	-1.999918
H	-2.342119	-0.093956	-1.230571
C	0.2097	-1.273754	-2.077187
N	0.64261	-2.281141	-2.497281
H	-3.418039	0.0	0.0
