17
Coordinates from ORCA-job run
  C   0.99912237730166      0.30589431017203     -0.07013701359379
  C   -0.48571268299821      0.27559091040890      0.27228754825305
  F   1.13746619301209      0.25101194095349     -1.46578679291756
  H   -0.54862149599112      0.37984954874633      1.36422202043033
  H   1.41272736652462      1.27551381033545      0.23282086846640
  C   1.82492693307917     -0.81651828825622      0.51887450142952
  H   1.71446994073563     -0.84743267204264      1.60571862233231
  H   1.51659972725241     -1.77720307637210      0.10512195413222
  H   2.87989389191220     -0.66839659404927      0.28122801322151
  C   -1.14748685858828     -1.03870905325415     -0.13706125873390
  H   -2.22506338135485     -0.99208816850764      0.03825980330889
  H   -0.75978608270596     -1.89062645317900      0.42504817030698
  H   -0.98668574246184     -1.22734728513711     -1.20099834065287
  C   -1.19681838080891      1.46637708566624     -0.36847983240799
  H   -1.15365488026295      1.39411613934907     -1.45696688228589
  H   -2.24727040351129      1.49868351500084     -0.06899060244627
  H   -0.73310652113436      2.41228433016577     -0.07416077884294
