17
Coordinates from ORCA-job run
  C   0.95218590269262     -0.18534688538044     -0.35550384439185
  C   -0.52441498475166     -0.30363171332696     -0.01013195547443
  F   1.32955068640286     -1.34352657952770     -1.05190958528648
  H   -0.62720705106127     -1.20130405978952      0.61400112725093
  H   1.09884774307275      0.64890837443612     -1.05417113697924
  C   1.88084150477330     -0.04899590052256      0.83119956105599
  H   1.69102949388150     -0.84655708357260      1.55367609314392
  H   2.91564009964671     -0.12863308560407      0.49349716894428
  H   1.75640421489305      0.91492930421661      1.32686787202608
  C   -1.35655009704698     -0.49192426860972     -1.27635127557593
  H   -1.28803557853132      0.39460771499861     -1.91538239063020
  H   -1.01134802801560     -1.35267806848137     -1.84951203217850
  H   -2.41007200773804     -0.64399296426357     -1.02796561443737
  C   -1.00267464583071      0.91128751888384      0.78237911955894
  H   -2.08222514725186      0.85915756600487      0.94276932354503
  H   -0.52658767008901      0.98147298338870      1.76209649760010
  H   -0.79538443504634      1.83722714714976      0.23544107182872
