16

C	-0.456307	0.024838	-1.45654
C	0.0	0.0	0.0
Cl	-0.073067	-1.562084	-2.239126
H	1.093075	0.0	0.0
H	-0.320435	0.964624	0.42475
N	-1.912255	0.139792	-1.519944
H	-2.20609	0.1579	-2.491481
H	-2.158938	1.033454	-1.105707
C	0.315521	1.090217	-2.217877
H	0.047602	1.087696	-3.279625
H	0.070853	2.070909	-1.794987
H	1.390041	0.923399	-2.092391
N	-0.528052	-1.08446	0.812731
H	-1.451387	-1.326106	0.467284
H	0.073267	-1.888091	0.673251
H	3.113443	0.0	0.0
