16

C	-0.28635	-0.070761	-1.511596
C	0.0	0.0	0.0
Cl	-0.149752	1.730084	-2.129432
H	1.095615	0.0	0.0
H	-0.414712	0.908859	0.43687
N	0.694294	-0.900186	-2.087281
H	1.623983	-0.679767	-1.70668
H	0.694975	-0.868211	-3.098006
C	-1.688794	-0.475205	-1.926151
H	-1.86538	-1.512048	-1.6294
H	-1.805653	-0.403619	-3.010165
H	-2.430919	0.176085	-1.460317
N	-0.422487	-1.17523	0.756328
H	-1.361309	-1.460753	0.510915
H	0.206874	-1.934085	0.527419
H	3.01062	0.0	0.0
