16

C	-0.432932	0.051651	-1.467992
C	0.0	0.0	0.0
Cl	-0.021828	-1.604135	-2.23383
H	1.092624	0.0	0.0
H	-0.33885	0.95017	0.431398
N	-1.833071	0.313296	-1.622599
H	-2.370624	-0.404359	-1.14931
H	-2.081649	0.276466	-2.605475
C	0.403221	1.070715	-2.211772
H	0.178597	1.062565	-3.282961
H	1.461856	0.856101	-2.041562
H	0.173958	2.061073	-1.80854
N	-0.48045	-1.100899	0.821272
H	0.070498	-1.919541	0.594959
H	-1.453064	-1.318531	0.635451
H	3.085318	0.0	0.0
