17

C	-0.442865	0.007989	-1.464153
C	0.0	0.0	0.0
Br	0.439793	-1.386837	-2.513608
H	1.094576	0.0	0.0
C	-1.882018	-0.132557	-1.63342
N	-3.040306	-0.326107	-1.691528
N	-0.027781	1.345665	-2.099939
O	1.056684	1.792391	-1.771393
O	-0.777051	1.807672	-2.958782
C	-0.52625	-1.217554	0.729558
H	-1.623045	-1.21473	0.784202
H	-0.202415	-2.145125	0.254448
H	-0.123026	-1.211035	1.746599
N	-0.554331	1.242567	0.539646
H	-1.037657	1.075159	1.411635
H	0.203925	1.896653	0.709484
Cl	2.873597	0.0	0.0
