10
Coordinates from ORCA-job run
  C   0.14953043132302      0.53113586826532     -0.06870006225461
  C   -1.01409819583592     -0.40995480763343     -0.26702043060294
  F   -0.29246670156946      1.62180120302114      0.68026665638284
  H   -1.85738892604529      0.12780588683678     -0.70003682812672
  H   0.47011530966626      0.96921364135346     -1.02330117633179
  H   -0.74579903475974     -1.23249334586708     -0.93428374496909
  H   -1.31140113747681     -0.81303647257814      0.70226022540891
  N   1.20308345859731     -0.10483064935005      0.66303147999181
  H   2.08242424140668      0.38081443011848      0.55558554183085
  H   1.31600055469394     -1.07045575416648      0.39219833867075
