17

C	0.0	0.0	0.0
C	-0.547191	0.082736	-1.433086
F	1.405185	0.0	0.0
H	-1.653166	0.113076	-1.250516
C	-0.403716	1.224259	0.80825
H	-0.049336	1.072622	1.832786
H	0.049327	2.139213	0.420841
H	-1.493307	1.267819	0.780304
N	-0.510583	-1.238579	0.504572
H	-1.537873	-1.067418	0.46353
H	-0.24532	-1.305822	1.48272
C	-0.116395	-1.040735	-2.25178
N	0.1924	-1.92975	-2.954109
N	-0.10848	1.353838	-2.090334
O	-0.866213	2.318185	-1.998157
O	0.988772	1.368483	-2.647738
F	-2.84903	0.0	0.0
