17

C	0.0	0.0	0.0
C	-0.531914	0.003664	-1.459165
F	1.38501	0.0	0.0
H	-1.63612	0.065319	-1.278612
C	-0.434382	1.267828	0.711865
H	0.054707	2.141121	0.27799
H	-0.122263	1.162503	1.752906
H	-1.52014	1.33009	0.641861
N	-0.517932	-1.134191	0.694507
H	-1.543605	-0.962236	0.642704
H	-0.2971	-1.984008	0.183548
C	-0.12459	-1.197336	-2.172173
N	0.177325	-2.195023	-2.714199
N	-0.057298	1.199631	-2.219442
O	-0.770964	2.200649	-2.184023
O	1.029971	1.126451	-2.793815
F	-2.849651	0.0	0.0
