17

C	0.0	0.0	0.0
C	-0.409047	-0.065496	-1.523579
F	1.394669	0.0	0.0
H	-0.533782	0.941678	-1.920564
C	-0.426031	1.328924	0.582977
H	-0.117677	1.341893	1.63019
H	0.077794	2.139258	0.048895
H	-1.511691	1.373634	0.496399
N	-0.479932	-1.084426	0.779844
H	-1.509271	-0.928568	0.722974
H	-0.256037	-1.95353	0.303706
C	-1.56842	-0.888464	-1.872669
N	-2.261498	-1.642849	-2.452613
N	0.75713	-0.65201	-2.277728
O	1.417822	0.105966	-2.984311
O	0.99079	-1.843495	-2.100651
F	-2.7343	0.0	0.0
