17

C	0.0	0.0	0.0
C	-0.536609	-0.062133	-1.455547
F	1.385443	0.0	0.0
H	-1.63984	0.018853	-1.274149
C	-0.433053	1.297351	0.657221
H	0.037126	2.154402	0.172175
H	-0.10112	1.246559	1.6961
H	-1.520587	1.345919	0.601041
N	-0.517925	-1.100212	0.747559
H	-0.304209	-1.972622	0.272544
H	-1.543681	-0.930679	0.691728
C	-0.151572	-1.303086	-2.110615
N	0.129302	-2.334596	-2.597887
N	-0.052041	1.086133	-2.280037
O	-0.748776	2.099786	-2.284999
O	1.025705	0.965609	-2.864857
F	-2.852921	0.0	0.0
