17

C	0.0	0.0	0.0
C	-0.24398	-0.001709	-1.5468
F	1.415757	0.0	0.0
H	-0.026142	-1.021198	-1.869118
C	-0.419018	1.289243	0.676923
H	0.003057	2.162627	0.174119
H	-1.511006	1.291404	0.659036
H	-0.044514	1.260193	1.70606
N	-0.543687	-1.198001	0.528428
H	-0.402056	-1.168958	1.534737
H	-1.577575	-0.989285	0.380585
C	0.670078	0.931683	-2.20924
N	1.389162	1.668592	-2.773753
N	-1.61698	0.317237	-2.098109
O	-1.944893	1.495584	-2.10963
O	-2.212224	-0.612543	-2.626213
F	-2.777567	0.0	0.0
