17

C	0.0	0.0	0.0
C	-0.502974	-0.027333	-1.438242
F	1.418176	0.0	0.0
H	-0.254427	0.925156	-1.911465
C	-0.433169	1.27395	0.687404
H	-0.014026	1.286415	1.698504
H	-1.523455	1.259382	0.704329
H	-0.040941	2.138201	0.144983
N	-0.406581	-1.154458	0.721337
H	-0.222214	-1.030439	1.706291
H	0.065095	-1.973257	0.365305
C	-1.949535	-0.326612	-1.683247
N	-2.61953	-0.614221	-2.624531
N	0.310964	-1.020967	-2.231238
O	0.915209	-0.597022	-3.213833
O	0.327093	-2.188897	-1.849853
F	-2.750156	0.0	0.0
