15

C	-0.160672	0.136485	-1.502512
C	0.0	0.0	0.0
F	-1.403749	0.595691	-1.883439
H	1.091859	0.0	0.0
H	-0.473434	-0.90535	0.393759
N	0.852417	0.946493	-2.092765
H	1.72478	0.656986	-1.613863
H	0.653979	1.876807	-1.730366
N	-0.078692	-1.274474	-2.099581
O	0.951133	-1.610089	-2.667238
O	-1.063259	-1.990801	-1.923594
N	-0.421656	1.256917	0.614983
H	-1.370198	1.195398	0.957664
H	0.197675	1.444702	1.391761
F	2.695469	0.0	0.0
