15

C	-0.134487	0.056048	-1.505855
C	0.0	0.0	0.0
F	-0.029161	1.358118	-1.91224
H	1.097867	0.0	0.0
H	-0.36384	-0.976695	0.332189
N	0.871543	-0.708297	-2.167804
H	1.726151	-0.533029	-1.605917
H	0.638525	-1.688628	-2.057691
N	-1.506366	-0.415018	-1.991414
O	-1.736478	-1.617304	-1.851193
O	-2.295774	0.406967	-2.442278
N	-0.735913	1.068006	0.683585
H	-0.641263	0.895294	1.679725
H	-0.231306	1.932166	0.50653
F	2.728291	0.0	0.0
