15

C	-0.487303	-0.037302	-1.418436
C	0.0	0.0	0.0
F	-1.910244	-0.170275	-1.450517
H	1.089793	0.0	0.0
H	-0.350014	0.971678	0.379279
N	-0.056097	1.046141	-2.178558
H	0.075354	1.875362	-1.622222
H	-0.603099	1.18683	-3.014157
N	-0.101356	-1.295132	-2.207139
O	-0.374898	-1.265908	-3.407441
O	0.405507	-2.245123	-1.625864
N	-0.500332	-1.061955	0.86519
H	0.153101	-1.828662	0.7878
H	-1.404952	-1.386947	0.547514
F	2.645148	0.0	0.0
