15

C	-0.112362	0.10996	-1.511233
C	0.0	0.0	0.0
F	-0.098555	1.434434	-1.86158
H	1.097867	0.0	0.0
H	-0.357613	-0.992495	0.290346
N	0.955234	-0.556333	-2.179529
H	0.757416	-1.549308	-2.17285
H	1.791157	-0.398747	-1.575443
N	-1.436499	-0.438018	-2.045292
O	-1.567672	-1.661782	-1.992913
O	-2.290322	0.344359	-2.442479
N	-0.73797	1.040651	0.71886
H	-0.292258	1.920535	0.485103
H	-0.555405	0.897578	1.706677
F	2.741544	0.0	0.0
