15

C	-0.551262	0.007377	-1.390914
C	0.0	0.0	0.0
F	-0.020592	0.982586	-2.166737
H	1.092073	0.0	0.0
H	-0.35436	-0.907977	0.5023
N	-0.440926	-1.225034	-2.077484
H	-0.90528	-1.190705	-2.976575
H	-0.798131	-1.98248	-1.515285
N	-2.071682	0.398303	-1.307769
O	-2.744212	-0.286282	-0.53526
O	-2.522773	1.270941	-2.04206
N	-0.431414	1.23013	0.678813
H	0.405681	1.633718	1.081503
H	-1.079701	1.023419	1.4279
F	2.653906	0.0	0.0
