15

C	-0.522932	-0.054695	-1.410043
C	0.0	0.0	0.0
F	-0.169059	-1.187141	-2.058102
H	1.093557	0.0	0.0
H	-0.341404	0.945765	0.441331
N	-1.941531	0.086041	-1.531951
H	-2.208428	0.984188	-1.151176
H	-2.207638	0.047736	-2.510748
N	0.155917	1.094194	-2.201725
O	-0.120554	2.226127	-1.800993
O	0.849454	0.835832	-3.175168
N	-0.443602	-1.191887	0.724498
H	0.360841	-1.517139	1.244308
H	-1.188299	-0.983111	1.373812
F	2.654395	0.0	0.0
