13
Coordinates from ORCA-job run
  C   -0.48043123424274     -0.20075520017294      0.40825100244739
  C   0.79400274157315      0.01465853499099     -0.38500852822625
  Cl  -0.33202051037450      0.64316520944008      1.99492456413399
  H   0.92883892517081      1.09693953474245     -0.53515792707657
  H   -0.56035081247008     -1.26143082074575      0.65222357688393
  H   0.64100676581533     -0.44075396282971     -1.36939964882859
  C   -1.71717059100937      0.30255533482007     -0.30797066202694
  H   -1.62785704950732      1.36810861697396     -0.52948997681615
  H   -1.84563504072893     -0.24189057517921     -1.24779567665086
  H   -2.60961233623635      0.15341014001879      0.30088073062322
  N   1.92249092021712     -0.65518219237312      0.24937136196728
  H   2.15031635301265     -0.18268745779392      1.11558534340441
  H   2.73642186878023     -0.59713716189169     -0.34941415983486
