13
Coordinates from ORCA-job run
  C   -0.55972249087358     -0.45138787583667      0.50066454092829
  C   0.93301424793509     -0.16133385553962      0.42946490511738
  Cl  -1.06554165924259     -0.38938454042876      2.22468277388197
  H   1.45890715303562     -0.90241053834280      1.03577425345527
  H   -0.73392027665590     -1.47614252434597      0.16896411800334
  H   1.12228045553422      0.82128101811649      0.88406713809658
  C   -1.39326890014690      0.51695639276903     -0.31160173955038
  H   -2.45698040953111      0.29720048315025     -0.21192529566738
  H   -1.22365318689567      1.54371426306791      0.02336193224962
  H   -1.12154040464382      0.42960151754642     -1.36582009711394
  N   1.37800271926034     -0.27529183518004     -0.95877751765531
  H   2.34325603854558     -0.57298848106368     -0.99552832095520
  H   1.32116671367872      0.62118597608744     -1.42332669079025
