19

C	-0.022463	0.017072	-0.009254
C	-0.366918	-0.067508	-1.49956
F	1.394195	0.054196	0.056113
H	0.057292	-1.001222	-1.890008
C	-0.559136	1.247897	0.685636
H	-0.247972	2.155652	0.171396
H	-1.651003	1.190898	0.716691
H	-0.172012	1.257184	1.709223
C	-0.483094	-1.24875	0.681111
H	-0.070944	-2.129741	0.180251
H	-0.128501	-1.238752	1.715938
H	-1.578708	-1.279012	0.674337
N	0.525506	0.953695	-2.254048
O	1.415723	0.483605	-2.967717
O	0.296071	2.152043	-2.129906
N	-1.726154	0.166518	-1.770763
H	-2.052918	-0.411724	-2.533193
H	-2.402163	0.035534	-0.95792
H	-3.473277	-0.260202	0.145933
