19

C	-0.032409	0.020215	-0.00708
C	-0.384488	-0.025086	-1.497368
F	1.382907	0.092626	0.051526
H	0.064548	-0.932333	-1.921034
C	-0.596644	1.213411	0.730407
H	-0.201499	1.201126	1.750888
H	-0.314586	2.145247	0.243098
H	-1.686338	1.125667	0.76749
C	-0.455813	-1.278826	0.644214
H	-1.550272	-1.337193	0.642518
H	-0.024478	-2.132108	0.112435
H	-0.09481	-1.293415	1.676762
N	0.474788	1.046466	-2.221962
O	1.378162	0.626218	-2.949998
O	0.207597	2.232735	-2.06217
N	-1.750805	0.177067	-1.753106
H	-2.419128	0.010265	-0.94085
H	-2.068319	-0.386651	-2.529916
H	-3.472327	-0.351781	0.162308
