14

C	0.0	0.0	0.0
C	-0.249524	-0.004742	-1.539595
Cl	1.796454	0.0	0.0
H	0.235541	-0.917447	-1.901706
H	0.3333	0.828642	-1.943589
C	-0.41413	1.263995	0.611155
N	-0.62052	2.308338	1.108172
C	-0.543819	-1.212289	0.721985
H	-0.169037	-2.118644	0.238691
H	-0.222024	-1.203446	1.767673
H	-1.635907	-1.160124	0.663122
C	-1.562646	0.095903	-2.184074
N	-2.349124	0.26241	-3.040631
Cl	-3.612519	0.0	0.0
