14

C	0.0	0.0	0.0
C	-0.549447	-0.182955	-1.419798
Cl	1.794037	0.0	0.0
H	-0.222538	0.640994	-2.060089
H	-1.649559	-0.151764	-1.319165
C	-0.387655	1.331061	0.483601
N	-0.606224	2.411228	0.890121
C	-0.493579	-1.087911	0.941568
H	-1.58687	-1.058085	0.942289
H	-0.111376	-0.912891	1.948698
H	-0.1382	-2.058942	0.589342
C	-0.128414	-1.449034	-2.009203
N	0.206248	-2.463429	-2.496354
Cl	-3.658114	0.0	0.0
