14

C	0.0	0.0	0.0
C	-0.550465	-0.152338	-1.422922
Cl	1.793964	0.0	0.0
H	-0.222671	0.683613	-2.04677
H	-1.650621	-0.121375	-1.321599
C	-0.388747	1.320228	0.511946
N	-0.605688	2.395177	0.932744
C	-0.493115	-1.108888	0.917644
H	-1.58641	-1.078881	0.919028
H	-0.138239	-2.071672	0.543061
H	-0.109833	-0.957129	1.928019
C	-0.130763	-1.405997	-2.039231
N	0.20291	-2.408791	-2.550776
Cl	-3.657969	0.0	0.0
