14

C	0.0	0.0	0.0
C	-0.546616	0.256991	-1.407375
Cl	1.793115	0.0	0.0
H	-0.255356	-0.577308	-2.052406
H	-1.64655	0.266072	-1.305681
C	-0.381621	1.09453	0.902034
N	-0.622978	1.988283	1.625155
C	-0.50495	-1.336651	0.523248
H	-1.598205	-1.295449	0.534321
H	-0.159571	-2.13451	-0.139253
H	-0.121608	-1.51823	1.52834
C	-0.077029	1.506078	-1.995772
N	0.296318	2.503251	-2.490245
Cl	-3.663963	0.0	0.0
