14

C	0.0	0.0	0.0
C	-0.268692	0.1795	-1.519156
Cl	1.796298	0.0	0.0
H	0.155662	1.147942	-1.80232
H	0.355485	-0.576604	-2.005132
C	-0.415535	1.163394	0.78392
N	-0.613778	2.134141	1.415403
C	-0.494153	-1.316264	0.565508
H	-0.148831	-1.430681	1.595036
H	-0.092801	-2.135446	-0.037224
H	-1.587198	-1.308755	0.532946
C	-1.573982	0.071864	-2.182228
N	-2.286726	-0.004629	-3.116184
Cl	-3.482245	0.0	0.0
