14

C	0.0	0.0	0.0
C	-0.277912	0.219424	-1.515996
Cl	1.796393	0.0	0.0
H	0.047006	-0.702267	-2.010876
H	0.414081	1.000748	-1.842006
C	-0.40661	1.160404	0.795061
N	-0.608656	2.118912	1.443616
C	-0.527122	-1.30603	0.552704
H	-0.147667	-2.131709	-0.054458
H	-0.196961	-1.438077	1.584958
H	-1.620366	-1.260344	0.508521
C	-1.568879	0.608929	-2.09266
N	-2.314851	1.01107	-2.908935
Cl	-3.564052	0.0	0.0
