14

C	0.0	0.0	0.0
C	-0.55404	-0.185701	-1.414028
Cl	1.793236	0.0	0.0
H	-0.281269	-1.184436	-1.768802
H	-1.652749	-0.129516	-1.312456
C	-0.379092	1.318219	0.525127
N	-0.596548	2.389851	0.954237
C	-0.499444	-1.11229	0.911123
H	-0.122991	-0.965023	1.924554
H	-0.139425	-2.07302	0.534616
H	-1.5929	-1.083564	0.905686
C	-0.0722	0.808747	-2.365656
N	0.311564	1.593307	-3.150113
Cl	-3.664828	0.0	0.0
