14

C	0.0	0.0	0.0
C	-0.557767	0.280069	-1.399943
Cl	1.785622	0.0	0.0
H	-0.237376	1.26586	-1.743399
H	-1.656358	0.276775	-1.289221
C	-0.386981	1.109031	0.882807
N	-0.596412	2.015354	1.600411
C	-0.4958	-1.330475	0.548516
H	-0.104589	-1.488651	1.554693
H	-0.150626	-2.138242	-0.100471
H	-1.588548	-1.298046	0.568113
C	-0.140534	-0.730847	-2.363942
N	0.204062	-1.542369	-3.139533
Cl	-3.673354	0.0	0.0
