14

C	0.0	0.0	0.0
C	-0.546034	-0.08853	-1.430533
Cl	1.799439	0.0	0.0
H	-1.646068	-0.065925	-1.330713
H	-0.219868	0.778038	-2.011619
C	-0.379383	1.29945	0.567809
N	-0.557261	2.364803	1.028657
C	-0.488305	-1.1479	0.869862
H	-0.137519	-2.093159	0.450083
H	-0.097121	-1.04062	1.882777
H	-1.580995	-1.116392	0.880331
C	-0.122071	-1.310728	-2.10272
N	0.216595	-2.29138	-2.652444
Cl	-3.640873	0.0	0.0
