15

C	-0.46274	0.032639	-1.464755
C	0.0	0.0	0.0
Br	-0.055806	-1.714774	-2.282218
H	1.093233	0.0	0.0
H	-0.360518	-0.920575	0.473063
C	-1.915655	0.186533	-1.531337
N	-3.082368	0.332386	-1.550093
C	0.257715	1.125014	-2.240624
H	1.333159	0.95362	-2.155954
H	0.012412	2.081717	-1.77618
H	-0.044651	1.132572	-3.289557
N	-0.460254	1.223391	0.652543
H	0.272065	1.565827	1.260875
H	-1.291441	1.055255	1.203324
Br	3.619476	0.0	0.0
