15

C	-0.402812	-0.011956	-1.473223
C	0.0	0.0	0.0
Br	-2.3258	-0.485643	-1.647926
H	1.101886	0.0	0.0
H	-0.334347	-0.946444	0.434164
C	-0.276999	1.324527	-2.051166
N	-0.158039	2.400237	-2.509629
C	0.431597	-1.022254	-2.248664
H	0.162246	-1.03035	-3.305791
H	0.271203	-2.018554	-1.83076
H	1.487275	-0.761315	-2.122674
N	-0.595471	1.120625	0.719856
H	-0.665339	0.878538	1.699925
H	0.047025	1.903533	0.665106
Br	3.617499	0.0	0.0
