15

C	-0.406904	-0.052948	-1.474251
C	0.0	0.0	0.0
Br	-2.391403	-0.236471	-1.597635
H	1.095608	0.0	0.0
H	-0.360397	0.936581	0.442185
C	-0.106005	1.212937	-2.138276
N	0.134842	2.233024	-2.67055
C	0.241419	-1.226043	-2.18688
H	-0.052002	-1.266238	-3.237046
H	-0.05304	-2.141626	-1.674891
H	1.325883	-1.102546	-2.099057
N	-0.435233	-1.203403	0.6953
H	-1.29802	-1.042849	1.195961
H	0.283437	-1.468629	1.355523
Br	3.585483	0.0	0.0
