15

C	-0.404687	-0.050533	-1.475811
C	0.0	0.0	0.0
Br	-2.384157	-0.275814	-1.607329
H	1.095548	0.0	0.0
H	-0.365097	0.932203	0.446631
C	-0.128319	1.226225	-2.128568
N	0.088801	2.255543	-2.653342
C	0.27448	-1.204222	-2.193188
H	-0.017465	-1.24955	-3.243669
H	0.003293	-2.128934	-1.684537
H	1.355939	-1.054332	-2.104147
N	-0.427074	-1.209337	0.690831
H	0.310493	-1.493049	1.322394
H	-1.271408	-1.047965	1.22207
Br	3.570418	0.0	0.0
