11
Coordinates from ORCA-job run
  C   0.59148241356457     -0.15893674399431     -0.63811654517057
  C   -0.22876068182025      0.07674305710747      0.61171165992968
  F   0.68507662241344      1.02577942873075     -1.33885479136562
  H   0.16047935051048      0.91304002346312      1.18920646887611
  H   0.10230028908530     -0.89299831263926     -1.28092843437423
  H   -0.28067026957757     -0.82425734787650      1.22596819004333
  C   1.93536932092425     -0.62358110302444     -0.26936902385206
  N   2.99766499803013     -1.00781541464528      0.04809440803940
  N   -1.63675263431537      0.42151256413644      0.23504893080453
  O   -2.14831097128881     -0.24284250563211     -0.66135826582647
  O   -2.17787843752618      1.31335635437411      0.87859740289590
