11
Coordinates from ORCA-job run
  C   0.59282514480080     -0.40878028444583     -0.51246893864493
  C   -0.22294663363284      0.36740622171536      0.49907615174441
  F   0.48185376046732      0.20897141302179     -1.74063662445039
  H   0.04832193797910      1.42137740239015      0.50147471223452
  H   0.20865808654192     -1.42578675186962     -0.61071717684462
  H   -0.12240429984391     -0.05923260107939      1.49885804666593
  C   2.00138996822469     -0.43798997867707     -0.09658305720462
  N   3.11801921316814     -0.46365187037473      0.26307251898782
  N   -1.67528759325585      0.28885305461626      0.14134136775795
  O   -2.10183693946337     -0.81073270260166     -0.19801593680269
  O   -2.32859264498599      1.31956609730474      0.25359893655663
