11
Coordinates from ORCA-job run
  C   0.56066479608268     -0.48562991600323     -0.47743325283964
  C   -0.19943659425087      0.49262306276758      0.39248042741657
  F   0.09634557453201     -0.38215380069752     -1.77229682458128
  H   -0.15943274659468      1.50042416733065     -0.01625112245400
  H   0.38828643343354     -1.50879419326507     -0.13826589612255
  H   0.16977374743621      0.47596243973077      1.41964752583206
  C   1.99562386982483     -0.17411518617692     -0.43900987205690
  N   3.13905592575975      0.08326768991921     -0.38250408011429
  N   -1.64274965210368      0.09664205512928      0.44605912499308
  O   -1.88042628107070     -1.09350116353290      0.62914420167516
  O   -2.46870507304910      0.99527484479814      0.33742976825180
