11
Coordinates from ORCA-job run
  C   0.89704000491218     -0.48078725617574      0.02302385139702
  C   -0.55653641525607     -0.39387481719338      0.46441429447933
  F   1.27836794200479     -1.80242628152971      0.16161663271459
  H   -1.20284879157352     -0.99148689148664     -0.17569666844079
  H   1.53728667791357      0.13240851858044      0.65654265154943
  H   -0.64759708684255     -0.72888685073119      1.49925027060546
  C   1.05457395177561     -0.07000798378439     -1.37841168300910
  N   1.16107796607016      0.25077932858467     -2.50211234031812
  N   -1.05069343229501      1.01341776646966      0.41523637066369
  O   -0.21357172715292      1.90215357552984      0.56333617910957
  O   -2.25709908955623      1.16871089173643      0.27380044124892
