11
Coordinates from ORCA-job run
  C   0.69225403083709     -0.67000812746794     -0.31260664612620
  C   -0.49742220346480     -0.34394954592047      0.56511389563430
  F   0.25138006900885     -0.97188776794080     -1.58214240811457
  H   -1.17522330298885     -1.19527600074127      0.61179435136800
  H   1.17066682326049     -1.56759898884045      0.09438986996674
  H   -0.18449159665507     -0.07029431803359      1.57490260466861
  C   1.70554823433072      0.39314969180818     -0.36196666795329
  N   2.57931010218856      1.17587194649876     -0.35976158641444
  N   -1.31099301313164      0.79999807624660      0.03946171583591
  O   -2.47329639028472      0.83957394790537      0.42644913687320
  O   -0.75873275310063      1.60842108648562     -0.69763426573827
