11
Coordinates from ORCA-job run
  C   0.72310225397227     -0.66769535791293     -0.24098722760080
  C   -0.52280706864894     -0.32786836600231      0.54916491707358
  F   0.36406665363411     -1.02970661051088     -1.52078434007980
  H   -1.18477695818234     -1.19127615997074      0.59903890335957
  H   1.19032168810071     -1.53899973702723      0.23087312268003
  H   -0.27541498914735      0.00287783212823      1.56009655983055
  C   1.71988081281899      0.41159294106324     -0.27399448483004
  N   2.57176713839991      1.21713536313679     -0.23462924959244
  N   -1.32641737105312      0.76956954216406     -0.08051861795546
  O   -0.74193077219085      1.56796560501607     -0.80356385665414
  O   -2.51579138770338      0.78740494791571      0.21530427376894
