11
Coordinates from ORCA-job run
  C   0.68179468001922     -0.11971641037057     -0.54713815152428
  C   -0.34511476610729     -0.03708125844427      0.56195338103695
  F   1.12027835148498      1.15439295668468     -0.84251207417734
  H   0.04026926524403      0.51192513093694      1.41891302519414
  H   0.23305235973102     -0.53947947138842     -1.44937005718022
  H   -0.68532644804651     -1.03079273063058      0.85907682188522
  C   1.81618825241019     -0.94597080473119     -0.11339342901989
  N   2.70481030787358     -1.62159869439281      0.24815008795260
  N   -1.55160031635169      0.70284306178355      0.07193202208213
  O   -1.97279633421457      0.39450561641230     -1.03895159502221
  O   -2.04055535204297      1.53097260414037      0.83133996877291
