11
Coordinates from ORCA-job run
  C   0.72085037583446     -0.66259977009008     -0.24846406908220
  C   -0.50217482824205     -0.31961644565613      0.57557963552216
  F   0.32235151433221     -1.04606225879289     -1.51041868914115
  H   -0.22441542212130      0.04252356662525      1.56777215309866
  H   1.20954411325231     -1.52343929878877      0.22080132332788
  H   -1.15030913078659     -1.18949959806904      0.67042146289681
  C   1.70912141052903      0.42170500312451     -0.33243073859279
  N   2.56127452621784      1.22784378709535     -0.34330595615079
  N   -1.33955826885237      0.75036512630050     -0.05694756547998
  O   -0.77583994855108      1.56883192926649     -0.77400914929256
  O   -2.53084434161246      0.72994795898481      0.23100159289396
