11
Coordinates from ORCA-job run
  C   0.85019941025232     -0.55059419929603      0.10272095978445
  C   -0.65225300218053     -0.40943024996407      0.29745332326752
  F   1.12772466867806     -1.90499856145566      0.09978714169214
  H   -1.20363121069103     -0.85855525672033     -0.52631734146732
  H   1.39781158101180     -0.08696246597050      0.92272066798751
  H   -0.94617429642965     -0.87677350222213      1.23904081797559
  C   1.28072750074766      0.04056345625071     -1.17114191779385
  N   1.60663462473339      0.50858259021372     -2.19661507194243
  N   -1.05108228024292      1.02619188487164      0.37678564583352
  O   -0.21182811998299      1.81239467043453      0.81295242181865
  O   -2.19712887589612      1.29958163385812      0.04261335284423
