11
Coordinates from ORCA-job run
  C   0.72998955511310     -0.64799147824579     -0.25948322541993
  C   -0.50393506331392     -0.33992825524718      0.56211925916964
  F   0.34678441492630     -1.00225174481882     -1.53463782763720
  H   -0.23907602347091     -0.00275372791067      1.56657159083978
  H   1.22389356031295     -1.51559727311828      0.19148989223085
  H   -1.14331836589084     -1.21904358648118      0.62686029931054
  C   1.70731352462863      0.44846339945024     -0.30569095923126
  N   2.55109584888398      1.26319919192720     -0.28690377907437
  N   -1.34686730267371      0.73809806878286     -0.04870080728080
  O   -2.54010499308419      0.69832500922672      0.22902448330576
  O   -0.78577515543138      1.58048039643491     -0.73964892621300
