15

C	0.0	0.0	0.0
C	-0.505509	0.065599	-1.441549
Cl	1.82709	0.0	0.0
H	-1.599321	0.047406	-1.377155
H	-0.131751	0.963772	-1.93024
N	-0.457272	1.208755	0.619313
H	0.061952	2.019687	0.31022
H	-0.427672	1.138006	1.627455
N	-0.475277	-1.19156	0.61461
H	-0.214446	-1.203339	1.594804
H	-1.498717	-1.16093	0.545159
N	-0.055103	-1.082842	-2.267646
O	-0.731359	-2.10765	-2.234871
O	0.965799	-0.929358	-2.944696
Cl	-3.724421	0.0	0.0
