15

C	0.0	0.0	0.0
C	-0.476047	0.238196	-1.435163
Cl	1.796858	0.0	0.0
H	-1.569237	0.232509	-1.420715
H	-0.058837	-0.532227	-2.077016
N	-0.434451	1.083838	0.837828
H	-1.453749	1.117483	0.757627
H	-0.203648	0.861648	1.800388
N	-0.434145	-1.346607	0.318617
H	-0.128638	-1.565374	1.26187
H	-1.45739	-1.301685	0.329621
N	-0.044011	1.548214	-1.985476
O	-0.721434	2.536123	-1.712939
O	0.963142	1.558217	-2.699022
Cl	-3.54941	0.0	0.0
