15

C	0.0	0.0	0.0
C	-0.442155	0.197913	-1.439878
Cl	1.911493	0.0	0.0
H	-0.134543	-0.653885	-2.036158
H	-1.536509	0.298357	-1.406785
N	-0.446532	1.020781	0.84503
H	-0.22439	0.850994	1.815565
H	-0.177887	1.944208	0.541066
N	-0.431794	-1.311484	0.376154
H	-1.455061	-1.240052	0.395399
H	-0.112799	-1.512518	1.316299
N	0.111559	1.398453	-2.1174
O	0.42889	1.268166	-3.298065
O	0.185988	2.457048	-1.493576
Cl	-3.61383	0.0	0.0
