15

C	0.0	0.0	0.0
C	-0.446463	-0.186856	-1.439946
Cl	1.911996	0.0	0.0
H	-1.539781	-0.311117	-1.404279
H	-0.158874	0.681738	-2.023445
N	-0.430153	1.30793	0.390379
H	-0.112312	1.494542	1.335239
H	-1.455961	1.239064	0.406997
N	-0.439609	-1.031227	0.837935
H	-0.186972	-1.95008	0.50717
H	-0.185842	-0.883276	1.803148
N	0.128935	-1.367064	-2.132321
O	0.170842	-2.443602	-1.536146
O	0.496239	-1.206243	-3.294595
Cl	-3.615974	0.0	0.0
