15

C	0.0	0.0	0.0
C	-0.453667	-0.137665	-1.443331
Cl	1.911515	0.0	0.0
H	-0.172862	0.751701	-1.997561
H	-1.545999	-0.268957	-1.40602
N	-0.426755	1.294079	0.438289
H	-1.452915	1.22676	0.456411
H	-0.108085	1.442506	1.39003
N	-0.437331	-1.060486	0.803592
H	-0.162022	-0.954504	1.76864
H	-0.196863	-1.967689	0.432263
N	0.125391	-1.290343	-2.178709
O	0.16191	-2.388661	-1.624528
O	0.501769	-1.084417	-3.331115
Cl	-3.622033	0.0	0.0
