15

C	0.0	0.0	0.0
C	-0.458023	-0.071973	-1.460071
Cl	1.840863	0.0	0.0
H	-0.183593	-1.01824	-1.921761
H	-1.548872	0.05467	-1.430394
N	-0.480063	1.09969	0.770673
H	-0.2743	1.960404	0.280162
H	-1.500441	0.982935	0.7887
N	-0.468183	-1.189542	0.61127
H	-0.419951	-1.097242	1.616642
H	0.031273	-2.008516	0.297864
N	0.128957	0.981371	-2.323075
O	0.072749	2.147937	-1.934136
O	0.622936	0.629995	-3.393812
Cl	-3.670618	0.0	0.0
