15

C	-0.523094	0.017995	-1.423328
C	0.0	0.0	0.0
F	0.098353	0.997394	-2.166598
H	1.090949	0.0	0.0
H	-1.594342	0.237914	-1.432267
C	-0.308751	-1.283012	-2.07899
N	-0.163743	-2.320257	-2.607359
C	-0.504758	-1.183738	0.809266
H	-1.5991	-1.236978	0.816894
H	-0.10104	-2.107773	0.39541
H	-0.140662	-1.086762	1.831228
N	-0.449604	1.254486	0.690608
O	-1.265425	1.987571	0.128665
O	0.006989	1.451721	1.810088
Cl	3.287133	0.0	0.0
