15

C	-0.528426	-0.071689	-1.419554
C	0.0	0.0	0.0
F	0.089911	0.858386	-2.224769
H	1.090935	0.0	0.0
H	-1.599806	0.147073	-1.438554
C	-0.316839	-1.410394	-1.993331
N	-0.180472	-2.47673	-2.460924
C	-0.496923	-1.133419	0.884291
H	-1.591001	-1.190715	0.90211
H	-0.09097	-2.079859	0.526354
H	-0.126767	-0.970269	1.895603
N	-0.447226	1.293138	0.6136
O	0.004896	1.554316	1.722545
O	-1.2525	1.999768	0.002477
Cl	3.283241	0.0	0.0
