15

C	-0.52747	-0.007959	-1.422293
C	0.0	0.0	0.0
F	0.111548	0.935595	-2.195387
H	1.09092	0.0	0.0
H	-1.594111	0.234629	-1.431901
C	-0.348979	-1.330968	-2.044988
N	-0.246967	-2.384069	-2.552426
C	-0.500052	-1.168661	0.833897
H	-0.134017	-1.048875	1.852602
H	-0.093248	-2.099294	0.43767
H	-1.594214	-1.226868	0.845455
N	-0.443732	1.270001	0.667433
O	-1.212742	2.025743	0.067762
O	-0.022242	1.462973	1.802675
Cl	3.276128	0.0	0.0
