15

C	-0.450373	0.032625	-1.44187
C	0.0	0.0	0.0
F	-1.832287	-0.129292	-1.545721
H	1.093103	0.0	0.0
H	0.012754	-0.834371	-1.923888
C	-0.06702	1.218672	-2.221123
N	0.211378	2.097089	-2.947315
C	-0.473364	-1.260459	0.70529
H	-0.121924	-2.130315	0.146671
H	-0.036729	-1.299057	1.700809
H	-1.562148	-1.29605	0.778839
N	-0.472246	1.196946	0.759694
O	-0.337722	1.164607	1.980047
O	-0.958515	2.139531	0.13488
Cl	3.24357	0.0	0.0
