15

C	-0.436546	0.066824	-1.460835
C	0.0	0.0	0.0
F	-0.08259	-1.125911	-2.072127
H	1.10293	0.0	0.0
H	0.079313	0.875548	-1.975178
C	-1.895924	0.225048	-1.606462
N	-3.060158	0.308639	-1.726518
C	-0.546862	-1.193578	0.745808
H	-0.259552	-2.097548	0.209028
H	-0.110786	-1.230695	1.742358
H	-1.636238	-1.153418	0.832866
N	-0.395632	1.277241	0.660395
O	-0.560372	2.262542	-0.063454
O	-0.483363	1.290546	1.88435
Cl	3.25355	0.0	0.0
