15

C	-0.534214	0.020621	-1.417667
C	0.0	0.0	0.0
F	0.046019	1.038071	-2.144818
H	1.09571	0.0	0.0
H	-1.612409	0.204559	-1.412829
C	-0.284047	-1.261452	-2.097548
N	-0.161175	-2.287576	-2.653493
C	-0.496899	-1.189355	0.808802
H	-1.590944	-1.243184	0.828492
H	-0.120909	-1.097618	1.827842
H	-0.095755	-2.110619	0.385532
N	-0.463856	1.24379	0.699564
O	0.095495	1.518181	1.753987
O	-1.404769	1.88035	0.216487
Cl	3.291944	0.0	0.0
