14

C	0.0	0.0	0.0
C	-0.27926	-0.312234	-1.483805
Br	2.017381	0.0	0.0
H	0.48111	0.208118	-2.065535
H	-0.087471	-1.385779	-1.585306
N	-0.282193	1.500654	0.296035
O	-0.28671	2.271523	-0.654453
O	-0.42806	1.795033	1.475366
N	-0.539242	-0.877007	0.919328
H	-0.377935	-0.523362	1.85703
H	-1.564813	-0.866296	0.744266
C	-1.529652	0.005935	-2.182401
N	-2.244292	0.193113	-3.098315
Cl	-3.38484	0.0	0.0
