14

C	0.0	0.0	0.0
C	-0.272502	0.202885	-1.510653
Br	1.945979	0.0	0.0
H	0.055757	-0.735485	-1.964332
H	0.405379	0.982989	-1.854573
N	-0.344528	1.293193	0.787827
O	-0.493224	1.157881	1.994661
O	-0.382822	2.343433	0.159552
N	-0.549456	-1.157049	0.537577
H	-1.570745	-1.070772	0.385238
H	-0.375804	-1.191153	1.537349
C	-1.561972	0.551444	-2.114235
N	-2.308153	0.884062	-2.960135
Cl	-3.419717	0.0	0.0
