14

C	0.0	0.0	0.0
C	-0.498859	0.188425	-1.421176
Br	2.008907	0.0	0.0
H	-1.597419	0.244914	-1.347674
H	-0.122711	1.125736	-1.828438
N	-0.279086	1.32492	0.794374
O	-0.299283	2.378549	0.172512
O	-0.413229	1.194927	2.003695
N	-0.520088	-1.127973	0.611393
H	-1.544874	-1.081716	0.499483
H	-0.290218	-1.134836	1.597354
C	-0.106975	-0.922065	-2.278669
N	0.205724	-1.783765	-3.011759
Cl	-3.490482	0.0	0.0
