14

C	0.0	0.0	0.0
C	-0.492819	0.149893	-1.42872
Br	2.008759	0.0	0.0
H	-1.59143	0.211796	-1.362334
H	-0.112757	1.075707	-1.858444
N	-0.282123	1.3464	0.75647
O	-0.416163	1.251153	1.969047
O	-0.303556	2.382406	0.105351
N	-0.521922	-1.111208	0.640092
H	-0.29469	-1.093883	1.626462
H	-1.54694	-1.06913	0.523613
C	-0.099011	-0.982335	-2.255475
N	0.219359	-1.858027	-2.96885
Cl	-3.491172	0.0	0.0
