14

C	0.0	0.0	0.0
C	-0.521961	-0.260564	-1.406843
Br	1.994654	0.0	0.0
H	-1.597042	-0.026884	-1.380351
H	-0.421219	-1.336273	-1.572537
N	-0.289968	1.482682	0.401446
O	-0.426068	2.303917	-0.494082
O	-0.329242	1.707209	1.605223
N	-0.532243	-0.913474	0.906438
H	-0.328515	-0.608896	1.851684
H	-1.556451	-0.893211	0.768545
C	0.143025	0.445189	-2.492224
N	0.66763	0.934257	-3.421655
Cl	-3.501815	0.0	0.0
