14

C	0.0	0.0	0.0
C	-0.266004	0.224441	-1.507617
Br	1.946234	0.0	0.0
H	0.357191	1.06544	-1.811061
H	0.14671	-0.669423	-1.983256
N	-0.344311	1.285946	0.805021
O	-0.378891	2.347599	0.197395
O	-0.498618	1.132627	2.010054
N	-0.547429	-1.162552	0.527328
H	-0.382581	-1.189344	1.528509
H	-1.571126	-1.07976	0.374923
C	-1.567582	0.478918	-2.135173
N	-2.304149	0.752797	-3.011756
Cl	-3.400526	0.0	0.0
