14

C	0.0	0.0	0.0
C	-0.519159	0.347452	-1.389091
Br	1.942886	0.0	0.0
H	-0.159956	1.332387	-1.682991
H	-1.617911	0.37738	-1.310775
N	-0.321083	1.216365	0.944275
O	-0.429435	0.942232	2.131706
O	-0.394279	2.333728	0.452061
N	-0.529264	-1.199361	0.464131
H	-1.555821	-1.127214	0.40545
H	-0.253707	-1.378205	1.420298
C	-0.106181	-0.646559	-2.369052
N	0.210612	-1.419001	-3.193588
Cl	-3.517189	0.0	0.0
