14

C	0.0	0.0	0.0
C	-0.539703	0.271876	-1.400425
Br	1.937691	0.0	0.0
H	-0.428879	-0.665156	-1.952255
H	-1.617594	0.464961	-1.283979
N	-0.323213	1.223166	0.921469
O	-0.331857	0.990722	2.124682
O	-0.509883	2.309238	0.391175
N	-0.533576	-1.192605	0.499884
H	-1.558721	-1.111219	0.408838
H	-0.302337	-1.279712	1.48327
C	0.10658	1.338388	-2.151571
N	0.584426	2.165623	-2.833914
Cl	-3.51221	0.0	0.0
