15

C	0.0	0.0	0.0
C	-0.458265	0.017398	-1.456684
Cl	1.788573	0.0	0.0
H	-0.030744	0.906321	-1.927899
H	-1.550805	0.118765	-1.387799
N	-0.465291	1.229283	0.607167
H	-0.226356	1.205028	1.59615
H	-1.493147	1.141587	0.545684
N	-0.476978	-1.235547	0.59467
H	-0.175841	-1.271268	1.564095
H	-1.505535	-1.114902	0.580887
N	-0.026027	-1.191489	-2.168794
H	-0.196834	-1.961392	-1.527696
H	-0.658109	-1.32107	-2.954843
H	-3.122868	0.0	0.0
