15

C	0.0	0.0	0.0
C	-0.239509	-0.090473	-1.52835
Cl	1.846333	0.0	0.0
H	0.4193	-0.882158	-1.904077
H	0.147088	0.863073	-1.916996
N	-0.445971	1.261868	0.524947
H	-1.088278	1.148488	1.295403
H	0.28636	1.930909	0.697696
N	-0.537331	-1.141078	0.65693
H	-1.54525	-1.129196	0.450005
H	-0.437627	-1.02063	1.658496
N	-1.611245	-0.367972	-1.916154
H	-2.30832	-0.128898	-1.177925
H	-1.847296	0.194957	-2.724467
H	-3.429765	0.0	0.0
