15

C	0.0	0.0	0.0
C	-0.432728	-0.046356	-1.453506
Cl	1.885384	0.0	0.0
H	-1.532788	-0.05309	-1.361376
H	-0.108826	0.883422	-1.945412
N	-0.512429	1.109979	0.729639
H	-1.540761	0.926677	0.702746
H	-0.333057	1.962234	0.208358
N	-0.414122	-1.177442	0.636058
H	-0.098815	-1.211793	1.593814
H	-0.144549	-1.987136	0.09701
N	0.024217	-1.264753	-2.118933
H	0.952601	-1.124672	-2.497556
H	-0.607073	-1.487063	-2.878428
H	-3.250011	0.0	0.0
