15

C	0.0	0.0	0.0
C	-0.435426	0.055478	-1.452087
Cl	1.885436	0.0	0.0
H	-1.53408	0.064722	-1.356541
H	-0.116463	-0.871324	-1.95048
N	-0.414724	1.17019	0.648197
H	-0.164865	1.987234	0.11045
H	-0.095324	1.203586	1.60381
N	-0.503986	-1.120093	0.721059
H	-1.532029	-0.944001	0.700193
H	-0.319384	-1.967423	0.194895
N	0.020818	1.277733	-2.110286
H	-0.594333	1.488392	-2.886645
H	0.960064	1.148666	-2.46662
H	-3.273838	0.0	0.0
