18
Coordinates from ORCA-job run
  C   0.83849022083774     -0.20155391130302      0.09227504176601
  C   -0.54895570757292      0.20399349841428      0.60372201758547
  H   1.52702256365943     -0.06116616802801      0.94819155162873
  H   -0.79760687652183     -0.47887926836841      1.43346247115752
  N   1.18294554799592      0.65005753533421     -1.04172404523606
  H   1.04310310574492      1.61347816110925     -0.75558694441019
  H   2.15990774045299      0.52821766450658     -1.28138001050422
  C   0.91116584868459     -1.66384472724753     -0.31970375147118
  H   0.30813448513982     -1.83671884116720     -1.21230553853573
  H   0.56458330348384     -2.32061924458903      0.48359244761392
  H   1.94192367356216     -1.94330298738975     -0.55675245541644
  C   -1.63447295544282      0.09625677412841     -0.45633733903215
  H   -1.38356562700774      0.71658190886621     -1.31616572176186
  H   -2.59551391582914      0.42547755059758     -0.04826873044521
  H   -1.75882725513240     -0.93401294508365     -0.79322339048444
  N   -0.45944512817505      1.60151650478297      1.04976369168509
  H   0.08659608183671      1.65089738296807      1.90339908410783
  H   -1.38448510571622      1.95462111246903      1.26604162175293
