18
Coordinates from ORCA-job run
  C   0.70330893437761     -0.01059102228836     -0.30670552920704
  C   -0.73310912990777      0.11142703327835      0.20991377713431
  H   1.15924675681166      0.98244556724912     -0.21117942914732
  H   -1.25164292803265     -0.82825711361364     -0.06031454294784
  N   0.65236420895683     -0.33148469612033     -1.73696038904505
  H   0.37682774617001     -1.30266507140976     -1.84707545216433
  H   1.58017043447414     -0.24527328801717     -2.13610053436822
  C   1.52697253585706     -1.00419489652310      0.51150545158557
  H   1.04820561636449     -1.99102934220249      0.50968942594419
  H   1.64688304277079     -0.67200143829840      1.54460774193350
  H   2.52435871833106     -1.11889795852636      0.07803283588053
  C   -1.45642444591297      1.26896798318987     -0.45897875030728
  H   -1.00648532974433      2.21111928253802     -0.13286561285271
  H   -2.51538737752070      1.28240371405072     -0.18194185524494
  H   -1.37583014970533      1.19063545290071     -1.54184768797540
  N   -0.71516625091878      0.33827717367721      1.65841177460520
  H   -0.53216650971641     -0.53053456850653      2.14663569752597
  H   -1.63212587265469      0.65165318862217      1.95617307865087
