18
Coordinates from ORCA-job run
  C   0.71830311293506     -0.12037253649420     -0.25167187800955
  C   -0.68571658205627      0.01686713646968      0.34413351898538
  H   1.27017724989566      0.80171564064423      0.01309141302659
  H   -1.16693188983669     -0.96422201975919      0.24914615087509
  N   0.61858575312036     -0.30997801382343     -1.70219251153720
  H   0.42813583375810      0.57437795311056     -2.15862324363025
  H   1.51163753971590     -0.63363321103833     -2.05629447996761
  C   1.45156891839541     -1.30859339324226      0.34911947501880
  H   2.49379373474319     -1.33591932032744      0.01542058029797
  H   0.96517660973579     -2.23308417783202      0.02479928954297
  H   1.43030489085718     -1.25621701343790      1.43633560323041
  C   -1.53060136516155      1.04699198237553     -0.40430527546414
  H   -1.71227373439446      0.74355621348362     -1.43723882580240
  H   -2.50087495816035      1.17032994568816      0.08476497030963
  H   -1.03171235512833      2.02380913736465     -0.40422398564218
  N   -0.55202665212208      0.30030848501157      1.77695776558070
  H   -0.25064508068976      1.26276045243612      1.89566055208799
  H   -1.45890102560716      0.22230273937065      2.22312088109779
