18
Coordinates from ORCA-job run
  C   0.83333914776982     -0.07912990616957      0.12149463992196
  C   -0.60337052165911      0.21498956271644      0.58649355680221
  H   1.49783785741871      0.22640215509676      0.94056682429825
  H   -0.89774853486156     -0.61985914773460      1.24668163971268
  N   1.18502532217120      0.75199286905416     -1.03049782387000
  H   0.85109147565626      0.31176137793343     -1.88106931848011
  H   2.19269488736740      0.81659792315469     -1.10889090872823
  C   1.04500944171390     -1.57533419913674     -0.12037783835973
  H   0.39130221151743     -1.93425677025155     -0.92150671153550
  H   2.07752467591840     -1.76796513633891     -0.42404972883105
  H   0.83756855243015     -2.16902313001957      0.77493461493346
  C   -1.58446314959420      0.27549291722505     -0.57464918319840
  H   -1.56706630852095     -0.63812544016770     -1.17481882807324
  H   -1.33804034021352      1.13242355159998     -1.20260651772369
  H   -2.60684784742794      0.40055055056394     -0.20568167108618
  N   -0.63949553695524      1.50200819208051      1.28140178686503
  H   -1.59168240370314      1.70362794738473      1.56683025605206
  H   -0.08167892902761      1.44884668300895      2.12674521130047
