13

C	0.015954	0.021319	0.013176
C	-0.502991	0.021446	-1.427334
Cl	1.834801	-0.144439	-0.000257
H	-0.126024	0.897371	-1.960472
H	-1.600434	0.072192	-1.358695
C	-0.219033	1.357763	0.60352
N	-0.390911	2.409132	1.1005
N	-0.549909	-1.071443	0.721963
H	-0.340745	-1.004605	1.711032
H	-1.573282	-1.040063	0.589283
C	-0.1119	-1.18537	-2.148128
N	0.205884	-2.117807	-2.7857
Cl	-3.58823	-0.39135	-0.028302
