15

C	0.0	0.0	0.0
C	-0.464298	0.239079	-1.476156
Br	1.912441	0.0	0.0
H	-1.452555	0.687934	-1.388251
H	-0.350583	0.76761	0.672312
N	-0.269071	-1.450121	0.565195
O	-1.082964	-1.638218	1.469319
O	0.459395	-2.328676	0.104359
N	-0.538087	-0.898944	-2.329447
H	0.268081	-1.504098	-2.199058
H	-1.374692	-1.383746	-2.024064
N	0.418851	1.313983	-2.071935
O	1.116365	1.082237	-3.055992
O	0.33053	2.414851	-1.523846
F	-2.40625	0.0	0.0
