15

C	0.0	0.0	0.0
C	-0.263326	0.127731	-1.547598
Br	1.926112	0.0	0.0
H	0.150447	-0.775536	-1.994809
H	-0.377454	0.806906	0.609205
N	-0.413635	-1.297088	0.607854
O	-0.525073	-1.310398	1.827123
O	-0.471146	-2.270823	-0.133127
N	0.305874	1.303745	-2.178236
H	1.263033	1.430667	-1.896957
H	-0.247658	2.10094	-1.893476
N	-1.696034	0.138125	-2.06776
O	-2.230326	1.225905	-2.236556
O	-2.112089	-0.927901	-2.50539
F	-2.248381	0.0	0.0
