15

C	0.0	0.0	0.0
C	-0.383414	0.258704	-1.498775
Br	1.920953	0.0	0.0
H	0.535495	0.480218	-2.04142
H	-0.351659	0.836969	0.587442
N	-0.494956	-1.21805	0.724051
O	-0.546012	-1.08693	1.942801
O	-0.714807	-2.244939	0.103888
N	-1.296466	1.318927	-1.601532
H	-2.11707	0.9693	-1.026637
H	-1.51823	1.486712	-2.573763
N	-0.780016	-1.04799	-2.250156
O	0.150574	-1.812326	-2.503793
O	-1.92822	-1.170152	-2.653424
F	-2.53042	0.0	0.0
