15

C	-0.576505	0.004058	-1.412442
C	0.0	0.0	0.0
Cl	0.159388	-1.293602	-2.374153
H	1.090064	0.0	0.0
H	-0.321047	0.910692	0.515279
C	-2.084857	-0.111735	-1.473471
H	-2.393096	-1.046916	-1.006227
H	-2.419259	-0.093949	-2.508602
H	-2.540099	0.72396	-0.933869
N	-0.182674	1.319995	-2.092424
O	0.662282	2.014369	-1.542745
O	-0.753588	1.58019	-3.149248
C	-0.500897	-1.155333	0.735911
N	-0.943545	-2.070613	1.323457
Br	3.481094	0.0	0.0
