15

C	-0.431467	0.023653	-1.453915
C	0.0	0.0	0.0
Cl	-2.20265	0.273904	-1.588816
H	1.101385	0.0	0.0
H	-0.299442	0.962861	0.4251
C	0.319083	1.090986	-2.218769
H	0.101994	2.067139	-1.781243
H	0.018769	1.085145	-3.264901
H	1.391565	0.894508	-2.117913
N	-0.140771	-1.313526	-2.13725
O	0.376428	-2.196174	-1.465219
O	-0.428293	-1.386094	-3.327283
C	-0.592115	-1.05257	0.809334
N	-1.111707	-1.844083	1.504537
Br	3.470944	0.0	0.0
