15

C	-0.388541	0.097288	-1.466199
C	0.0	0.0	0.0
Cl	-2.172878	0.142701	-1.677726
H	1.103252	0.0	0.0
H	-0.365277	-0.928609	0.437438
C	0.259235	1.270895	-2.153464
H	1.342234	1.180441	-2.029107
H	-0.078916	2.189091	-1.670994
H	0.001114	1.296019	-3.209915
N	0.03729	-1.210926	-2.1451
O	-0.08983	-2.242181	-1.495714
O	0.419331	-1.139254	-3.307563
C	-0.494292	1.144779	0.748903
N	-0.903287	2.065204	1.352544
Br	3.444592	0.0	0.0
