15

C	-0.531699	-0.211753	-1.415149
C	0.0	0.0	0.0
Cl	0.097786	-1.715493	-2.084446
H	1.102097	0.0	0.0
H	-0.327115	0.983443	0.346105
C	-2.046814	-0.197622	-1.516917
H	-2.454374	-1.035901	-0.95118
H	-2.430524	0.739021	-1.108172
H	-2.35177	-0.29361	-2.561238
N	-0.045	0.974854	-2.26311
O	-0.309627	2.074711	-1.782706
O	0.476601	0.772381	-3.34768
C	-0.52504	-1.018845	0.896828
N	-0.989927	-1.824623	1.613396
Br	3.458406	0.0	0.0
