15

C	-0.394927	-0.019359	-1.467354
C	0.0	0.0	0.0
Cl	-2.179371	0.006183	-1.670543
H	1.098945	0.0	0.0
H	-0.361045	-0.890545	0.513347
C	0.248303	1.099533	-2.243637
H	-0.084571	2.051202	-1.828622
H	1.331294	1.016879	-2.118183
H	-0.017637	1.046096	-3.297119
N	0.026924	-1.371203	-2.057148
O	0.044814	-2.335825	-1.303508
O	0.256441	-1.399857	-3.261855
C	-0.49777	1.200319	0.655745
N	-0.914506	2.159396	1.188266
Br	3.448191	0.0	0.0
