15

C	-0.386245	-0.047218	-1.469322
C	0.0	0.0	0.0
Cl	-2.168916	-0.030172	-1.687942
H	1.097695	0.0	0.0
H	-0.365146	-0.881832	0.525442
C	0.25941	1.056169	-2.266003
H	1.342649	0.982622	-2.130542
H	0.004526	0.976712	-3.320391
H	-0.084508	2.016228	-1.876716
N	0.046808	-1.413242	-2.017996
O	0.415389	-1.454433	-3.186672
O	-0.064383	-2.376275	-1.268069
C	-0.496926	1.212362	0.630312
N	-0.906262	2.190787	1.134209
Br	3.446615	0.0	0.0
