15

C	-0.39587	-0.316506	-1.431064
C	0.0	0.0	0.0
Cl	-0.115335	1.08908	-2.478484
H	1.097643	0.0	0.0
H	-0.316493	-0.828155	0.639134
C	0.379368	-1.509615	-1.94982
H	1.445629	-1.300118	-1.831058
H	0.133026	-1.694912	-2.994408
H	0.12638	-2.391568	-1.35341
N	-1.889687	-0.649429	-1.537069
O	-2.540093	-0.692361	-0.495528
O	-2.32191	-0.905248	-2.655443
C	-0.556164	1.238782	0.521026
N	-1.006247	2.229816	0.960493
Br	3.481519	0.0	0.0
