16

C	-0.389358	0.268834	-1.430242
C	0.0	0.0	0.0
Br	-0.214504	-1.244411	-2.644895
H	1.093975	0.0	0.0
H	0.240087	1.057602	-1.833478
N	-1.801253	0.774671	-1.591403
O	-1.96866	1.734688	-2.34202
O	-2.693949	0.207489	-0.963937
C	-0.517209	-1.260566	0.662949
H	-0.026685	-1.337843	1.638097
H	-1.603386	-1.252236	0.80465
H	-0.245029	-2.151084	0.092898
N	-0.368297	1.242335	0.700113
H	0.436747	1.512839	1.252484
H	-1.157425	1.0897	1.317385
F	2.633091	0.0	0.0
