16

C	-0.612113	0.059331	-1.388651
C	0.0	0.0	0.0
Br	0.298555	1.3123	-2.552729
H	1.093614	0.0	0.0
H	-1.654864	0.371374	-1.359359
N	-0.631312	-1.295527	-2.035636
O	0.406452	-1.770321	-2.476308
O	-1.721899	-1.875597	-1.999811
C	-0.46059	-1.234511	0.762117
H	0.009593	-1.197907	1.748303
H	-0.117339	-2.153115	0.281346
H	-1.551749	-1.288423	0.883748
N	-0.407665	1.252669	0.662418
H	0.449514	1.669942	1.007546
H	-0.999278	1.053042	1.460787
F	2.625618	0.0	0.0
