16

C	-0.330017	0.052451	-1.487051
C	0.0	0.0	0.0
Br	0.385869	-1.423364	-2.513099
H	1.094801	0.0	0.0
H	0.074974	0.963044	-1.92071
N	-1.817659	0.125493	-1.700842
O	-2.485916	-0.902693	-1.742837
O	-2.289601	1.270499	-1.690479
C	-0.606537	-1.182056	0.725438
H	-1.69584	-1.09795	0.823754
H	-0.375897	-2.126299	0.228324
H	-0.175295	-1.203538	1.727599
N	-0.35587	1.258154	0.663333
H	0.442489	1.874451	0.566863
H	-1.16694	1.706596	0.252684
F	2.615465	0.0	0.0
