16

C	-0.610418	0.037602	-1.389137
C	0.0	0.0	0.0
Br	0.285605	1.290848	-2.563638
H	1.093636	0.0	0.0
H	-1.657878	0.334655	-1.366844
N	-0.609945	-1.324397	-2.023
O	-1.693133	-1.918762	-1.982365
O	0.432976	-1.789536	-2.460165
C	-0.457	-1.227235	0.776239
H	-0.100973	-2.149648	0.31203
H	0.00342	-1.172279	1.766123
H	-1.548783	-1.288906	0.888828
N	-0.413802	1.259132	0.645226
H	-1.013191	1.068479	1.43987
H	0.439994	1.680856	0.994009
F	2.624327	0.0	0.0
