16

C	-0.610756	0.056984	-1.385757
C	0.0	0.0	0.0
Br	0.213303	1.414645	-2.504301
H	1.09919	0.0	0.0
H	-1.672824	0.293396	-1.346763
N	-0.521464	-1.271065	-2.078042
O	0.552608	-1.64932	-2.524286
O	-1.566951	-1.92937	-2.07544
C	-0.492962	-1.226787	0.748314
H	-0.154918	-2.145397	0.265864
H	-0.037278	-1.212124	1.742548
H	-1.584943	-1.256802	0.852533
N	-0.483406	1.233803	0.674092
H	0.265241	1.91081	0.544831
H	-0.48635	1.039496	1.670939
F	2.638483	0.0	0.0
