18

C	-0.380013	-0.057043	-1.484781
C	0.0	0.0	0.0
F	-0.139664	1.229964	-2.009759
H	1.100581	0.0	0.0
C	0.577429	-1.008622	-2.174388
H	0.343057	-2.036699	-1.892785
H	0.496234	-0.899381	-3.260204
H	1.584886	-0.76928	-1.819808
C	-1.844497	-0.353727	-1.734916
H	-2.465721	0.422716	-1.27824
H	-2.047994	-0.371726	-2.80981
H	-2.103988	-1.322865	-1.305967
N	-0.376092	-1.260728	0.664373
H	0.401604	-1.510304	1.264042
H	-1.198254	-1.141269	1.244098
C	-0.565287	1.171005	0.656647
N	-1.049533	2.071396	1.239807
F	2.625059	0.0	0.0
