18

C	-0.354102	0.010044	-1.494861
C	0.0	0.0	0.0
F	0.09239	-1.22197	-2.001245
H	1.095027	0.0	0.0
C	-1.840379	0.061983	-1.776007
H	-2.270147	1.005423	-1.430157
H	-2.025838	-0.041373	-2.849487
H	-2.321295	-0.767354	-1.252472
C	0.478105	1.081253	-2.173059
H	0.131853	2.081722	-1.898931
H	0.419463	0.971095	-3.260082
H	1.505826	0.944709	-1.820883
N	-0.515011	-1.201888	0.675637
H	-1.105866	-0.950858	1.458161
H	0.296226	-1.684786	1.04337
C	-0.475894	1.223036	0.626516
N	-0.889569	2.191818	1.152422
F	2.618676	0.0	0.0
