18

C	-0.370581	-0.070782	-1.487907
C	0.0	0.0	0.0
F	-0.131103	1.214624	-2.019935
H	1.094781	0.0	0.0
C	0.596047	-1.022996	-2.163796
H	0.532943	-0.911398	-3.250357
H	0.357518	-2.052125	-1.887844
H	1.598358	-0.783541	-1.793234
C	-1.832131	-0.370789	-1.745084
H	-2.456359	0.406517	-1.295186
H	-2.028692	-0.393018	-2.821301
H	-2.093015	-1.338747	-1.313553
N	-0.381488	-1.253162	0.672614
H	-1.218145	-1.133375	1.231529
H	0.384624	-1.494032	1.290963
C	-0.569688	1.178875	0.639863
N	-1.074934	2.080202	1.203433
F	2.628645	0.0	0.0
