18

C	-0.397658	-0.032779	-1.478217
C	0.0	0.0	0.0
F	-0.139717	1.255919	-1.990795
H	1.100652	0.0	0.0
C	0.535869	-0.993954	-2.19013
H	1.551082	-0.77856	-1.84044
H	0.280987	-2.022296	-1.925163
H	0.450147	-0.865265	-3.273743
C	-1.870334	-0.299359	-1.713296
H	-2.146512	-1.261452	-1.276753
H	-2.468371	0.492432	-1.250907
H	-2.085464	-0.314752	-2.785803
N	-0.363247	-1.276361	0.645044
H	-1.141316	-1.163166	1.283361
H	0.45075	-1.555919	1.182229
C	-0.564604	1.152928	0.68687
N	-1.045263	2.039949	1.292634
F	2.622651	0.0	0.0
