18

C	-0.224639	-0.002532	-1.506512
C	0.0	0.0	0.0
F	-1.608796	-0.038694	-1.817861
H	1.095548	0.0	0.0
C	0.376897	1.258831	-2.090472
H	1.414138	1.299534	-1.746039
H	-0.160842	2.143741	-1.740978
H	0.338474	1.230497	-3.183355
C	0.440865	-1.236996	-2.078174
H	-0.058033	-2.131021	-1.708732
H	0.414681	-1.219112	-3.172135
H	1.473405	-1.222654	-1.714813
N	-0.470508	-1.22343	0.64839
H	0.145294	-1.415106	1.428519
H	-1.41195	-1.107114	1.001865
C	-0.524082	1.208109	0.635336
N	-0.961644	2.147103	1.194103
F	2.634706	0.0	0.0
