13

C	-0.464072	0.09997	-1.447124
C	0.0	0.0	0.0
Cl	-2.234332	0.346252	-1.576385
H	1.089129	0.0	0.0
H	0.011628	0.930047	-1.969761
H	-0.373868	-0.933566	0.426485
N	-0.108388	-1.142455	-2.258242
O	0.82557	-1.815481	-1.818459
O	-0.706226	-1.336101	-3.311771
N	-0.401336	1.133527	0.822192
H	0.255849	1.890713	0.69271
H	-1.33531	1.453339	0.607961
Cl	3.464938	0.0	0.0
