13

C	-0.404436	-0.207655	-1.46306
C	0.0	0.0	0.0
Cl	-0.076916	1.1967	-2.475873
H	1.092851	0.0	0.0
H	0.104842	-1.06931	-1.888639
H	-0.338118	-0.896577	0.533545
N	-1.871184	-0.53881	-1.524072
O	-2.686208	0.371586	-1.391844
O	-2.149129	-1.735421	-1.60024
N	-0.492906	1.194272	0.649638
H	-1.442689	1.405608	0.370047
H	0.099118	1.973735	0.398401
Cl	3.43629	0.0	0.0
