13

C	-0.576433	-0.116227	-1.39643
C	0.0	0.0	0.0
Cl	-0.021734	-1.556432	-2.241369
H	1.098365	0.0	0.0
H	-1.664162	-0.15159	-1.347999
H	-0.359107	0.950704	0.401035
N	-0.266294	1.137247	-2.193456
O	-0.841721	2.136994	-1.764239
O	0.480935	1.098409	-3.157378
N	-0.566233	-1.094988	0.804413
H	-0.447124	-0.842142	1.778564
H	0.029747	-1.90392	0.663671
Cl	3.483731	0.0	0.0
