13

C	-0.607762	-0.004338	-1.379352
C	0.0	0.0	0.0
Cl	0.024512	-1.307104	-2.398173
H	1.0942	0.0	0.0
H	-1.691414	-0.100248	-1.339863
H	-0.323491	-0.93623	0.466468
N	-0.389151	1.302659	-2.105988
O	0.543043	2.014755	-1.754118
O	-1.183189	1.549115	-3.012166
N	-0.590617	1.134966	0.726049
H	0.071875	1.899525	0.667487
H	-0.660549	0.890823	1.705593
Cl	3.530398	0.0	0.0
