13

C	-0.426426	0.009724	-1.444154
C	0.0	0.0	0.0
Cl	-2.195064	0.066366	-1.678079
H	1.102344	0.0	0.0
H	-0.005003	0.868775	-1.961737
H	-0.3199	0.968991	0.397545
N	0.072477	-1.175797	-2.234366
O	0.164798	-2.257755	-1.663013
O	0.320695	-0.968284	-3.418772
N	-0.620852	-1.052488	0.801326
H	-0.151808	-1.921405	0.579618
H	-0.403626	-0.849117	1.76967
Cl	3.46241	0.0	0.0
