13

C	-0.62466	0.0977	-1.368365
C	0.0	0.0	0.0
Cl	0.043475	-1.079729	-2.509663
H	1.092466	0.0	0.0
H	-1.70259	-0.04285	-1.327113
H	-0.321016	-0.968953	0.396729
N	-0.464259	1.472042	-1.969596
O	-1.337796	1.814494	-2.766236
O	0.50597	2.140742	-1.635896
N	-0.590127	1.071856	0.817123
H	0.047536	1.858782	0.7738
H	-0.595248	0.768047	1.782308
Cl	3.525974	0.0	0.0
