16
Coordinates from ORCA-job run
  C   0.72413301286051      0.08343458340522      0.33135888444382
  C   -0.79075656894199     -0.15546501602791      0.17763950129294
  F   0.89454198979929      0.71781506085228      1.55931422090037
  H   -1.07428110398561     -0.78379186297582      1.03098913309163
  C   1.20054469369564      1.00456931110433     -0.71586328554253
  N   1.57906365151108      1.72816234817776     -1.55974158573082
  C   1.53848751316505     -1.19469476319487      0.34307529682966
  H   1.47438926175055     -1.70751866747178     -0.61736307113394
  H   1.16150739358309     -1.85061619937725      1.13072191727774
  H   2.58208975806036     -0.95524979305828      0.55149360433425
  C   -1.04503887673182     -0.91202983517073     -1.04849465396525
  N   -1.24855720306256     -1.50587470843610     -2.04098343842113
  C   -1.59817989676894      1.14465673993106      0.20699990446792
  H   -2.66597729931891      0.92143582104699      0.19410429440229
  H   -1.36629575757442      1.69933774462764      1.11619175262331
  H   -1.36467056804132      1.76582923656746     -0.65944247487025
