16
Coordinates from ORCA-job run
  C   0.69448288862989     -0.09583994215388      0.62588736185482
  C   -0.82781731213244      0.09233011198047      0.46592264359723
  F   0.89417732222409     -0.76511435786442      1.82760597503098
  H   -1.16923600516515      0.59218551056300      1.37980295924695
  C   1.32152759002181      1.23336092245314      0.74847571709409
  N   1.81017466356966      2.29868110866266      0.82103395233006
  C   1.35069065294434     -0.90070759931332     -0.47797733226753
  H   2.40359907053842     -1.04484146227599     -0.23207484239765
  H   1.28308072909984     -0.38669728733037     -1.43753459193116
  H   0.86750918370012     -1.87664283354909     -0.54940443921359
  C   -1.46592866030768     -1.22490446580721      0.41577540653241
  N   -1.98146965540754     -2.27654678255739      0.33462823691013
  C   -1.21549758196005      0.93127475710418     -0.75535487494061
  H   -0.93668039365043      0.43018547344765     -1.68305906168103
  H   -2.29534959427608      1.08462580102170     -0.76723827407930
  H   -0.73126289782877      1.90865104561884     -0.71648883608579
