16
Coordinates from ORCA-job run
  C   0.68848501370339     -0.24222380980222      0.37614212097060
  C   -0.74484165208631      0.30948251826739      0.23022344267948
  F   0.60535541914964     -1.62655432358026      0.45795615375173
  H   -0.67654192068092      1.40381724580605      0.25699669713812
  C   1.27325124582221      0.25137034235335      1.63689315134325
  N   1.75609055283600      0.68439608565592      2.61593366929519
  C   1.59271713707916      0.10895992269872     -0.79080087618187
  H   2.59840952758427     -0.26263427738794     -0.59135019520775
  H   1.22165186206721     -0.36743162002417     -1.69798254350668
  H   1.63813317682406      1.19009404843065     -0.93622187992912
  C   -1.54185186557415     -0.11251553803905      1.38613888201949
  N   -2.20399781870342     -0.45881722506525      2.29150459661242
  C   -1.42084582127104     -0.13781602246545     -1.07028452136705
  H   -1.37559194310362     -1.22338648599149     -1.16450765006546
  H   -0.94245732766898      0.32027157555989     -1.93646288515334
  H   -2.46896558597750      0.16398756358387     -1.06417816239900
