16
Coordinates from ORCA-job run
  C   0.65889840433677     -0.22302426358018      0.43685626731270
  C   -0.73518990724316      0.37409534265659      0.15312473410694
  F   0.49617044760451     -1.57748490903964      0.69902224551590
  H   -0.60838311020221      1.45761702938192      0.03971632052678
  C   1.22010335798385      0.40854928445092      1.64558414197992
  N   1.68555801987103      0.94926150349379      2.57839440828314
  C   1.62605039718355     -0.07917375249478     -0.72353298445789
  H   1.73602620387489      0.96836987764406     -1.01095600836251
  H   1.26544505034633     -0.65672342707427     -1.57441521486442
  H   2.60142081211729     -0.46841625525064     -0.42943356250831
  C   -1.59869715771270      0.14848879868069      1.31639989903588
  N   -2.31351366075556     -0.04362217289489      2.22750764837639
  C   -1.38281545434035     -0.20844538909725     -1.10758494045223
  H   -0.84460998228486      0.10395385145102     -2.00294751546718
  H   -2.41117307734382      0.14523879636661     -1.19106835034084
  H   -1.39629034343558     -1.29768431469395     -1.05566708868429
