16
Coordinates from ORCA-job run
  C   0.72663745628695     -0.10729135411106      0.58634019287847
  C   -0.80203226564013      0.08206325006235      0.51105208571573
  F   0.99042137379687     -0.79965803101217      1.76217683014155
  H   -1.09495240260157      0.56419918895134      1.45093394499983
  C   1.35854306223810      1.22031852026604      0.70078000118836
  N   1.84498321716080      2.28704192995809      0.76651391723203
  C   1.32370046525767     -0.88896551043299     -0.56679811992484
  H   2.38714096247837     -1.04003068729528     -0.37681679539495
  H   0.83510535403279     -1.86236198759678     -0.63598259084072
  H   1.20990792640157     -0.35354641365118     -1.51006237860612
  C   -1.44155142940485     -1.23474224389083      0.47100573947467
  N   -1.95964490207780     -2.28613181530968      0.40282327415830
  C   -1.25381148878890      0.94287149755608     -0.67246304717513
  H   -2.33218614333238      1.09816516282407     -0.62236509590833
  H   -0.76569448895606      1.91860097550264     -0.64363758817059
  H   -1.02756669685143      0.45746751817936     -1.62250036976825
