17

C	0.0	0.0	0.0
C	-0.655552	0.075159	-1.371908
Cl	1.796994	0.0	0.0
H	-1.778996	0.023465	-1.025755
C	-0.370571	1.197214	0.772685
N	-0.557744	2.174989	1.397039
C	-0.465572	-1.251705	0.733568
H	-0.066091	-1.270801	1.749602
H	-1.564116	-1.199098	0.74543
H	-0.122332	-2.135627	0.191711
C	-0.321396	-1.090438	-2.165384
N	-0.096148	-2.039325	-2.825476
C	-0.404999	1.373003	-2.130086
H	-0.89241	1.331292	-3.107073
H	-0.838578	2.206045	-1.571605
H	0.66277	1.559212	-2.280702
H	-3.00273	0.0	0.0
