18
Coordinates from ORCA-job run
  C   0.79314446231953      0.09153740743636      0.02119184152099
  C   -0.73936048221271      0.04893470966088      0.14936114595883
  Br  1.63094515218404     -1.41513052517789      0.98871766157861
  H   -1.11550483516261      0.82878958397315     -0.52057956487635
  C   1.19377902143925     -0.06165627289450     -1.44470337238150
  H   0.87796627513499     -1.01406860311772     -1.87160983935033
  H   2.28031077614874      0.00034547056370     -1.53078412458483
  H   0.75325093794475      0.75796428590635     -2.02266447242749
  N   1.26827477538716      1.29474150736758      0.65211097124207
  H   2.25487498369509      1.43127867038861      0.47098614002854
  H   0.74474290549781      2.10525091670658      0.33904385479605
  N   -1.14359526023368      0.53923395176118      1.51102060919703
  O   -1.14753966076296     -0.27129147523743      2.43087777785396
  O   -1.44170196709170      1.73010431876493      1.59817223391224
  C   -1.41903409279869     -1.27299715695536     -0.13815916675473
  H   -1.12034912034526     -2.02360269857200      0.59011983100361
  H   -1.16781232715393     -1.62366257120581     -1.13981140229611
  H   -2.50239154398983     -1.14477151936861     -0.08529012442059
