18
Coordinates from ORCA-job run
  C   0.79378133373575      0.06234208041692      0.06466299443073
  C   -0.74365678475801      0.07282277218506      0.11305247458397
  Br  1.52595593708881     -1.49535917513209      1.03764322411358
  H   -1.05683071353553      0.88128763379471     -0.55538913076634
  C   1.26491824237036     -0.07316754286629     -1.38181086450084
  H   2.35598108662027     -0.04954322302176     -1.41016863389957
  H   0.88498498925202      0.77489637562896     -1.96176294459580
  H   0.93798390621050     -1.00346718565227     -1.84733314969631
  N   1.27773250457146      1.23301767772185      0.74781635970913
  H   0.79839349911375      2.06857627067667      0.42993448561431
  H   2.27622940430609      1.33875791697994      0.61882200446834
  N   -1.20118706187665      0.54468347348119      1.46439642538010
  O   -1.45979667569880      1.74348198586338      1.56724831062838
  O   -1.28398766230451     -0.28755103118830      2.36081940710612
  C   -1.45384331617577     -1.21588269520452     -0.24370179198959
  H   -1.21777318530007     -1.99642641648239      0.47600206630315
  H   -2.53335463246319     -1.04993130571456     -0.23909479888596
  H   -1.16653087115648     -1.54753761148651     -1.24213643800337
