18
Coordinates from ORCA-job run
  C   0.76655553042092      0.41358856729551      0.13562208804564
  C   -0.70856809682685      0.25867070659318      0.54996574440805
  Br  1.78630392469413      0.85886721399809      1.75817991539980
  H   -0.98580805783882      1.16496727043386      1.08706234686368
  C   1.41237503521431     -0.81304072312085     -0.49161435138627
  H   2.43870128505571     -0.56559429603774     -0.76941913479763
  H   1.42279175471767     -1.67041740954388      0.17808440742139
  H   0.86652949401731     -1.09175662165518     -1.39812276339952
  N   0.80418063472802      1.59868328091997     -0.71894528010085
  H   0.65415858152731      1.30694762963779     -1.68048614824564
  H   1.72397406324742      2.02101940321642     -0.67371075814458
  N   -0.89686458344232     -0.85186088475834      1.53865781442039
  O   -0.76890808729721     -2.00434688843045      1.12423204238249
  O   -1.19146174591811     -0.53770594436650      2.68951664324537
  C   -1.64614171869967      0.01628614526022     -0.62198111812290
  H   -1.39632543567120     -0.90037649158926     -1.15524186266340
  H   -1.61123766786364      0.86965281361554     -1.29924464040380
  H   -2.67025491006499     -0.07558377146836     -0.25355494492220
