18
Coordinates from ORCA-job run
  C   0.81191738557210      0.34294630664168     -0.10511434374316
  C   -0.54203802602248      0.10811546983537      0.62094609506733
  Br  1.50545179003995      2.01972334462017      0.67749715197853
  H   -0.38023055185072      0.15087179680945      1.69810670477864
  C   1.80310510352513     -0.76408976204788      0.21198403396715
  H   2.77955453767320     -0.49236972395242     -0.18664340267603
  H   1.88027483435431     -0.93555610977237      1.28660823797953
  H   1.48310076981987     -1.69409396393633     -0.26827349388440
  N   0.75677167833237      0.54148965447565     -1.52791627505580
  H   0.37548675160680     -0.29145211065210     -1.96517495919745
  H   0.17169462358922      1.33171067669913     -1.77015995742849
  N   -0.93657418603415     -1.31765219926635      0.36265386252442
  O   -0.90297782962295     -2.09849779847949      1.31112064113054
  O   -1.23584903946897     -1.61724389009802     -0.79472765082263
  C   -1.67806108662518      1.01173887492269      0.18738376457044
  H   -2.57306877817892      0.79505963084976      0.77442205645849
  H   -1.40526237959706      2.05462999607698      0.35120035090446
  H   -1.91429559711252      0.85666980727408     -0.86491281655158
