18
Coordinates from ORCA-job run
  C   0.73048051667100      0.27680828048149     -0.18130087335217
  C   -0.53907212491180      0.03767329718697      0.65304577359154
  Br  1.53782711883603      1.97573183946908      0.68006539769790
  H   -0.25619682256783      0.03217505298496      1.70501229534929
  C   1.78812059665747     -0.79443185124939      0.01018695051495
  H   1.97845772100942     -0.97552039996031      1.06704784821488
  H   1.45031209448876     -1.72160805345798     -0.45798341136205
  H   2.72154282311416     -0.48146868030864     -0.46141143363029
  N   0.43894046552186      0.45327649358373     -1.53948842526327
  H   1.27227143665159      0.54192109410452     -2.10551750739329
  H   -0.19145131777069      1.21979136617499     -1.72904683018530
  N   -0.99448339725466     -1.37842931847853      0.39027858724187
  O   -0.59440038067804     -2.23520252725533      1.17901730199369
  O   -1.70704660484531     -1.58565526740978     -0.58745007342446
  C   -1.68942986606760      0.98638498471028      0.38601048950581
  H   -2.06270384316193      0.86792586892851     -0.63051790791631
  H   -2.51332567554370      0.76779066599387      1.06810279384992
  H   -1.36884274014872      2.01483715450158      0.55294902456728
