18
Coordinates from ORCA-job run
  C   0.79637886292837      0.02879366739037      0.04773352216085
  C   -0.73817035741654      0.09618924502149      0.13275075539602
  Br  1.48804527770742     -1.59408420290877      0.93984908356671
  H   -1.03418239880890      0.94078862245914     -0.49773297773919
  C   1.22994018291334     -0.06477259410922     -1.41376831849972
  H   0.87054039876767      0.82027470989140     -1.94985614080141
  H   0.85701742071119     -0.96200832281173     -1.90873184789703
  H   2.32021593818400     -0.08157603291770     -1.46683464501148
  N   1.34108973973609      1.15120391896841      0.76591204768049
  H   0.89161275161773      2.01720743095717      0.48810893575276
  H   2.34047486058522      1.22074503850229      0.61985265961954
  N   -1.14622950770669      0.53387495269795      1.51140285888956
  O   -1.23927712014466     -0.32782367255036      2.37842660228678
  O   -1.35664174625504      1.73666429099869      1.66418028988464
  C   -1.50573555041513     -1.15015095512984     -0.25409051953248
  H   -1.24786571997945     -1.46009992533505     -1.26741164269687
  H   -2.57740818106513     -0.94126093140231     -0.22538130575022
  H   -1.28980485135950     -1.96296523972196      0.43559064269104
