18
Coordinates from ORCA-job run
  C   0.75816935096876      0.23570361282194     -0.02780906992457
  C   -0.76776122401090      0.14752306181287      0.17377999775925
  Br  1.59986067478476     -1.08930336256912      1.29061645339133
  H   -1.17571169821489      1.03369941826736     -0.32426003173282
  C   1.17297423267061     -0.25490270044679     -1.40461960651460
  H   0.66162975076850      0.34443311488556     -2.16379011685727
  H   0.95013048178618     -1.30965894863434     -1.54945247672871
  H   2.24945587741665     -0.11836432647548     -1.52565467362354
  N   1.21823106898775      1.55356296981529      0.16420346955924
  H   2.22370357588978      1.61583691690999      0.07197493729217
  H   0.91652930856180      1.94908756737033      1.04521343568312
  N   -1.11000936098062      0.36473673071687      1.62958446519284
  O   -0.82257170673434      1.46596045771831      2.10172496859359
  O   -1.64589249499001     -0.54663738204485      2.24791146084560
  C   -1.42664710646017     -1.11562539170045     -0.33461115612407
  H   -2.48493907600306     -1.11212944043096     -0.07454691597041
  H   -1.34536272954013     -1.15912669653539     -1.42095525172438
  H   -0.97178892490068     -2.00379560148114      0.10269011088322
