18
Coordinates from ORCA-job run
  C   0.84133666278538      0.08601643773212      0.05806133125203
  C   -0.70766707164047      0.16434901347413      0.16743552980702
  Br  1.46505697584677     -1.32899724422394      1.29405722520914
  H   -0.98732887474980      1.08157109000372     -0.36232915988968
  C   1.24274867521151     -0.32019381516015     -1.35144340467425
  H   0.90893273010460     -1.32509380441659     -1.60130809719671
  H   0.81686152159357      0.38588246474070     -2.07440006294068
  H   2.33019806094142     -0.28269610398012     -1.42102707255530
  N   1.54681369306824      1.28735077800479      0.40298838445632
  H   1.46660217344783      1.95980765341065     -0.35211416827853
  H   1.17835411702284      1.70359694344758      1.24950180521449
  N   -1.10292712481401      0.44348812334379      1.59259397838871
  O   -1.63830784122256     -0.45204048682469      2.23688334757435
  O   -0.83761628425604      1.56762051283117      2.02512934270794
  C   -1.47986366401226     -1.02438810530659     -0.36405983310962
  H   -1.36357048821644     -1.08472139645686     -1.44657585179349
  H   -2.54184402140977     -0.90906742031131     -0.14407469271263
  H   -1.13777923970082     -1.95248464030840      0.09168139854090
