18
Coordinates from ORCA-job run
  C   0.76984854969236      0.19319221653875     -0.02999900270924
  C   -0.75600318611099      0.18368496484742      0.19024623911780
  Br  1.55110334626945     -1.22765411726066      1.22375251338813
  H   -1.11870889688976      1.11099162424150     -0.26618290257245
  C   1.13945504641953     -0.26512802680002     -1.43058545039800
  H   0.85390640448126     -1.29852134522343     -1.61413831523707
  H   0.65549049088847      0.39305339383685     -2.15833551088464
  H   2.22065983224506     -0.18633593635684     -1.56071883666034
  N   1.30648790460964      1.47469758112133      0.20626642719074
  H   2.31297340523673      1.48278191968916      0.10414182097347
  H   1.03794199510827      1.85072190368179      1.10644574141826
  N   -1.06717021835222      0.36150838853263      1.65827889878179
  O   -0.71178440509553      1.42537798922575      2.16838814168704
  O   -1.64573807362543     -0.54220181020278      2.24871640653108
  C   -1.49242587094048     -1.01876156489601     -0.35759035352704
  H   -1.08300445840732     -1.94781970049057      0.03773229136932
  H   -2.54535675912764     -0.96624387673868     -0.08152860178087
  H   -1.42767510640140     -1.02334360374620     -1.44588950668799
