18
Coordinates from ORCA-job run
  C   0.77133469478374      0.37456579147767      0.03125443075972
  C   -0.68877330815797      0.25918705185864      0.50209134152221
  Br  1.89148484626827      0.66272590655781      1.70198719906699
  H   -0.97651330383374      1.21512610237882      0.94486641847725
  C   1.34615813964481     -0.84345769360598     -0.66576892665404
  H   0.79615676791688     -1.02129455161006     -1.59263337509918
  H   2.39320623662668     -0.65646412280198     -0.91360220328523
  H   1.28966425956006     -1.72581379452936     -0.03431785950977
  N   0.83300494254643      1.50290794738400     -0.83048748160572
  H   1.75346787105368      1.59784865420109     -1.24166126746079
  H   0.60451513143616      2.36267556992736     -0.34551218675794
  N   -0.85396488181011     -0.71869659185190      1.62525188036811
  O   -0.60759478165258     -1.89935338306919      1.38631535261611
  O   -1.26606856207229     -0.27744059160043      2.69472578013150
  C   -1.64309230948837     -0.13780003826013     -0.61360766257778
  H   -1.52393044919856      0.54649115552214     -1.45257714581271
  H   -1.44775881799846     -1.15753248706975     -0.94393090644438
  H   -2.67229647562463     -0.08367492490875     -0.25139338773433
