18
Coordinates from ORCA-job run
  C   0.79743122472047      0.38490060672170     -0.06539471392296
  C   -0.59733145745114      0.11716038259795      0.56605437044431
  Br  1.32606925532840      2.15255267405880      0.64118305938413
  H   -0.52950048250063      0.24604496170792      1.64638510083362
  C   1.81952991261140     -0.63294525613343      0.41205650027261
  H   2.80907496882277     -0.32908454142265      0.07343694228499
  H   1.81545427556949     -0.72360255101671      1.49924060168312
  H   1.59450830880048     -1.61250274334481     -0.02126726785761
  N   0.85096373183745      0.47872614509793     -1.49921643853922
  H   0.55145878375853     -0.40413168397146     -1.90091995753073
  H   0.24683466600323      1.21391347466355     -1.84567404132434
  N   -0.88707317739451     -1.34498867154143      0.38523192678985
  O   -0.88755483959818     -2.05426874199887      1.38894991113387
  O   -1.07028484275446     -1.74337262853434     -0.76664067312184
  C   -1.74256456785433      0.91475305758702     -0.02345241925990
  H   -2.67082240112889      0.68021253779530      0.50186218044193
  H   -1.54678817630479      1.98168803537957      0.08688348535298
  H   -1.87740518246529      0.67494494235394     -1.07771856706480
