18
Coordinates from ORCA-job run
  C   0.77435116439931      0.36831344850861      0.03217887747111
  C   -0.68637902481738      0.26336781038476      0.50372676739589
  Br  1.89889733850404      0.64053893462209      1.70210035157327
  H   -0.96572487675521      1.21992100572228      0.95054554908775
  C   1.33809290894062     -0.85132951721661     -0.67088671302306
  H   2.38657644354121     -0.67207424076948     -0.91831165817651
  H   0.78615981000782     -1.02026464957613     -1.59828244411689
  H   1.27418583252890     -1.73643353867313     -0.04395232546228
  N   0.84393135473308      1.49966584430403     -0.82539676082879
  H   1.76417760660166      1.58749115263406     -1.23865938236173
  H   0.62520424709095      2.35949299055275     -0.33607603741553
  N   -0.85868097913290     -0.71724471580919      1.62393438929724
  O   -0.62066400916047     -1.89871035998000      1.38061462325400
  O   -1.26608173593231     -0.27629019415476      2.69524121629831
  C   -1.64447144866731     -0.12273022552821     -0.61241565014598
  H   -1.52105227499970      0.56303117981248     -1.44954281675215
  H   -1.45648121565250     -1.14297307825256     -0.94545666085029
  H   -2.67304114122982     -0.06277184658097     -0.24936132524435
