18
Coordinates from ORCA-job run
  C   0.75827923979131      0.42661103140343      0.13705999839368
  C   -0.71592040446926      0.24805659389611      0.54501181022157
  Br  1.76295565505791      0.88960049227613      1.76404405718492
  H   -1.01193203900560      1.15329388118503      1.07381327381316
  C   1.42656883419401     -0.78949698311948     -0.48683776656415
  H   1.44466606036870     -1.64736633913823      0.18202585223789
  H   0.89113131378082     -1.07503332433055     -1.39749342191174
  H   2.45085927041299     -0.52632721974771     -0.75756967898018
  N   0.77980593998689      1.61100991960764     -0.71962478897891
  H   0.65511678068971      1.31387300396187     -1.68304841129758
  H   1.68654842540181      2.05860157605292     -0.65875901088901
  N   -0.89092985500591     -0.85762754300750      1.54128199509425
  O   -0.73356082988392     -2.01076542484902      1.13895909475437
  O   -1.20463310990421     -0.53996982489757      2.68609948729113
  C   -1.64188104504328     -0.02042507113313     -0.63034617056024
  H   -1.61008059513825      0.82241692116854     -1.32078414967804
  H   -1.37794920775836     -0.94263876263550     -1.14701428645194
  H   -2.66804443347535     -0.11681292669296     -0.26881788367919
