18
Coordinates from ORCA-job run
  C   0.76446213168336      0.41806033860474      0.13509822122425
  C   -0.71117836365222      0.25945249718468      0.54726047645414
  Br  1.77894069255057      0.88021968617314      1.75598806720777
  H   -0.99260233049621      1.16783306911559      1.07868022282137
  C   1.41690071705184     -0.81068809927321     -0.48123269925079
  H   1.42768466485039     -1.66317045679135      0.19472585314949
  H   0.87562962290825     -1.09776925892375     -1.38788375353509
  H   2.44338083986369     -0.56157741345021     -0.75694926984286
  N   0.79892498162153      1.59679835858420     -0.72844347741077
  H   0.65058887548929      1.29725351171833     -1.68786146906278
  H   1.71754329518662      2.02203672858904     -0.68570631285119
  N   -0.89647318202156     -0.84636219923048      1.54093684904575
  O   -1.18976832339664     -0.52765511589861      2.69091831730854
  O   -0.76790890772855     -2.00072211019348      1.13186788051506
  C   -1.64486112313252      0.00769893778014     -0.62567213489348
  H   -1.61286639526987      0.85858278262591     -1.30616532865331
  H   -1.38902928864585     -0.90955510776442     -1.15511620473955
  H   -2.66936790686212     -0.08843614885024     -0.25944523748654
