18
Coordinates from ORCA-job run
  C   0.86036911268674      0.35473363763918      0.10643978989104
  C   -0.62414216274455      0.27743971973958      0.53407091822819
  Br  1.90409170373989      0.62349136376234      1.76733194494628
  H   -0.87534209626617      1.22091305673956      1.02334676044371
  C   1.40162184084984     -0.87611403186173     -0.59637235094218
  H   0.85485092959594     -1.04439934316059     -1.52962692659683
  H   2.45029823777530     -0.69971641254803     -0.83589276818487
  H   1.30998881578038     -1.76506934704933      0.02195612475651
  N   1.11024885286445      1.50582758876280     -0.72145726279706
  H   0.80508639527261      1.34379026114398     -1.67303996243027
  H   0.68432386707712      2.34814124200844     -0.35426764620402
  N   -0.87261607595737     -0.75478531455056      1.59420038168145
  O   -0.70627545641802     -1.93316743741647      1.28224751887405
  O   -1.25628699976666     -0.35351714639065      2.68985486739334
  C   -1.57577331194436     -0.01139610117327     -0.61682007247032
  H   -2.60672980409644      0.03430324367173     -0.25886401380553
  H   -1.46194843268478      0.73590358091268     -1.40291928513199
  H   -1.40076541576393     -1.00437856022964     -1.02918801765149
