13

C	0.0	0.0	0.0
C	-0.501376	-0.265219	-1.408697
F	1.386438	0.0	0.0
H	-1.554398	-0.547159	-1.330373
H	-0.364731	0.970158	0.334397
H	-0.346208	-0.778356	0.678028
N	0.250934	-1.483722	-1.891035
O	1.132239	-1.34385	-2.732987
O	-0.048049	-2.549766	-1.353916
N	-0.350361	0.798248	-2.355698
H	0.512492	1.301985	-2.201794
H	-1.13753	1.422443	-2.239759
Cl	-3.451435	0.0	0.0
