13

C	0.0	0.0	0.0
C	-0.523604	-0.325831	-1.40456
F	1.384855	0.0	0.0
H	-1.435504	-0.904946	-1.294705
H	-0.372665	0.976305	0.307038
H	-0.336777	-0.757757	0.706945
N	0.49993	-1.250689	-2.019289
O	1.288462	-0.79766	-2.840635
O	0.503448	-2.406474	-1.596819
N	-0.783367	0.773358	-2.281244
H	-0.100778	1.507958	-2.141919
H	-1.702216	1.112855	-2.018417
Cl	-3.343389	0.0	0.0
