13

C	0.0	0.0	0.0
C	-0.14288	0.018119	-1.55837
F	1.385005	0.0	0.0
H	0.428261	0.898274	-1.858439
H	-0.386179	0.890588	0.488698
H	-0.382074	-0.910077	0.455871
N	-1.458577	0.237307	-2.251797
O	-1.780927	1.407044	-2.427709
O	-2.0421	-0.748285	-2.682133
N	0.44741	-1.148182	-2.188426
H	-0.164642	-1.939932	-2.029664
H	1.338376	-1.324537	-1.743324
Cl	-3.30831	0.0	0.0
