13

C	0.0	0.0	0.0
C	-0.501549	-0.296561	-1.401877
F	1.386403	0.0	0.0
H	-1.554626	-0.569938	-1.314948
H	-0.365081	0.976017	0.318705
H	-0.343542	-0.76788	0.692739
N	0.244256	-1.529996	-1.852299
O	-0.064492	-2.582406	-1.294295
O	1.131981	-1.412081	-2.691213
N	-0.340134	0.74097	-2.376984
H	-1.109291	1.390119	-2.262061
H	0.540347	1.223206	-2.245042
Cl	-3.455186	0.0	0.0
