18

C	-0.284795	-0.052878	-1.444079
C	-0.018862	-0.148062	0.061815
Cl	0.249962	-1.663135	-2.199461
H	1.06341	-0.358622	0.125502
N	-1.825587	-0.001698	-1.675542
O	-2.328252	1.104971	-1.50428
O	-2.441835	-1.021251	-1.951138
N	0.318885	1.046984	-2.014135
H	1.25994	1.220912	-1.625621
H	0.346429	1.007306	-3.023722
N	-0.871506	-1.191473	0.633606
H	-0.605121	-2.092834	0.253737
H	-0.696729	-1.220614	1.63111
C	-0.277463	1.164257	0.78624
H	0.370315	1.947556	0.399444
H	-0.031441	1.025176	1.844512
H	-1.323929	1.457482	0.700008
Cl	3.160189	1.466001	-0.629336
