16

C	-0.462734	-0.018888	-1.44465
C	0.0	0.0	0.0
F	-0.005755	1.144582	-2.028317
H	1.088712	0.0	0.0
N	0.242231	-1.139606	-2.205585
O	0.243229	-1.018819	-3.427106
O	0.655337	-2.092255	-1.562775
N	-1.835061	-0.235187	-1.657367
H	-2.372899	0.330096	-1.014335
H	-2.074546	-0.033974	-2.619643
C	-0.574059	-1.059971	0.802722
N	-0.999079	-1.912528	1.492627
N	-0.472247	1.31424	0.582024
O	0.37396	2.095089	0.98985
O	-1.692475	1.521006	0.616881
F	2.458347	0.0	0.0
