16

C	-0.512865	0.018816	-1.428096
C	0.0	0.0	0.0
F	0.120686	0.930799	-2.206735
H	1.089265	0.0	0.0
N	-0.104727	-1.324616	-2.123749
O	0.698257	-2.071499	-1.583334
O	-0.631165	-1.497698	-3.223797
N	-1.900266	0.231699	-1.52514
H	-2.214518	0.063669	-2.472674
H	-2.405673	-0.354193	-0.873278
C	-0.571883	-1.123189	0.710546
N	-1.056032	-2.056208	1.239178
N	-0.399149	1.268723	0.673767
O	-0.96684	1.195898	1.765849
O	-0.081374	2.313147	0.11576
F	2.427502	0.0	0.0
