16

C	-0.638046	0.010696	-1.370145
C	0.0	0.0	0.0
F	-1.999357	0.288971	-1.250183
H	1.092418	0.0	0.0
N	-0.106564	1.113726	-2.288678
O	0.973125	1.618516	-2.040727
O	-0.811594	1.328709	-3.274636
N	-0.407629	-1.179262	-2.081459
H	-0.974873	-1.177336	-2.920328
H	-0.604686	-1.994392	-1.515808
C	-0.425416	-1.199808	0.693001
N	-0.763491	-2.229849	1.149193
N	-0.408196	1.184154	0.791118
O	-0.427635	1.061499	2.014431
O	-0.630581	2.229445	0.18342
F	2.41587	0.0	0.0
