16

C	-0.149471	-0.059621	-1.522197
C	0.0	0.0	0.0
F	-0.33565	-1.41648	-1.86696
H	1.09373	0.0	0.0
N	-1.470485	0.517199	-2.047053
O	-1.497416	0.825879	-3.235101
O	-2.419592	0.545625	-1.271089
N	0.930953	0.532396	-2.123489
H	1.789549	0.38283	-1.562387
H	0.990217	0.364331	-3.115257
C	-0.598274	-1.106843	0.707329
N	-1.051944	-2.036695	1.263091
N	-0.41483	1.298884	0.590575
O	-0.691251	1.299754	1.788453
O	-0.379176	2.290567	-0.129404
F	2.540783	0.0	0.0
