17

C	0.0	0.0	0.0
C	-0.61466	-0.025588	-1.383689
Cl	1.864364	0.0	0.0
H	-1.729191	-0.03764	-1.044805
C	-0.472594	1.209113	0.774679
H	-0.118301	2.139168	0.324854
H	-1.569101	1.108065	0.730267
H	-0.11582	1.154874	1.806869
N	-0.394893	-1.197241	0.655552
H	0.115414	-1.324	1.517989
H	-0.264386	-1.981758	0.030117
N	-0.246014	-1.249661	-2.094789
H	-0.905873	-1.411166	-2.844617
H	0.678936	-1.145936	-2.49933
C	-0.295959	1.184939	-2.141206
N	-0.060764	2.118755	-2.817633
F	-2.943558	0.0	0.0
