17

C	0.0	0.0	0.0
C	-0.302831	-0.115317	-1.539049
Cl	1.79404	0.0	0.0
H	0.52067	0.394777	-2.048741
C	-0.457701	1.357107	0.520908
H	-0.092154	1.486866	1.545437
H	-0.091974	2.179923	-0.097362
H	-1.54933	1.321567	0.507842
N	-0.586458	-1.107853	0.694442
H	-1.602353	-0.955387	0.519592
H	-0.449534	-0.959009	1.690436
N	-1.53494	0.523491	-1.95833
H	-2.307261	0.270903	-1.295373
H	-1.748606	0.213685	-2.897914
C	-0.179445	-1.537526	-1.951873
N	-0.101644	-2.606207	-2.437599
F	-3.071822	0.0	0.0
