17

C	0.0	0.0	0.0
C	-0.297255	-0.000334	-1.545941
Cl	1.845306	0.0	0.0
H	0.374076	0.739775	-1.999791
C	-0.599125	1.218982	0.650771
H	-0.266519	1.295354	1.689762
H	-0.313667	2.129634	0.119207
H	-1.689981	1.05244	0.594332
N	-0.506798	-1.180882	0.582727
H	0.101801	-1.979769	0.538535
H	-0.975523	-1.056878	1.46148
N	-1.656764	0.263041	-1.938863
H	-2.350097	-0.038863	-1.177932
H	-1.77086	1.269245	-1.982964
C	0.123482	-1.315808	-2.076815
N	0.456643	-2.361034	-2.496015
F	-3.270369	0.0	0.0
