17

C	0.0	0.0	0.0
C	-0.252703	-0.018969	-1.56792
Cl	1.802855	0.0	0.0
H	0.524741	0.611114	-2.018434
C	-0.490272	1.316719	0.572102
H	-0.145147	1.398798	1.605199
H	-1.582396	1.276532	0.537389
H	-0.117822	2.160373	-0.011526
N	-0.588156	-1.069168	0.735001
H	-1.606834	-0.878316	0.652034
H	-0.386907	-1.955123	0.282166
N	-1.551528	0.481768	-1.966656
H	-1.801257	0.095314	-2.869001
H	-2.284834	0.244235	-1.251036
C	0.019441	-1.396341	-2.047766
N	0.177704	-2.47696	-2.48278
F	-3.098259	0.0	0.0
