17

C	0.0	0.0	0.0
C	-0.277807	-0.024219	-1.565266
Cl	1.795479	0.0	0.0
H	0.536928	0.527534	-2.045433
C	-0.472034	1.325697	0.574373
H	-1.56374	1.302823	0.552748
H	-0.112627	1.401792	1.603016
H	-0.095669	2.164087	-0.013932
N	-0.586512	-1.058176	0.753068
H	-0.386447	-1.952192	0.315599
H	-1.605402	-0.868476	0.665166
N	-1.533733	0.589497	-1.942722
H	-1.780744	0.294961	-2.881253
H	-2.285441	0.310818	-1.261054
C	-0.137094	-1.428724	-2.023351
N	-0.081154	-2.53218	-2.430802
F	-3.081012	0.0	0.0
