17

C	0.0	0.0	0.0
C	-0.498979	0.179664	-1.44549
Cl	1.81928	0.0	0.0
H	-1.597311	0.178553	-1.255495
C	-0.435964	1.17852	0.85431
H	-1.529259	1.180097	0.805238
H	-0.097486	1.004372	1.877291
H	-0.0134	2.116427	0.488675
N	-0.518358	-1.209286	0.564931
H	-1.540417	-0.996485	0.555042
H	-0.373916	-1.938434	-0.129542
N	-0.130955	-0.967751	-2.272138
H	0.833389	-0.87623	-2.574087
H	-0.720733	-0.987047	-3.094651
C	-0.091326	1.457325	-2.045732
N	0.219619	2.454045	-2.588305
F	-2.889768	0.0	0.0
