18

C	-0.442661	-0.015181	-1.460777
C	0.0	0.0	0.0
F	-0.054113	1.159009	-2.045017
H	1.089682	0.0	0.0
C	0.170167	-1.165935	-2.207004
H	-0.240579	-2.116041	-1.873726
H	1.247622	-1.131292	-2.027149
H	-0.037944	-1.042777	-3.269246
N	-1.965393	0.014979	-1.599516
O	-2.485079	-0.704008	-2.444117
O	-2.545239	0.832049	-0.891967
N	-0.468338	-1.213181	0.722984
O	0.149128	-1.512308	1.737289
O	-1.448606	-1.810808	0.270608
N	-0.463536	1.190536	0.788995
O	-1.205891	0.994223	1.74508
O	-0.029151	2.268291	0.411823
Cl	3.156887	0.0	0.0
