13
Coordinates from ORCA-job run
  C   0.44643193930307     -0.27540605096382     -0.44480174569101
  C   -0.77392041144924      0.31680994158821      0.23230007623120
  F   0.55498070678464      0.26784416465563     -1.72353626389703
  H   -0.71635225507439      0.09362120838444      1.30916764791747
  H   0.30845346845430     -1.35492501036296     -0.57887080634150
  H   -0.70519723095013      1.40285866096860      0.12074793247160
  C   1.73289740086466      0.01107499707226      0.29872083642001
  H   1.85530086176511      1.08768798530155      0.43838441626052
  H   2.58526486520779     -0.35833066454923     -0.27319523719040
  H   1.73618661488906     -0.47238841663974      1.27820909663164
  N   -2.00374256713746     -0.13927897035155     -0.40827433578548
  H   -2.76838453011252      0.48163061495834     -0.17933978713716
  H   -2.25091886254488     -1.06019846006172     -0.06851182988987
