13
Coordinates from ORCA-job run
  C   0.46857052091988     -0.71024196502084     -0.08278775982787
  C   -0.88255086051079     -0.30923357135022      0.47523346375835
  F   0.26830284646401     -1.07004567077122     -1.42773732308206
  H   -1.54467742483279     -1.18560989725367      0.40797777730361
  H   0.81874565582798     -1.61515630005044      0.42536169192978
  H   -0.76168544843048     -0.06740331407716      1.53586202068532
  C   1.51441693431135      0.37775218817357     -0.03333481593412
  H   2.43264135440261      0.03497930981587     -0.51340615977818
  H   1.73957099665997      0.63565798467170      1.00451795140008
  H   1.14845213809305      1.26916514592208     -0.53968002299111
  N   -1.38409872600517      0.86807339169214     -0.22640705762526
  H   -2.27084048953023      1.15477367204492      0.16755621137542
  H   -1.54784749736938      0.61928902620327     -1.19415597721398
