13
Coordinates from ORCA-job run
  C   0.49410443509271     -0.73769530457070     -0.05652207645139
  C   -0.94970445136116     -0.33044793200064     -0.28098697600344
  F   0.85060093027442     -1.60342154655325     -1.09780363207602
  H   -1.55825114361304     -1.23812066230847     -0.28212697991972
  H   0.56736808878935     -1.30635743724652      0.87489410693519
  H   -1.02804375277802      0.11513904631212     -1.28351950899267
  C   1.45743170193439      0.42509136163467     -0.04857904580180
  H   2.48329761778118      0.06318525488342      0.03700369369720
  H   1.25174764813908      1.08102238563208      0.79906053193514
  H   1.37034509720424      0.99430097787186     -0.97803773678806
  N   -1.38940409646679      0.54124237448071      0.80806405062740
  H   -2.39402362531153      0.49362969732073      0.90990434594553
  H   -1.15746844968483      1.50343178454400      0.59864922689265
