13
Coordinates from ORCA-job run
  C   0.48494905078682     -0.62678859027019      0.22484249389053
  C   -1.01501193957672     -0.47326554884737      0.00443375008693
  F   0.83899124588537     -1.90957610722686     -0.20924405963125
  H   -1.51681205689796     -1.31128460952993      0.49591637301744
  H   0.70711322613283     -0.58909075596043      1.29850468476036
  H   -1.21512297158767     -0.56898947590841     -1.06713579776637
  C   1.33064901290091      0.37476177773738     -0.52725804816432
  H   1.14538538416876      1.39111223282827     -0.17434989149432
  H   2.38975113101950      0.15433137321055     -0.38487742052897
  H   1.10797568466517      0.32369279882690     -1.59586921654080
  N   -1.60587927401253      0.76943825668299      0.48120234682800
  H   -1.22762612924874      1.56507627715056     -0.01472791067748
  H   -1.42436236423574      0.89858237130653      1.46856269622024
