13

C	-0.372741	0.01491	-1.477376
C	0.0	0.0	0.0
Br	0.096229	1.678524	-2.317453
H	1.097898	0.0	0.0
H	0.15664	-0.780371	-1.999415
N	-1.843829	-0.223311	-1.713361
O	-2.620939	0.100361	-0.822835
O	-2.143424	-0.720853	-2.794489
C	-0.449058	-1.257097	0.600483
N	-0.7837	-2.28755	1.054356
C	-0.482393	1.152074	0.756666
N	-0.81569	2.086025	1.385848
Br	3.278189	0.0	0.0
