13

C	-0.366666	0.017748	-1.477634
C	0.0	0.0	0.0
Br	0.09167	1.688071	-2.313011
H	1.097901	0.0	0.0
H	0.172783	-0.771415	-2.000761
N	-1.834461	-0.235877	-1.723415
O	-2.118657	-0.758129	-2.797849
O	-2.624747	0.104886	-0.848699
C	-0.446218	-1.259839	0.593387
N	-0.781952	-2.291783	1.043228
C	-0.484742	1.14754	0.759854
N	-0.825702	2.077482	1.39063
Br	3.286578	0.0	0.0
