13

C	-0.551665	-0.009325	-1.430672
C	0.0	0.0	0.0
Br	0.201274	-1.452069	-2.460979
H	1.095404	0.0	0.0
H	-1.636323	-0.119798	-1.456119
N	-0.262994	1.29095	-2.134237
O	-1.043692	1.577081	-3.037948
O	0.706527	1.936362	-1.765743
C	-0.471128	-1.203549	0.688416
N	-0.877147	-2.162916	1.23042
C	-0.502838	1.183805	0.701709
N	-0.930896	2.139973	1.233436
Br	3.321329	0.0	0.0
