15
Coordinates from ORCA-job run
  C   -0.46626446750477     -0.58062335450796     -0.07929494339395
  C   0.53989372201479      0.46530969708685     -0.59325607023123
  Cl  -0.65801408887631     -1.83960070749371     -1.38890330771389
  H   0.12968000487326      0.88459079063688     -1.52514186986292
  N   -1.70846942146439      0.10915262825111      0.15892561590834
  H   -2.33433948523993     -0.47842330505027      0.69674013369030
  H   -2.16872809730978      0.33953103963799     -0.71530504886148
  N   0.08680328329892     -1.22365188271542      1.06188487046556
  H   0.34262739432532     -0.51669436991448      1.74133603173867
  H   -0.54110309228285     -1.91125631636459      1.45698561853925
  C   1.82797445671199     -0.15152897828232     -0.92046690262786
  N   2.88327268306493     -0.56799462676757     -1.21921703559724
  N   0.73046543393976      1.43864883239767      0.47818159558473
  H   1.47096655339626      2.08699835293062      0.24139858651846
  H   -0.13676487894719      1.94554220015519      0.60613272584325
