15
Coordinates from ORCA-job run
  C   -0.50745618740637     -0.51992402297732      0.00697115127697
  C   0.39873511696155      0.52736587672362     -0.67417082354943
  Cl  -0.61809247872376     -1.91448240789186     -1.21746505517494
  H   -0.07291825489737      0.84846251412749     -1.60939170749474
  N   -1.76914027957054      0.03700234868670      0.30988680565534
  H   -2.43223560797461     -0.68621666906356      0.55856483256741
  H   -2.14130327715482      0.60254885043492     -0.44062098242693
  N   0.12924150079818     -1.00740840988437      1.20219729774755
  H   0.35587764395327     -1.98917566406391      1.16516458752517
  H   -0.44494755039395     -0.79487171693939      2.00618488794185
  C   1.69748503615442     -0.08749990353359     -1.01417110481445
  N   2.77500348619455     -0.47608778647701     -1.27361647384479
  N   0.52844328221391      1.67482187265711      0.20496832071641
  H   1.06495068574769      2.39959252486074     -0.25672797878936
  H   1.03535688409784      1.38587259334043      1.03422624266394
