15
Coordinates from ORCA-job run
  C   -0.54084368866955     -0.44083427442781     -0.01975394009859
  C   0.72213760555525      0.32088489793621     -0.46900036278089
  Cl  -1.52676076077132     -0.72112844984397     -1.57894706075400
  H   1.18978528586289     -0.29854335473300     -1.24969512059423
  N   -1.35075297691727      0.37734328808421      0.81354751965944
  H   -0.79455116100306      0.78661790377182      1.55486453027836
  H   -2.12728692667096     -0.14146772514164      1.20382403548734
  N   -0.15214934058075     -1.68514354078952      0.54897746958275
  H   0.33292666923370     -2.27350697914688     -0.11866050497919
  H   -0.95511726201776     -2.19145512684251      0.90168447355601
  C   1.66584518145255      0.39229564295596      0.65996504843896
  N   2.43931460662698      0.49339743305526      1.53718169619751
  N   0.40012115845957      1.67434661709296     -0.88843557440696
  H   1.14953451169317      2.04414064296238     -1.45973527365307
  H   -0.45220290225345      1.66405302506652     -1.43481693593344
