15
Coordinates from ORCA-job run
  C   -0.51912154113458     -0.59105687085767      0.05277919846660
  C   0.35307624035215      0.42854705809663     -0.73033368232041
  Cl  -0.80903798902099     -1.99218069689129     -1.11806807938150
  H   -0.11980850556155      0.59567973516506     -1.70049324067537
  N   -1.80534562490093     -0.04481331709102      0.41173396404161
  H   -2.50283742594227     -0.23503255098242     -0.28845788030393
  H   -1.73108465225580      0.94979858863109      0.58376580629175
  N   0.17157917551713     -0.98173222143771      1.22485968827127
  H   0.96457811887445     -1.58788859458855      1.04940240236933
  H   -0.47863552675976     -1.39486536616791      1.87555897261013
  C   1.69359611195248     -0.13672582951053     -0.90589541893616
  N   2.78507682087807     -0.57196630719858     -0.94926059373082
  N   0.31519026564316      1.68057005120799      0.03881231003040
  H   0.81731832166841      1.50486317084889      0.90050029210435
  H   0.86545621069003      2.37780315077602     -0.44590373883725
