15
Coordinates from ORCA-job run
  C   -0.48455321229455     -0.52834813817909      0.15495682038477
  C   0.65545716974114      0.23487644471782     -0.54370917730195
  Cl  -1.52727822083289     -1.18447035948866     -1.34825957614497
  H   1.05351760208279     -0.41674154287128     -1.32664715016705
  N   -1.24606957355810      0.35702398341083      0.92352245570172
  H   -1.62845888046274      1.07733099715807      0.32324778679181
  H   -1.99332470942569     -0.10247689319080      1.42774757292625
  N   0.00495848792069     -1.61633255144798      0.89745465807780
  H   -0.73202368569258     -2.10776895166871      1.38692044372578
  H   0.49052349737380     -2.27541759421287      0.30304689685450
  C   1.73699181778555      0.48940725105089      0.42574195569502
  N   2.61876171501431      0.74736918280837      1.15692678201382
  N   0.14700366523034      1.46713469438324     -1.12631566961495
  H   0.43231484893612      2.26996088327353     -0.58144249199758
  H   0.47217947818183      1.58845259425663     -2.07419130694495
