11

C	0.0	0.0	0.0
C	-0.45709	0.163458	-1.430103
Cl	1.768975	0.0	0.0
H	-0.095241	-0.695016	-2.002881
H	-0.390458	-0.889135	0.475691
H	-1.554443	0.176414	-1.341677
H	-0.036734	1.07907	-1.847682
N	-0.441193	1.13564	0.877851
O	-0.549883	2.244874	0.370458
O	-0.544223	0.888431	2.073575
F	-2.591799	0.0	0.0
