14
Coordinates from ORCA-job run
  C   1.05826172396743     -0.47319222452688     -0.33260709961509
  C   -0.26320821387866      0.28712493590730     -0.16167074604952
  H   1.01397441231530     -1.12872841343043     -1.20762949128860
  H   -0.36114192792544      0.97991672314432     -1.00449148347246
  H   1.22460219957003     -1.11402858779235      0.54100676923281
  C   2.19839070032337      0.42981592241601     -0.47807780081627
  N   3.11504572934255      1.14607829532018     -0.62794752476319
  N   -0.16549909405128      1.10053889499101      1.04503750715812
  H   -0.24241115824572      0.50921799631453      1.86603919532772
  H   -0.92563834347725      1.76871058546120      1.08146464354582
  C   -1.43745678168685     -0.69072921049514     -0.18215440181853
  H   -1.49133235197628     -1.24614659286082     -1.12300958690971
  H   -2.38070450612099     -0.15461601053135     -0.05165911748109
  H   -1.34488238815621     -1.41296231391759      0.63569913694997
