14
Coordinates from ORCA-job run
  C   1.00106299715466     -0.43893125014692     -0.36547886731082
  C   -0.37114671569462      0.25445138573988     -0.19090001411845
  H   1.03351911526270     -1.01104774365719     -1.29833523312756
  H   -0.51984063493787      0.90803754574162     -1.05761986763584
  H   1.16162537352659     -1.14314849198363      0.45835180426989
  C   2.08507471423137      0.54036833081503     -0.36633175434432
  N   2.91191133177573      1.37317724493592     -0.35404585713626
  N   -0.47206615563661      1.09351664643805      0.99266742145243
  H   -0.30796532055777      0.54200645252021      1.82816432810135
  H   0.21912617683332      1.83466904527708      0.96937335403545
  C   -1.47548318239464     -0.79151068974877     -0.16517232892309
  H   -2.44511696260450     -0.29945585928176     -0.08402588794916
  H   -1.46488463792214     -1.40880781054626     -1.06661132380982
  H   -1.35681609903621     -1.45232480610326      0.69996422649620
