14

C	-0.475787	-0.053767	-1.448949
C	0.0	0.0	0.0
Cl	0.080841	1.377198	-2.379767
H	1.095446	0.0	0.0
H	-1.569895	-0.040018	-1.522642
C	-0.002516	-1.264748	-2.11992
N	0.305955	-2.256302	-2.670192
C	-0.39363	-1.274337	0.751795
H	-1.468296	-1.494134	0.718944
H	-0.090283	-1.168885	1.794494
H	0.165048	-2.114886	0.335268
C	-0.560296	1.170435	0.646679
N	-1.02444	2.096703	1.205135
F	2.527121	0.0	0.0
