14

C	-0.233259	-0.059939	-1.489453
C	0.0	0.0	0.0
Cl	-1.94685	-0.445849	-1.990415
H	1.097395	0.0	0.0
H	0.375542	-0.878151	-1.87975
C	0.154682	1.174018	-2.170593
N	0.421078	2.1732	-2.724791
C	-0.38062	-1.292998	0.71146
H	-1.452433	-1.50966	0.681904
H	0.171162	-2.116548	0.250318
H	-0.055712	-1.229575	1.751609
C	-0.592924	1.166472	0.61439
N	-1.081572	2.094178	1.148124
F	2.514964	0.0	0.0
