14

C	-0.46801	-0.045745	-1.453959
C	0.0	0.0	0.0
Cl	0.101545	1.384912	-2.372145
H	1.095429	0.0	0.0
H	-1.560929	-0.023091	-1.530249
C	-0.005574	-1.256434	-2.130952
N	0.320193	-2.234321	-2.691676
C	-0.38815	-1.280372	0.743708
H	0.178066	-2.113376	0.32425
H	-0.086405	-1.177589	1.787759
H	-1.460577	-1.507134	0.708138
C	-0.566842	1.164682	0.648879
N	-1.040759	2.086777	1.205753
F	2.527234	0.0	0.0
