14

C	-0.228929	-0.063787	-1.490216
C	0.0	0.0	0.0
Cl	-1.940252	-0.453627	-1.994989
H	1.097477	0.0	0.0
H	0.382875	-0.882438	-1.874577
C	0.161166	1.168465	-2.171826
N	0.43618	2.165945	-2.726899
C	-0.379767	-1.292728	0.712162
H	0.186874	-2.111238	0.261577
H	-0.070275	-1.22255	1.756441
H	-1.448546	-1.520681	0.668987
C	-0.595949	1.16726	0.609506
N	-1.089214	2.096194	1.137099
F	2.513456	0.0	0.0
