16

C	-0.136808	-0.046627	-1.523158
C	0.0	0.0	0.0
Cl	-1.897295	-0.723187	-1.975109
H	1.095748	0.0	0.0
N	0.051486	1.230771	-2.03561
H	-0.50933	1.912777	-1.547024
H	-0.043513	1.245269	-3.03944
N	0.80094	-0.955215	-2.125467
H	0.550817	-1.901161	-1.858038
H	1.684885	-0.723221	-1.640274
C	-0.42591	-1.240582	0.634278
N	-0.759884	-2.2088	1.212887
N	-0.565032	1.198122	0.601447
H	-1.452251	0.998926	1.047338
H	0.084671	1.535873	1.300128
F	2.605498	0.0	0.0
