16

C	-0.205736	0.09666	-1.533194
C	0.0	0.0	0.0
Cl	-0.037851	-1.645902	-2.216509
H	1.101293	0.0	0.0
N	-1.481691	0.557181	-2.023291
H	-1.694243	1.369764	-1.447808
H	-2.177407	-0.147097	-1.80862
N	0.828609	0.947673	-1.957529
H	1.720611	0.669982	-1.508278
H	0.874945	1.01011	-2.965569
C	-0.671518	-1.111665	0.635636
N	-1.251401	-1.965201	1.20027
N	-0.502686	1.27942	0.571404
H	-0.453362	1.194605	1.58243
H	0.210668	1.959011	0.315687
F	2.652858	0.0	0.0
