16

C	-0.620094	-0.009477	-1.396945
C	0.0	0.0	0.0
Cl	0.033524	-1.518843	-2.264645
H	1.092006	0.0	0.0
N	-2.060118	-0.110777	-1.312118
H	-2.446332	-0.16124	-2.250041
H	-2.310881	-0.976042	-0.845323
N	-0.183166	1.138189	-2.11648
H	-0.854422	1.390216	-2.831534
H	-0.109976	1.882226	-1.429366
C	-0.497242	-1.130948	0.778125
N	-0.931971	-2.004712	1.438054
N	-0.307986	1.287765	0.638018
H	-1.160984	1.266021	1.183289
H	0.480818	1.503294	1.235455
F	2.539549	0.0	0.0
