16

C	0.0	0.0	0.0
C	-0.283436	-0.2217	-1.532194
Cl	1.811385	0.0	0.0
H	0.481205	0.347985	-2.067427
H	-0.079421	-1.283395	-1.728376
N	-0.547765	1.275748	0.388678
H	-1.566483	1.09263	0.307067
H	-0.360589	1.410533	1.379238
C	-0.49701	-1.151254	0.853601
H	-0.095555	-2.111262	0.517242
H	-1.588766	-1.113702	0.750363
H	-0.216616	-1.000153	1.902157
N	-1.572678	0.147645	-2.076906
H	-2.312841	-0.076943	-1.383267
H	-1.584572	1.160247	-2.129782
F	-3.113602	0.0	0.0
