16

C	0.0	0.0	0.0
C	-0.264104	-0.068374	-1.553945
Cl	1.800745	0.0	0.0
H	0.467944	0.598258	-2.025663
H	0.004337	-1.086842	-1.870115
N	-0.55793	1.161465	0.63726
H	-0.372379	1.972445	0.052919
H	-1.576307	0.971119	0.586074
C	-0.515315	-1.228941	0.716923
H	-0.24326	-1.181282	1.774153
H	-1.60654	-1.191549	0.610556
H	-0.104415	-2.139558	0.275132
N	-1.576252	0.280271	-2.058136
H	-2.300715	0.001301	-1.363542
H	-1.638566	1.29242	-2.073263
F	-3.123007	0.0	0.0
