16

C	0.0	0.0	0.0
C	-0.517313	0.01626	-1.432111
Cl	1.869568	0.0	0.0
H	-0.10057	-0.832401	-1.983169
H	-1.603095	-0.103134	-1.251644
N	-0.393655	1.207883	0.653927
H	0.204117	1.976914	0.386566
H	-0.381746	1.100815	1.658988
C	-0.553469	-1.189788	0.736854
H	-0.178239	-1.228029	1.765077
H	-0.289062	-2.118658	0.227498
H	-1.649406	-0.995211	0.683919
N	-0.292704	1.248208	-2.179687
H	0.675821	1.538783	-2.085191
H	-0.879642	1.955945	-1.754031
F	-3.017894	0.0	0.0
