11
Coordinates from ORCA-job run
  C   -0.17648336085482      0.12515965034014     -0.41785642825300
  C   1.24177674180767      0.02009937708178      0.13028298616986
  H   -0.20187478376301     -0.00808351319636     -1.50014864867271
  H   1.85886809887373      0.81381754271963     -0.29234678003561
  H   1.66846124684882     -0.94571115086161     -0.14566162651485
  H   1.22749160683006      0.11824472950305      1.21578648450614
  C   -0.82018105303571      1.38470309381756     -0.05417647181420
  N   -1.30783795843777      2.41918927372159      0.20978364212004
  N   -0.98570024681350     -1.02251055741810      0.14514720223843
  O   -1.32052362313067     -0.93816488598001      1.32035526165568
  O   -1.18399666832480     -1.96674355972767     -0.61216562139978
