11
Coordinates from ORCA-job run
  C   -0.19223121836678      0.12766903944299     -0.41125396541765
  C   1.24352920251850      0.03090493663272      0.09109633850877
  H   -0.24983662102204      0.00261700621386     -1.49330831783010
  H   1.83921193368257      0.83595439335398     -0.34071853140855
  H   1.67084257611683     -0.92728007212629     -0.20924651533189
  H   1.26206511902030      0.11678628119391      1.17775143877663
  C   -0.83544588517045      1.37796567040178     -0.01733777538243
  N   -1.31759837830872      2.40763391792384      0.27407009561482
  N   -0.97126597623109     -1.03397002634714      0.16667252555505
  O   -1.13893611266672     -1.99323646399795     -0.57883587676436
  O   -1.31033463957240     -0.94504468269169      1.34011058367970
