13

C	-0.44327	0.181893	-1.440737
C	0.0	0.0	0.0
F	-1.828728	0.159298	-1.53292
H	1.105717	0.0	0.0
H	-0.104336	1.176359	-1.747537
C	0.107868	-0.793444	-2.389941
N	0.512267	-1.490955	-3.241496
N	-0.445547	-1.312621	0.573269
O	-0.520702	-2.259016	-0.203045
O	-0.652386	-1.353734	1.780589
C	-0.521532	1.085964	0.816243
N	-0.961267	1.996987	1.41357
Cl	3.095127	0.0	0.0
