11

C	0.0	0.0	0.0
C	-0.565868	-0.093455	-1.413846
Cl	1.781346	0.0	0.0
H	-0.281432	-1.045232	-1.87297
H	-0.357733	0.916422	0.461702
H	-1.692935	-0.054878	-1.121502
C	-0.445959	-1.132015	0.820558
N	-0.648548	-2.022777	1.55986
C	-0.137035	1.011221	-2.24442
N	0.186973	1.910406	-2.930482
F	-2.646006	0.0	0.0
