11

C	0.0	0.0	0.0
C	-0.559848	-0.149296	-1.410488
Cl	1.781559	0.0	0.0
H	-0.285454	-1.121781	-1.829258
H	-0.350575	0.941817	0.417325
H	-1.685879	-0.091251	-1.133299
C	-0.454831	-1.080969	0.876041
N	-0.662225	-1.940748	1.648588
C	-0.112629	0.91404	-2.285998
N	0.225706	1.784932	-3.000419
F	-2.645034	0.0	0.0
