11

C	0.0	0.0	0.0
C	-0.55756	-0.306627	-1.383403
Cl	1.781632	0.0	0.0
H	-0.284489	0.503013	-2.066487
H	-0.360084	0.98093	0.298329
H	-1.683916	-0.265182	-1.102598
C	-0.434013	-0.981467	0.998216
N	-0.589059	-1.798774	1.826612
C	-0.109648	-1.57438	-1.920102
N	0.223772	-2.602738	-2.382657
F	-2.634419	0.0	0.0
