11

C	0.0	0.0	0.0
C	-0.550754	-0.284559	-1.392436
Cl	1.781598	0.0	0.0
H	-1.67528	-0.245685	-1.119596
H	-0.365001	0.974192	0.313014
H	-0.26845	0.531881	-2.062796
C	-0.43767	-1.000058	0.978097
N	-0.605987	-1.830051	1.791527
C	-0.104119	-1.547966	-1.942601
N	0.233691	-2.570055	-2.415857
F	-2.628181	0.0	0.0
