11

C	0.0	0.0	0.0
C	-0.539943	-0.284945	-1.397595
Cl	1.781967	0.0	0.0
H	-1.66268	-0.245783	-1.137287
H	-0.366037	0.97447	0.309839
H	-0.244973	0.530644	-2.065023
C	-0.442276	-0.999257	0.976426
N	-0.598041	-1.822954	1.798775
C	-0.08925	-1.549502	-1.941675
N	0.241939	-2.576989	-2.407634
F	-2.611508	0.0	0.0
