11

C	0.0	0.0	0.0
C	-0.498256	-0.27624	-1.418786
Cl	1.781781	0.0	0.0
H	-1.613907	-0.21149	-1.228584
H	-0.371	0.974889	0.303278
H	-0.134677	0.513562	-2.080638
C	-0.453663	-0.999298	0.967281
N	-0.577317	-1.816501	1.801354
C	-0.060955	-1.564145	-1.932612
N	0.297094	-2.593381	-2.372771
F	-2.563732	0.0	0.0
