14

C	-0.529087	0.0077	-1.440362
C	0.0	0.0	0.0
Br	0.152172	-1.502642	-2.474521
H	1.103028	0.0	0.0
H	-1.616182	-0.115656	-1.441886
C	-0.223859	1.250064	-2.142155
N	-0.071435	2.271179	-2.703612
C	-0.49993	-1.196815	0.671502
N	-0.963359	-2.123361	1.227376
C	-0.456841	1.25506	0.756449
H	-1.546213	1.360812	0.757076
H	-0.003487	2.138927	0.303098
H	-0.107502	1.192535	1.788616
Br	3.443853	0.0	0.0
