14

C	-0.523734	-0.013831	-1.441651
C	0.0	0.0	0.0
Br	0.108015	-1.571358	-2.435063
H	1.105362	0.0	0.0
H	-1.614143	-0.097414	-1.445887
C	-0.158217	1.194487	-2.171507
N	0.078998	2.184484	-2.757906
C	-0.489	-1.186807	0.696034
N	-0.9143	-2.111351	1.282995
C	-0.455318	1.267579	0.732078
H	-0.011745	2.14361	0.256095
H	-0.094901	1.229928	1.761255
H	-1.545423	1.368354	0.742341
Br	3.436033	0.0	0.0
