14

C	-0.526303	0.072371	-1.438955
C	0.0	0.0	0.0
Br	0.138065	-1.401362	-2.534512
H	1.106475	0.0	0.0
H	-1.614986	-0.035849	-1.446789
C	-0.19768	1.336508	-2.088497
N	-0.014956	2.373282	-2.610434
C	-0.493027	-1.227076	0.619574
N	-0.935637	-2.181715	1.1423
C	-0.45612	1.219389	0.809759
H	-0.006513	2.122509	0.39379
H	-1.546127	1.323499	0.819265
H	-0.103074	1.113974	1.836942
Br	3.438313	0.0	0.0
