14

C	-0.51353	0.076727	-1.442696
C	0.0	0.0	0.0
Br	0.072223	-1.450676	-2.510438
H	1.102605	0.0	0.0
H	-1.607601	0.032357	-1.458531
C	-0.098608	1.306718	-2.107772
N	0.175955	2.31246	-2.649836
C	-0.522562	-1.208235	0.630162
N	-1.015619	-2.124765	1.174802
C	-0.443563	1.233525	0.79623
H	-1.532485	1.347116	0.807966
H	0.013634	2.128023	0.368554
H	-0.088344	1.137207	1.823447
Br	3.437455	0.0	0.0
