14

C	-0.342674	0.234867	-1.468544
C	0.0	0.0	0.0
Br	-2.249421	0.65552	-1.77016
H	1.107114	0.0	0.0
H	0.203615	1.118202	-1.807016
C	-0.00908	-0.896203	-2.32462
N	0.227023	-1.804137	-3.032217
C	-0.532109	-1.266302	0.483595
N	-0.993189	-2.263914	0.899475
C	-0.40906	1.16188	0.904712
H	-0.001167	2.091906	0.501233
H	0.03144	1.007638	1.891217
H	-1.492534	1.251667	1.001778
Br	3.388323	0.0	0.0
