14

C	-0.344061	0.075476	-1.485356
C	0.0	0.0	0.0
Br	-2.250379	0.464291	-1.828266
H	1.10604	0.0	0.0
H	0.20321	0.916394	-1.917436
C	-0.01342	-1.141623	-2.214821
N	0.219202	-2.120646	-2.821378
C	-0.531341	-1.207158	0.617472
N	-0.990728	-2.154476	1.139109
C	-0.408714	1.252361	0.774938
H	-1.491787	1.349213	0.866827
H	0.037176	1.207288	1.769918
H	-0.00567	2.134335	0.270848
Br	3.388411	0.0	0.0
