14
Coordinates from ORCA-job run
  C   -0.42919338664002      0.55419333937064      0.40321752113623
  C   0.69122039695131     -0.39973479272253     -0.00926909266866
  F   -0.37563125817289      1.63937184991857     -0.45709260392595
  H   0.75974514409590     -1.21918934405225      0.71202532142281
  H   -0.19620235601633      0.92035868800600      1.40608487937528
  C   -1.79539818298709     -0.08200471118706      0.33252939283191
  H   -1.85697545115984     -0.94945822075250      0.99373049378166
  H   -2.02025311270072     -0.39352400276798     -0.68868687627357
  H   -2.54563646668989      0.64499668609200      0.64591565989599
  N   2.00959041123073      0.34298287676633      0.10513419493876
  O   2.67134109928623      0.51613958508649     -0.90795821910271
  O   2.28385864295053      0.71468365342831      1.24005403948722
  C   0.50975462272367     -0.91916299386714     -1.35807609569546
  N   0.29277989712839     -1.37065261331886     -2.41960861520350
