14
Coordinates from ORCA-job run
  C   -0.44412104803715      0.56164373782552      0.37523932913117
  C   0.69523898101239     -0.39245796475854      0.01849950506052
  F   -0.38309624825404      1.61870587872269     -0.51953020135111
  H   0.75495358735832     -1.18835097857694      0.76647851470784
  H   -0.23663704601189      0.96362129191424      1.36998661306793
  C   -1.80190541995895     -0.09120477011757      0.29580306954593
  H   -1.99927201896471     -0.44242562867055     -0.71808979188465
  H   -1.87123860740535     -0.93443450215332      0.98671559197473
  H   -2.56622102346583      0.63900581686352      0.56392139796157
  N   2.00282030556420      0.36805216966144      0.14030551388473
  O   2.24675646288694      0.77695286445619      1.26941728652934
  O   2.68649944407042      0.51749286879186     -0.86199287108434
  C   0.55062036431382     -0.95486558744556     -1.31734472217173
  N   0.36360226689181     -1.44073519651299     -2.36940923537194
