14
Coordinates from ORCA-job run
  C   -0.51702276589684     -0.35608525311818      0.77998877358903
  C   0.85654759092093     -0.50163230115849      0.10065940186296
  F   -0.31771637319858      0.10783155530333      2.06605623141294
  H   1.58211664817122     -0.86345019196067      0.83368365036452
  H   -0.93678765946787     -1.36374045297935      0.86183443906737
  C   -1.45592693422142      0.56794966459470      0.04125754785951
  H   -1.08273833502840      1.59241910370120      0.08132049159917
  H   -2.43674141102272      0.54218497719777      0.51672040740560
  H   -1.56448274559624      0.26564450630973     -1.00249360706858
  N   1.35337733236430      0.85691509109890     -0.33957261099810
  O   1.39537936523517      1.09561235025098     -1.54087508998036
  O   1.63179776768120      1.62432852167333      0.57369104977112
  C   0.77271670719220     -1.40590752770197     -1.03832247408932
  N   0.71948081286704     -2.16307004321129     -1.93394821079584
