14
Coordinates from ORCA-job run
  C   -0.74837912477519     -0.42916870853369      0.18085134593415
  C   0.78566570605267     -0.38656548104817      0.11576656678263
  F   -1.04860776720895     -1.36594962780573      1.15822650411052
  H   1.18785888423609     -0.08248956739917      1.08370083916446
  H   -1.13380575190811     -0.80479274906905     -0.77019871743907
  C   -1.35567913546309      0.90177276703727      0.54947023821438
  H   -1.21345917117669      1.63538478579330     -0.24575769917736
  H   -2.42758077686552      0.76904493346677      0.70216095023141
  H   -0.91618238046493      1.28620014683457      1.47185612769697
  N   1.17272297183523      0.68268566961821     -0.86972900134806
  O   1.65524614199456      1.71039330362623     -0.40604285042748
  O   0.91281515292551      0.45434392149275     -2.04654850904254
  C   1.34525171840380     -1.66614564576212     -0.30078020739036
  N   1.78413353241463     -2.70571374825115     -0.62397558730964
