15

C	0.0	0.0	0.0
C	-0.519039	-0.337685	-1.400558
Br	1.95568	0.0	0.0
H	-1.556412	-0.64202	-1.237534
H	0.041269	-1.17107	-1.824756
N	-0.499609	1.188781	0.57101
H	-1.487176	1.016934	0.78892
H	-0.477803	1.867985	-0.185954
N	-0.335535	-1.179094	0.926207
O	-0.616366	-0.936388	2.089914
O	-0.246856	-2.295233	0.421507
N	-0.473725	0.869539	-2.218434
H	0.133209	0.748006	-3.017665
H	-1.408941	1.085613	-2.539574
Br	-3.769255	0.0	0.0
