15

C	0.0	0.0	0.0
C	-0.504746	0.114564	-1.427685
Br	2.033562	0.0	0.0
H	0.038017	-0.590909	-2.06023
H	-1.556411	-0.18899	-1.363076
N	-0.51046	0.944213	0.860844
H	-1.336297	1.377373	0.456683
H	-0.714899	0.542118	1.765711
N	-0.244462	-1.445475	0.504467
O	-0.189998	-2.347315	-0.321212
O	-0.437878	-1.585031	1.704737
N	-0.451045	1.502811	-1.856378
H	-1.210871	1.689176	-2.493741
H	0.428785	1.708517	-2.307796
Br	-3.831122	0.0	0.0
