16

C	-0.500008	-0.059319	-1.441626
C	0.0	0.0	0.0
Cl	0.271002	1.329763	-2.373646
H	1.094151	0.0	0.0
C	-0.04101	-1.284848	-2.111471
N	0.237924	-2.273422	-2.681584
N	-1.928998	-0.018174	-1.521837
H	-2.260272	0.814928	-1.045906
H	-2.227899	0.018734	-2.490307
C	-0.401129	-1.239294	0.80123
H	0.068679	-2.117378	0.35198
H	0.006234	-1.137213	1.809789
H	-1.481933	-1.384814	0.850641
C	-0.512031	1.208688	0.618798
N	-0.949638	2.177972	1.123866
H	2.659634	0.0	0.0
