16

C	-0.236833	0.03835	-1.522416
C	0.0	0.0	0.0
Cl	0.031779	-1.703039	-2.194299
H	1.097519	0.0	0.0
C	-1.624666	0.321847	-1.911459
N	-2.739474	0.5605	-2.198478
N	0.66762	0.971354	-2.04733
H	0.697381	0.9697	-3.058673
H	1.597927	0.806394	-1.630462
C	-0.574695	-1.182352	0.763428
H	-0.441074	-1.008375	1.833561
H	-1.641761	-1.323413	0.564371
H	-0.034426	-2.090028	0.497866
C	-0.45873	1.261718	0.561169
N	-0.832612	2.251939	1.074435
H	2.724113	0.0	0.0
