16

C	-0.473286	0.033545	-1.446221
C	0.0	0.0	0.0
Cl	0.099337	1.541625	-2.247808
H	1.0957	0.0	0.0
C	0.134095	-1.090683	-2.19309
N	0.494601	-2.038085	-2.790384
N	-1.921841	0.024357	-1.549624
H	-2.272309	-0.781318	-1.04334
H	-2.195821	-0.064955	-2.520886
C	-0.372071	-1.301228	0.719959
H	0.171583	-1.316142	1.667046
H	-0.023563	-2.159225	0.139074
H	-1.441591	-1.40178	0.930186
C	-0.506199	1.149468	0.728704
N	-0.887121	2.047912	1.386027
H	2.658503	0.0	0.0
