16

C	-0.427682	0.052988	-1.442867
C	0.0	0.0	0.0
Cl	-2.38232	0.223215	-1.529733
H	1.102932	0.0	0.0
C	0.008175	1.281412	-2.109567
N	0.364424	2.241796	-2.684769
N	-0.009763	-1.062146	-2.173318
H	-0.270088	-1.930567	-1.731953
H	-0.312501	-1.034595	-3.136422
C	-0.371298	-1.302142	0.702605
H	-1.427291	-1.562153	0.587182
H	0.271562	-2.104356	0.327766
H	-0.145103	-1.202115	1.765319
C	-0.468986	1.16246	0.725822
N	-0.811891	2.096926	1.352258
H	2.580158	0.0	0.0
