16

C	-0.536383	0.242992	-1.41571
C	0.0	0.0	0.0
Cl	0.119324	1.809161	-2.012221
H	1.105109	0.0	0.0
C	-0.055099	-0.817876	-2.313896
N	0.258005	-1.709783	-3.009956
N	-1.985269	0.31215	-1.567546
H	-2.327101	1.005246	-0.906715
H	-2.372328	-0.588269	-1.301905
C	-0.378012	-1.379662	0.541647
H	0.144968	-1.518097	1.491813
H	-0.013127	-2.15351	-0.137363
H	-1.451984	-1.511133	0.709443
C	-0.501934	1.03823	0.878459
N	-0.922639	1.853209	1.616605
H	2.643037	0.0	0.0
