16

C	-0.270882	-0.152903	-1.515306
C	0.0	0.0	0.0
Cl	0.099307	-1.858037	-1.991801
H	1.094808	0.0	0.0
C	-1.685523	0.069481	-1.851196
N	-2.822522	0.2739	-2.069946
N	0.581525	0.712101	-2.296448
H	0.27853	1.670487	-2.146388
H	1.518592	0.617993	-1.880479
C	-0.575152	-1.055649	0.929866
H	-0.381317	-0.764095	1.965108
H	-1.654956	-1.180604	0.798931
H	-0.076054	-2.007643	0.752926
C	-0.429893	1.338472	0.372032
N	-0.764756	2.425852	0.673222
H	2.718445	0.0	0.0
