16

C	-0.211201	-0.18782	-1.49856
C	0.0	0.0	0.0
Cl	-1.941104	-0.676481	-1.921038
H	1.102925	0.0	0.0
C	-0.008961	1.080247	-2.225559
N	0.205076	2.046359	-2.861562
N	0.685528	-1.222418	-1.912588
H	1.603925	-1.011285	-1.477653
H	0.775534	-1.236071	-2.921675
C	-0.429877	-1.206401	0.828296
H	0.004693	-1.113379	1.826809
H	-1.516153	-1.282781	0.911338
H	-0.036452	-2.110672	0.364148
C	-0.563595	1.232184	0.507406
N	-1.024034	2.209758	0.972648
H	2.661752	0.0	0.0
