16

C	-0.522075	-0.033612	-1.444049
C	0.0	0.0	0.0
Cl	0.156972	1.377896	-2.326783
H	1.094957	0.0	0.0
C	-0.043737	-1.25278	-2.112567
N	0.269761	-2.254184	-2.641229
N	-1.96904	0.02424	-1.623257
H	-2.300526	0.858558	-1.146089
H	-2.377725	-0.78205	-1.161191
C	-0.380521	-1.252862	0.79169
H	-1.460077	-1.389753	0.914966
H	0.076982	-1.175325	1.780258
H	0.051247	-2.132554	0.308061
C	-0.518306	1.18892	0.650104
N	-0.958395	2.142717	1.181796
H	2.66273	0.0	0.0
