17

C	-0.364379	0.029704	-1.470055
C	0.0	0.0	0.0
F	0.120251	-1.119013	-2.034574
H	1.102539	0.0	0.0
N	-1.879453	-0.04084	-1.655172
O	-2.371726	-1.070738	-2.099249
O	-2.498386	0.969904	-1.330436
C	0.19947	1.221428	-2.192698
H	-0.247399	2.141961	-1.821325
H	1.275548	1.223184	-1.995794
H	0.010746	1.123838	-3.264618
N	-0.540469	-1.225291	0.61566
H	-0.275782	-1.191756	1.596152
H	0.014244	-1.980921	0.220178
C	-0.45952	1.181417	0.709987
N	-0.742356	2.135415	1.336272
H	2.712619	0.0	0.0
