17

C	-0.502772	-0.10213	-1.429681
C	0.0	0.0	0.0
F	-1.836496	-0.440489	-1.458512
H	1.092074	0.0	0.0
N	-0.414504	1.269267	-2.084085
O	0.71653	1.663473	-2.352869
O	-1.459313	1.882911	-2.284126
C	0.303803	-1.084646	-2.230546
H	1.361266	-0.829949	-2.134819
H	-0.016439	-1.078149	-3.275762
H	0.136295	-2.068512	-1.794783
N	-0.298593	-1.257816	0.683492
H	-1.130051	-1.188612	1.253524
H	0.505174	-1.466877	1.269736
C	-0.522357	1.171996	0.692935
N	-0.954631	2.088841	1.290983
H	2.655035	0.0	0.0
