17

C	-0.387905	-0.023616	-1.459544
C	0.0	0.0	0.0
F	0.222005	-1.081765	-2.058403
H	1.095649	0.0	0.0
N	-1.889405	-0.294404	-1.623808
O	-2.246997	-0.978212	-2.576459
O	-2.638296	0.240304	-0.809458
C	-0.039887	1.239901	-2.202891
H	-0.608267	2.088363	-1.819673
H	1.028816	1.411951	-2.045721
H	-0.242568	1.100779	-3.266992
N	-0.419737	-1.223867	0.66875
H	-1.187311	-1.051458	1.303583
H	0.37953	-1.564587	1.193786
C	-0.41349	1.223144	0.675572
N	-0.701697	2.190476	1.280053
H	2.672798	0.0	0.0
