17

C	-0.317923	0.15405	-1.483207
C	0.0	0.0	0.0
F	0.114619	-0.973139	-2.128272
H	1.097096	0.0	0.0
N	-1.834604	0.157161	-1.686863
O	-2.405827	1.247458	-1.695727
O	-2.395834	-0.939325	-1.755932
C	0.322111	1.368185	-2.09308
H	0.144642	1.383636	-3.171484
H	1.393349	1.284171	-1.878033
H	-0.073007	2.278978	-1.647208
N	-0.389622	-1.267099	0.598298
H	0.415795	-1.877886	0.525907
H	-1.155839	-1.691431	0.092954
C	-0.510457	1.143936	0.742881
N	-0.887153	2.081134	1.347101
H	2.641236	0.0	0.0
