16

C	0.0	0.0	0.0
C	-0.514514	0.182044	-1.477453
Cl	1.757498	0.0	0.0
H	-1.276592	0.950264	-1.391083
N	-0.405928	1.201665	0.853669
O	-0.495662	2.280748	0.286392
O	-0.495089	1.013776	2.058789
C	-0.462822	-1.21296	0.666406
N	-0.585595	-2.245396	1.215024
N	-1.081441	-1.097991	-1.890575
H	-1.915379	-1.125978	-1.28455
H	-1.408821	-0.968159	-2.843758
N	0.5262	0.650532	-2.36969
H	0.079506	1.112834	-3.150863
H	1.038092	-0.151524	-2.722745
F	-2.474256	0.0	0.0
