16

C	0.0	0.0	0.0
C	-0.518978	0.32182	-1.451988
Cl	1.756031	0.0	0.0
H	-1.281229	1.077767	-1.291715
N	-0.406308	1.112266	0.965052
O	-0.475835	2.242659	0.506049
O	-0.51464	0.807943	2.144383
C	-0.454735	-1.274191	0.546882
N	-0.589526	-2.351254	0.996691
N	-1.084444	-0.914626	-1.982475
H	-1.920133	-0.997445	-1.382291
H	-1.411211	-0.697896	-2.919807
N	0.519881	0.87642	-2.29689
H	1.029446	0.113734	-2.729707
H	0.071434	1.415951	-3.025412
F	-2.481753	0.0	0.0
