16

C	0.0	0.0	0.0
C	-0.441534	0.094162	-1.494475
Cl	1.751866	0.0	0.0
H	-1.530156	0.160352	-1.382019
N	-0.469753	1.162415	0.862054
O	-0.602875	2.25433	0.32144
O	-0.562452	0.953226	2.06145
C	-0.485148	-1.238498	0.605336
N	-0.626937	-2.285852	1.119799
N	-0.058961	-1.154181	-2.118252
H	0.794412	-1.016554	-2.645368
H	-0.795725	-1.489167	-2.720856
N	0.212706	1.212506	-2.186174
H	-0.264447	1.286974	-3.079613
H	-0.003412	2.058994	-1.671191
F	-2.493152	0.0	0.0
