16

C	0.0	0.0	0.0
C	-0.498311	-0.030662	-1.496428
Cl	1.760446	0.0	0.0
H	0.407318	-0.008006	-2.110062
N	-0.356363	1.293213	0.771462
O	-0.907946	1.169103	1.855129
O	0.024833	2.339361	0.269807
C	-0.446779	-1.131683	0.809633
N	-0.603473	-2.064607	1.506718
N	-1.277476	1.146685	-1.824367
H	-1.511672	1.072288	-2.809144
H	-2.127569	1.006537	-1.253902
N	-1.128638	-1.335283	-1.671185
H	-1.357731	-1.428362	-2.656271
H	-2.001208	-1.212032	-1.133589
F	-2.648344	0.0	0.0
