16

C	0.0	0.0	0.0
C	-0.545535	0.185115	-1.445761
Cl	1.793121	0.0	0.0
H	0.335815	0.285144	-2.087043
H	-0.306337	-0.963742	0.410754
C	-0.403445	1.048386	0.937828
N	-0.659525	1.900662	1.704137
C	-1.399283	1.440813	-1.605119
H	-2.311876	1.363331	-1.01028
H	-0.849405	2.342828	-1.320632
H	-1.689749	1.540101	-2.655044
C	-1.315493	-1.068462	-1.855816
H	-1.612615	-0.995075	-2.905529
H	-0.69501	-1.965234	-1.743803
H	-2.227305	-1.160516	-1.259404
Br	-4.458381	0.0	0.0
