16

C	0.0	0.0	0.0
C	-0.576172	0.368439	-1.365392
Cl	1.793351	0.0	0.0
H	-1.656399	0.399124	-1.173166
H	-0.327522	-1.000389	0.289011
C	-0.392116	0.954187	1.042455
N	-0.596076	1.758809	1.873264
C	-0.307874	-0.733062	-2.381671
H	-0.782188	-0.477869	-3.332335
H	0.762438	-0.874171	-2.561657
H	-0.739822	-1.678589	-2.044213
C	-0.111955	1.735078	-1.851585
H	-0.670273	2.00499	-2.751464
H	0.954778	1.741865	-2.095241
H	-0.301902	2.507136	-1.101636
Br	-3.787027	0.0	0.0
