16

C	0.0	0.0	0.0
C	-0.541682	0.16798	-1.45031
Cl	1.79178	0.0	0.0
H	0.342567	0.227524	-2.093602
H	-0.306416	-0.961925	0.413676
C	-0.413852	1.047149	0.932832
N	-0.6898	1.880699	1.712184
C	-1.35697	1.445655	-1.639054
H	-2.277048	1.406124	-1.050511
H	-1.638379	1.534443	-2.692881
H	-0.776931	2.333138	-1.366897
C	-1.346158	-1.071194	-1.836232
H	-1.636145	-1.011361	-2.889103
H	-2.263756	-1.122527	-1.244464
H	-0.756954	-1.984685	-1.699179
Br	-4.451081	0.0	0.0
