16

C	0.0	0.0	0.0
C	-0.580721	0.158743	-1.403344
Cl	1.793318	0.0	0.0
H	-1.664125	0.178583	-1.218407
H	-0.326351	-0.948109	0.430916
C	-0.399276	1.08667	0.89818
N	-0.631855	1.950964	1.6583
C	-0.263943	-1.05757	-2.263986
H	-0.772095	-0.96607	-3.227483
H	-0.626416	-1.973123	-1.788141
H	0.810001	-1.157935	-2.4508
C	-0.163433	1.463275	-2.067463
H	-0.413545	2.322629	-1.440102
H	-0.703488	1.577107	-3.010911
H	0.90933	1.487588	-2.282385
Br	-3.81517	0.0	0.0
