14
Coordinates from ORCA-job run
  C   0.31355194320746      0.41324630018112     -0.35991898875082
  C   -0.85364520528942     -0.54220634040057     -0.14746001017964
  Cl  1.09994968712853      0.16851799346512     -1.89076808299080
  H   -1.51434563440133     -0.45059590831321     -1.01080952072477
  H   -1.39985526696206     -0.19803548047472      0.73142898330864
  N   -0.12572837629734      1.86851641406049     -0.28241205192267
  O   0.71336219087974      2.68065542644825      0.08084136382016
  O   -1.27816504042028      2.09488716634080     -0.63061072636218
  N   1.28713029970428      0.23847444302047      0.80596003654394
  O   0.74052435330297      0.35448683116940      1.89698437977973
  O   2.46114770456428      0.01435766540909      0.58301648002748
  N   -0.30716823027166     -1.87025967441610      0.03872207988823
  H   -0.60742397728915     -2.28191541312365      0.90836160364202
  H   -0.52833444785602     -2.49012942336649     -0.72433554607932
