14
Coordinates from ORCA-job run
  C   0.50471679647944      0.43644903326073     -0.37814763340654
  C   -0.24085361686719     -0.86278334639792     -0.63763330846860
  Cl  1.43549102967983      0.93477991544256     -1.76795135242632
  H   -0.76299929014155     -0.71479784672564     -1.58451880516863
  H   0.51097332049525     -1.64745791145430     -0.78156146080118
  N   -0.53683981178489      1.50055598606090     -0.02485575678190
  O   -1.27895311883928      1.80740743027103     -0.94356009410640
  O   -0.57682774359416      1.88368055942502      1.13268654638907
  N   1.43964032476542      0.33862410097540      0.82226582061025
  O   1.38152282789326     -0.70091983994192      1.47251932603557
  O   2.15717953408650      1.30150819482606      1.03954192480293
  N   -1.20502948871668     -1.09261868067079      0.41380427435433
  H   -0.80266603511489     -1.62034355069517      1.17377103880594
  H   -2.02435472834105     -1.56508404437595      0.06263948016150
