14
Coordinates from ORCA-job run
  C   0.41325639242227      0.32145493543060     -0.36471749898710
  C   -0.20127601648586     -0.95851867466254      0.19152469013915
  Cl  0.69540421841532      0.25578403856265     -2.07092880655363
  H   -0.25351731017616     -0.84043671681207      1.27928203004488
  H   0.51643458013703     -1.75116133037851     -0.03554209348393
  N   -0.44591306678609      1.53965385534927     -0.03484885432918
  O   -0.08859005970635      2.60200918994928     -0.51942913370052
  O   -1.39350443597991      1.35368711575309      0.72019472822320
  N   1.72013642613488      0.56288854667290      0.40088904699069
  O   1.59211182220115      1.15390144624675      1.46681765770113
  O   2.73683675887690      0.06814807026768     -0.05758806894761
  N   -1.46761316897393     -1.22005715025567     -0.44933216712587
  H   -1.58983883001634     -2.20209744916575     -0.64203483357530
  H   -2.23392731006290     -0.88325587695769      0.11371330360409
