14
Coordinates from ORCA-job run
  C   0.48892153402382      0.44622431925427     -0.38796394479137
  C   -0.23305838380652     -0.86954731956323     -0.63092358380512
  Cl  1.58014474762728      0.83344578295771     -1.69370247130950
  H   0.54803396674773     -1.58838072770221     -0.88421814347010
  H   -0.87104826016838     -0.73406942935494     -1.51197475327118
  N   -0.47655356187004      1.61082503220273     -0.20008141025154
  O   -1.66925877143002      1.32485508663034     -0.14953143353383
  O   0.01644337113203      2.72323018094495     -0.10650273283084
  N   1.25831648929560      0.31107335678513      0.92792086343163
  O   2.18102560177704     -0.48658648114143      0.89545552370480
  O   0.84565113782180      0.94310448172432      1.88628528832664
  N   -0.90292436053683     -1.29132415791044      0.57834436932679
  H   -1.84217331674229     -0.92552526502709      0.62480180808289
  H   -0.92252019387124     -2.29732485980014      0.65309062039077
