14
Coordinates from ORCA-job run
  C   0.31333726705025      0.43940514010631     -0.33539492044428
  C   -0.78270934120124     -0.60339793206502     -0.14130840572622
  Cl  1.10042768261490      0.32779946421206     -1.87111485052715
  H   -1.52230372726967     -0.39981565931548     -0.92073488626476
  H   -1.24260098379762     -0.40212065829124      0.83170322214091
  N   -0.33111947214893      1.81750061268679     -0.13716323187587
  O   -0.54014592723367      2.10513142541357      1.03625862321274
  O   -0.65196684294158      2.45339160067653     -1.12696838119899
  N   1.35777745763820      0.36470376213218      0.77622259703248
  O   2.28576643803709      1.15478915087075      0.69418323242832
  O   1.15837256907586     -0.45139283676494      1.66843284942837
  N   -0.24306535141488     -1.93356659394803     -0.29248340710001
  H   -0.01698250415964     -2.33510994934506      0.60488073887018
  H   -0.88178726424908     -2.53731752636841     -0.78651317997572
