14
Coordinates from ORCA-job run
  C   0.44887599639511      0.28181876384537     -0.30759609761470
  C   -0.28785893311268     -0.96996659679713      0.13175358378000
  Cl  0.67692712521898      0.34635904966806     -2.03287541040429
  H   -0.26673612128114     -0.98506418337401      1.22167894195026
  H   0.27059030920863     -1.83718608797031     -0.23368838519216
  N   -0.33674354633537      1.49164786686082      0.20198833637538
  O   -0.81604419183180      2.27475889911185     -0.59402841710038
  O   -0.40988139536063      1.51891084262323      1.42433907064568
  N   1.81380708622145      0.40941853284910      0.35356500619151
  O   2.33217548231551      1.51554807793251      0.30662976129849
  O   2.27879836080244     -0.61042316375890      0.84808508941668
  N   -1.65966855450461     -0.85565136864270     -0.32768435547296
  H   -2.28082787451326     -1.37274583970712      0.27750106441788
  H   -1.76241374322262     -1.20742479264077     -1.26966818829139
