14
Coordinates from ORCA-job run
  C   0.40562963461598      0.41004052953690     -0.26859489761807
  C   -0.22837786130885     -0.96629636068118     -0.09673829546498
  Cl  0.60491795886565      0.86928564880741     -1.92449783446729
  H   -0.24492239936673     -1.17564189175392      0.97812201672315
  H   0.46125184418863     -1.66805639235547     -0.57378131469366
  N   -0.39062551846615      1.48690541128493      0.46441847960202
  O   0.02155990376182      2.63104208707822      0.35141321290983
  O   -1.34774464312503      1.10832269851778      1.12980313033442
  N   1.75158479903630      0.38129819438446      0.46648543281182
  O   2.75288656905651      0.13474667399281     -0.18489436648879
  O   1.66601901181882      0.52182736510561      1.68123508270458
  N   -1.51920220769607     -1.00758937236236     -0.74093467723183
  H   -2.25928512447435     -0.83639612569368     -0.07715634675887
  H   -1.67269196690655     -1.88948846586151     -1.20487962236235
