14
Coordinates from ORCA-job run
  C   0.48073692483737      0.39593217571830     -0.40906085399058
  C   -0.22529709915865     -0.94623068170041     -0.66573557822003
  Cl  1.41668483610285      0.88655627786303     -1.79326951988473
  H   0.56551526007985     -1.68055979154100     -0.83206703921335
  H   -0.75940705904971     -0.81687887293920     -1.61105907796440
  N   -0.58828762963883      1.42408075808414     -0.07158056094908
  O   -0.87019433998181      1.51311068349945      1.11837777172091
  O   -1.15142688448178      1.96455894692414     -1.01073397954698
  N   1.40657120987306      0.36339562528184      0.80087662749931
  O   1.53121058665955     -0.71533934452239      1.37112045619608
  O   1.94868851368548      1.41841422233570      1.09120738588430
  N   -1.13181180560104     -1.42215655883879      0.33791153628865
  H   -0.67523089564365     -1.54627843361379      1.22899110438389
  H   -1.94875161768272     -0.83860500655105      0.44602172779604
