14
Coordinates from ORCA-job run
  C   0.38854080016613      0.34892073348470     -0.36178990647378
  C   -0.84609852435340     -0.51494443074667     -0.12451507057830
  Cl  1.24390749191141     -0.06129993336497     -1.80784716783607
  H   -1.33164455559248     -0.13071382915516      0.77864132788030
  H   -1.50426760314386     -0.32456254998723     -0.97688034476184
  N   -0.07917221910299      1.80957511603991     -0.38493910674921
  O   -0.31116325095849      2.27695245896225      0.72451892632918
  O   -0.26215259917371      2.33952113316110     -1.46801184522938
  N   1.34646916935992      0.29303590183756      0.82599385745433
  O   2.37367517825592      0.94514242117405      0.71803957168958
  O   0.98931747584049     -0.36872202735315      1.79378732440407
  N   -0.48196861826683     -1.91017302714755     -0.07022590842621
  H   -0.35971180547318     -2.21450123286771      0.88370272360008
  H   -1.16773093946894     -2.48923073403718     -0.52947438130279
