14
Coordinates from ORCA-job run
  C   0.21911182768797      0.42105979637515     -0.38882447724956
  C   -0.85306378704872     -0.55744737483353      0.05478345573801
  Cl  0.67179020750482      0.19718459541876     -2.05528141447946
  H   -1.71069571465796     -0.44614416902243     -0.61556287931647
  H   -1.16235202306342     -0.25824895475545      1.05640884555438
  N   -0.21078489112465      1.86975236746976     -0.20679949476796
  O   0.68301538865732      2.70311402640450     -0.24054898672522
  O   -1.41123898302074      2.07037127411706     -0.06772806458225
  N   1.41833993584589      0.25919556087594      0.54692113628217
  O   1.13914422504995      0.51794092280429      1.71122757302379
  O   2.48557167097389     -0.10922945820043      0.09769021241057
  N   -0.25024606654515     -1.87654191751962      0.10160553490699
  H   -0.31508360577953     -2.34363720301433     -0.79219900620102
  H   -0.70250818447965     -2.45036946611966      0.79830756540601
