14
Coordinates from ORCA-job run
  C   0.30972090886029      0.42729704322421     -0.35275290171631
  C   -0.83135748091652     -0.56714242095395     -0.17842570333682
  Cl  1.14688088874282      0.22117512076854     -1.85888719400418
  H   -1.41273739128632     -0.24966625207145      0.68763680966069
  H   -1.47291502983794     -0.48724417885954     -1.05753047436535
  N   -0.17204113384898      1.86868477928182     -0.26676414040466
  O   -1.35203087610051      2.05851250110438     -0.53655101611908
  O   0.66585917225386      2.70837425889632      0.03031247160028
  N   1.25391026180461      0.26988211792027      0.84191772636203
  O   0.67743676070016      0.41277837634244      1.91456801960975
  O   2.42897764640726      0.02276722200430      0.65501527188368
  N   -0.24578356165686     -1.87965780132844      0.00816933365497
  H   -0.44649759056665     -2.50381169873635     -0.75738672267293
  H   -0.55042257455522     -2.30194906759255      0.87167851984791
