14
Coordinates from ORCA-job run
  C   0.46528886605002      0.32045408456836     -0.28997108044473
  C   -0.19158851050837     -0.99960101133522      0.09260256672824
  Cl  0.88212917878107      0.39371145418290     -1.97456468677184
  H   0.46591037075394     -1.80349700651392     -0.24132087972399
  H   -0.23887978091300     -1.03530674382969      1.18157681021615
  N   -0.48814588827926      1.44898721931774      0.10363796614024
  O   -0.79845431728487      1.40795939980896      1.28933934076145
  O   -0.85353319574544      2.25141216010950     -0.73329571139343
  N   1.72531274501363      0.58618515169790      0.52156935450227
  O   2.07610788385975      1.75343814694012      0.62065153317485
  O   2.29205403648318     -0.40200556799886      0.97261976083678
  N   -1.50764132926308     -1.02860356685772     -0.51405183547006
  H   -2.23347722060114     -1.13464145025197      0.17788084792510
  H   -1.59508283834651     -1.75749226983810     -1.20467398648106
