14
Coordinates from ORCA-job run
  C   0.42594770180182      0.40118363963597     -0.49742656644570
  C   -0.31894402919032     -0.92395312458633     -0.50156534813532
  Cl  1.31118532136497      0.64770557302019     -1.98116904110681
  H   -1.07842139242595     -0.86955259994423     -1.29024866077719
  H   0.42013194702509     -1.67257516379879     -0.79210311469385
  N   -0.50545137727944      1.58902393129970     -0.28504488686760
  O   -0.00796725322137      2.69975812949285     -0.37520639140214
  O   -1.67741074579871      1.32275708459953     -0.03499557130432
  N   1.38153635177411      0.38645700105919      0.69786151131110
  O   1.10663253452739      1.10560653840321      1.64415155342543
  O   2.28815937862882     -0.42543007452666      0.61070657953966
  N   -0.80370341109369     -1.21728612274837      0.82808716877566
  H   -0.81594301533692     -2.21127014545990      1.00103306387659
  H   -1.72475201077583     -0.83242466644635      0.97591970380444
