14
Coordinates from ORCA-job run
  C   0.43885609264826      0.24772205077718     -0.28914389294595
  C   -0.26706126072315     -1.06936059249021      0.04652634214647
  Cl  0.61731796746441      0.48980966725388     -2.00407481655218
  H   -0.18220481463593     -1.21595406517044      1.12410188658785
  H   0.28865942948125     -1.86802256964811     -0.44564050402109
  N   -0.35971527268291      1.37697941749377      0.35515015422589
  O   -0.38415131103292      1.30173706515018      1.57885688145261
  O   -0.94049886962556      2.18259691652276     -0.35170449479649
  N   1.82079656001818      0.34677939885711      0.34323614089752
  O   2.29248785014690      1.47096947531093      0.43483917854126
  O   2.34583857204148     -0.71198432272251      0.66347776034954
  N   -1.65395081833701     -1.12000350715350     -0.33761108164471
  H   -2.22798692438013     -0.48874989866002      0.20388653762758
  H   -1.78938720038290     -0.94151903552097     -1.32290009186825
