14
Coordinates from ORCA-job run
  C   0.48933507352086      0.44808627945912     -0.38498214500298
  C   -0.22927868593780     -0.86806530138982     -0.63410108693419
  Cl  1.38883759983619      0.96815522131216     -1.78746531637051
  H   0.53772474584318     -1.63588739903415     -0.78749768848586
  H   -0.76801209182424     -0.73314378660955     -1.57355869440480
  N   -0.57188240098703      1.48765695042691     -0.01767059660869
  O   -1.33487129635562      1.77441834564430     -0.92567317067994
  O   -0.60407757935882      1.87233898883221      1.13955707397339
  N   1.44256008893395      0.37186734268940      0.80216750426502
  O   2.13975208887017      1.35161990703007      1.01041550708778
  O   1.41858820498594     -0.66910574306802      1.45228354471964
  N   -1.17267585039379     -1.11915828645151      0.43189479544211
  H   -0.74797526956587     -1.64235276534118      1.18284619868011
  H   -1.98802462756714     -1.60642975349992      0.09178407431897
