14
Coordinates from ORCA-job run
  C   0.35828772791915      0.34117978348010     -0.27878532475285
  C   -0.17478846285175     -1.07227665283417     -0.01317358227195
  Cl  0.38312478211878      0.72339914087733     -1.97905667112791
  H   0.47683912094196     -1.74559144760377     -0.57339515017182
  H   -0.04061322921285     -1.27454395072148      1.05095940194772
  N   -0.44639002794642      1.39354149086137      0.48307489699496
  O   -0.98766698366174      0.98848904783976      1.50690549094905
  O   -0.44871337982960      2.53544582657170      0.05294774453494
  N   1.77847605678587      0.43624725590104      0.28111764674217
  O   1.96289099913811      1.18922253032787      1.22834854135419
  O   2.58593340031631     -0.31778439326344     -0.24109916527195
  N   -1.54626861776294     -1.30564505209367     -0.37056646766803
  H   -2.17735351947028     -0.76171536062049      0.20018722845285
  H   -1.72375786648454     -1.12996821872213     -1.34946458971137
