14
Coordinates from ORCA-job run
  C   0.51134188842867      0.31829759619019     -0.41823481493553
  C   -0.28618703975155     -0.99152150054122     -0.57836796020506
  Cl  1.38293915939395      0.70510025823228     -1.87749986751572
  H   0.45717513220198     -1.79468061535675     -0.58965288098938
  H   -0.73032086380272     -0.94537200752585     -1.57319362310545
  N   -0.43436337919848      1.47453175441573     -0.10954445985719
  O   -1.43593301914574      1.51581386995350     -0.81063872498075
  O   -0.11470062224118      2.25345362578378      0.77779499947254
  N   1.46925718600828      0.24955525926644      0.77217394747715
  O   2.60218129680040      0.68293808307273      0.65237940394445
  O   0.97454859169472     -0.24809058286661      1.77887543653418
  N   -1.31943295818719     -1.28546048856617      0.37290701317125
  H   -0.97489253570476     -1.28041032879724      1.32081097200214
  H   -2.10161283649642     -0.65315492326082      0.28219055898740
