14

C	0.0	0.0	0.0
C	-0.229558	0.160369	-1.53728
Br	1.931681	0.0	0.0
H	0.509983	-0.492376	-2.008588
H	-0.409525	0.773228	0.630729
H	0.116445	1.183574	-1.735903
N	-0.437348	-1.308984	0.560854
O	-0.587344	-1.363702	1.776074
O	-0.486593	-2.265697	-0.205665
C	-1.541652	-0.0703	-2.2731
H	-1.904316	-1.07999	-2.103643
H	-1.325646	0.066608	-3.345843
H	-2.31426	0.600828	-1.922804
F	-2.375895	0.0	0.0
