14

C	0.0	0.0	0.0
C	-0.511046	-0.212244	-1.403828
Br	1.92163	0.0	0.0
H	0.016226	-1.050698	-1.864701
H	-0.382143	0.902738	0.460988
H	-1.580662	-0.421071	-1.195619
N	-0.405929	-1.112158	0.928309
O	-0.580014	-0.811913	2.102878
O	-0.425536	-2.25097	0.474081
C	-0.400145	1.066133	-2.22066
H	-0.992291	1.844411	-1.732806
H	-0.822571	0.913745	-3.218139
H	0.630289	1.418252	-2.341628
F	-2.642135	0.0	0.0
