14

C	0.0	0.0	0.0
C	-0.362166	-0.149098	-1.485063
Br	1.934891	0.0	0.0
H	-1.405122	-0.463899	-1.509125
H	-0.369651	0.89439	0.48438
H	0.280631	-0.90915	-1.939484
N	-0.436978	-1.142374	0.842125
O	-0.435108	-2.264512	0.34167
O	-0.635279	-0.890865	2.033715
C	-0.247091	1.180775	-2.226032
H	0.778513	1.577882	-2.251866
H	-0.583216	1.061493	-3.264857
H	-0.911617	1.905181	-1.743818
F	-2.429378	0.0	0.0
