14

C	0.0	0.0	0.0
C	-0.226379	0.126909	-1.540143
Br	1.931506	0.0	0.0
H	0.159687	1.129692	-1.770036
H	-0.406874	0.787925	0.614401
H	0.486912	-0.567509	-1.991866
N	-0.442357	-1.296473	0.58601
O	-0.582568	-1.330398	1.803133
O	-0.502036	-2.265292	-0.164225
C	-1.548365	-0.065621	-2.270544
H	-1.957451	-1.052423	-2.074767
H	-1.321758	0.035787	-3.345303
H	-2.291402	0.648553	-1.939486
F	-2.377646	0.0	0.0
