15

C	0.0	0.0	0.0
C	-0.385271	-0.050916	-1.478513
F	1.392236	0.0	0.0
H	0.355365	0.60357	-1.95838
H	-0.356861	-0.86497	0.56281
H	-0.340477	0.918913	0.481284
C	-1.775755	0.482335	-1.797453
H	-1.842989	1.552885	-1.573525
H	-2.591612	0.020386	-1.220654
H	-1.979912	0.353939	-2.867767
C	-0.174883	-1.466276	-2.013656
H	-0.984096	-2.117015	-1.670139
H	-0.17875	-1.475325	-3.107312
H	0.779573	-1.87928	-1.676558
H	-4.288672	0.0	0.0
