18

C	-0.423565	0.06084	-1.471467
C	0.0	0.0	0.0
Br	0.065768	-1.616899	-2.379107
H	1.094908	0.0	0.0
C	-1.857904	0.266168	-1.664088
N	-2.985937	0.544305	-1.845951
C	0.366845	1.179575	-2.160144
H	0.052584	2.151653	-1.774685
H	1.430077	1.030501	-1.953326
H	0.183699	1.157234	-3.235058
N	-0.514707	-1.217853	0.69511
O	-1.564652	-1.718742	0.286087
O	0.109227	-1.592164	1.683793
C	-0.491343	1.191518	0.814832
H	-1.582514	1.266688	0.806166
H	-0.140085	1.064988	1.839932
H	-0.05541	2.114338	0.433337
Cl	3.325006	0.0	0.0
