18

C	-0.456794	0.050652	-1.458933
C	0.0	0.0	0.0
Br	0.253841	-1.491079	-2.454351
H	1.095458	0.0	0.0
C	-1.911507	0.047844	-1.604803
N	-3.074946	0.15512	-1.737311
C	0.130856	1.303091	-2.117766
H	1.20654	1.32502	-1.924591
H	-0.341055	2.198727	-1.707606
H	-0.053084	1.276858	-3.192319
N	-0.461656	-1.240958	0.70535
O	-1.301513	-1.962724	0.164015
O	0.016362	-1.434996	1.819423
C	-0.488381	1.186327	0.822561
H	-0.000309	2.099172	0.483666
H	-1.57527	1.30435	0.768998
H	-0.189825	1.023748	1.857849
Cl	3.292074	0.0	0.0
