18

C	-0.542728	-0.088304	-1.44264
C	0.0	0.0	0.0
Br	0.030052	1.531908	-2.41361
H	1.093484	0.0	0.0
C	0.01504	-1.213611	-2.195134
N	0.328139	-2.119735	-2.876172
C	-2.068433	-0.165554	-1.516825
H	-2.516895	0.710077	-1.046919
H	-2.386904	-0.20941	-2.559093
H	-2.418098	-1.065583	-1.003033
N	-0.445346	-1.266564	0.679867
O	-1.377506	-1.201467	1.486257
O	0.129417	-2.304204	0.35979
C	-0.467924	1.20061	0.797997
H	-0.076719	1.101912	1.811943
H	-1.55266	1.29229	0.858268
H	-0.035432	2.101941	0.364607
Cl	3.285345	0.0	0.0
