18

C	-0.36885	-0.135123	-1.488358
C	0.0	0.0	0.0
Br	-2.326483	-0.437252	-1.70664
H	1.094002	0.0	0.0
C	-0.102927	1.143256	-2.147406
N	0.112542	2.150059	-2.715349
C	0.386247	-1.24162	-2.2191
H	0.19705	-1.170333	-3.291634
H	0.073923	-2.217828	-1.856055
H	1.451493	-1.108451	-2.004509
N	-0.443236	-1.228092	0.731487
O	-1.351526	-1.115859	1.556955
O	0.126533	-2.284474	0.46218
C	-0.520376	1.244568	0.681422
H	-1.606215	1.325965	0.62318
H	-0.227038	1.224781	1.731169
H	-0.054137	2.11654	0.221182
Cl	3.271487	0.0	0.0
