14

C	-0.28079	-0.052722	-1.500215
C	0.0	0.0	0.0
Cl	-0.131144	1.710151	-2.146841
H	1.102202	0.0	0.0
H	-0.434331	0.891156	0.45107
N	0.662462	-0.932111	-2.065441
H	0.654664	-0.933065	-3.075982
H	1.59712	-0.722405	-1.687188
C	-1.654721	-0.431368	-1.859627
N	-2.755041	-0.718864	-2.153699
N	-0.5515	-1.20954	0.627791
H	-0.427258	-1.102939	1.629434
H	0.061906	-1.973196	0.356698
H	2.955924	0.0	0.0
