14

C	-0.375253	-0.011065	-1.482506
C	0.0	0.0	0.0
Cl	-0.079394	1.636936	-2.155258
H	1.100255	0.0	0.0
H	-0.407128	0.877952	0.513824
N	0.413554	-0.963404	-2.236828
H	0.23376	-1.856049	-1.781286
H	1.386365	-0.73892	-2.003064
C	-1.810187	-0.291521	-1.663418
N	-2.962373	-0.510069	-1.738397
N	-0.401248	-1.287613	0.564704
H	-1.243114	-1.21021	1.117871
H	0.352051	-1.61612	1.158085
H	2.913309	0.0	0.0
