16

C	-0.558065	0.037282	-1.409419
C	0.0	0.0	0.0
F	-0.071153	-1.088046	-2.060396
H	1.087648	0.0	0.0
H	-1.64559	-0.056708	-1.377973
C	-0.093866	1.269773	-2.148517
H	0.989285	1.359964	-2.065459
H	-0.559769	2.171989	-1.749845
H	-0.37319	1.171046	-3.19879
N	-0.492113	-1.179276	0.775222
O	0.06335	-1.366737	1.85442
O	-1.413715	-1.849449	0.310257
N	-0.504531	1.20189	0.732302
O	-1.666826	1.148158	1.141147
O	0.243633	2.168415	0.818137
Br	3.421568	0.0	0.0
