16

C	-0.549112	0.022729	-1.423237
C	0.0	0.0	0.0
F	0.025564	1.11666	-2.057405
H	1.088837	0.0	0.0
H	-0.177698	-0.876198	-1.91652
C	-2.049937	0.148629	-1.546569
H	-2.384311	1.105202	-1.145184
H	-2.556464	-0.656123	-1.016089
H	-2.318966	0.105485	-2.60389
N	-0.392585	-1.238451	0.734873
O	-0.855906	-2.175282	0.08359
O	-0.155033	-1.255715	1.935001
N	-0.532631	1.1657	0.760809
O	0.11369	2.204205	0.698458
O	-1.620464	1.023245	1.321256
Br	3.369821	0.0	0.0
