16

C	-0.555744	0.074367	-1.419477
C	0.0	0.0	0.0
F	-0.50882	-1.231535	-1.91597
H	1.087852	0.0	0.0
H	-1.609818	0.361351	-1.388374
C	0.276848	0.959738	-2.31329
H	1.324827	0.658687	-2.251947
H	0.190196	2.000406	-2.001145
H	-0.077755	0.864297	-3.341992
N	-0.56572	-1.209662	0.665377
O	0.183477	-2.146146	0.899416
O	-1.777303	-1.172222	0.884556
N	-0.432095	1.160592	0.834268
O	-0.249621	1.057799	2.042084
O	-0.899489	2.14339	0.260863
Br	3.403168	0.0	0.0
