16

C	-0.466798	0.006095	-1.439331
C	0.0	0.0	0.0
F	-1.851567	-0.154096	-1.494554
H	1.089782	0.0	0.0
H	-0.240425	0.998022	-1.834185
C	0.205732	-1.069275	-2.258929
H	1.287981	-0.996575	-2.13763
H	-0.113746	-2.058155	-1.931371
H	-0.059426	-0.94032	-3.309107
N	-0.530215	-1.201244	0.703428
O	-1.584165	-1.086192	1.324617
O	0.103539	-2.241262	0.541974
N	-0.435729	1.206009	0.769593
O	-0.157847	1.201971	1.963777
O	-0.983467	2.123615	0.161384
Br	3.375275	0.0	0.0
