16

C	-0.433037	0.031504	-1.448219
C	0.0	0.0	0.0
F	-1.821651	0.087751	-1.552435
H	1.096313	0.0	0.0
H	-0.037065	0.958668	-1.866159
C	0.088113	-1.172564	-2.197365
H	-0.394077	-2.084076	-1.840017
H	-0.127331	-1.058401	-3.261363
H	1.166717	-1.258424	-2.046667
N	-0.545471	-1.207738	0.67571
O	-1.717489	-1.163565	1.045664
O	0.195311	-2.185407	0.74042
N	-0.43223	1.205921	0.769245
O	-0.449572	1.104953	1.990815
O	-0.651568	2.230727	0.128615
Br	3.36889	0.0	0.0
