14

C	0.0	0.0	0.0
C	-0.527118	-0.185631	-1.417162
Br	2.019616	0.0	0.0
H	-0.232647	-1.148406	-1.826526
H	-1.627803	-0.088937	-1.327728
N	-0.523989	1.111206	0.632468
H	-0.332392	1.203874	1.614793
H	-0.505746	1.962119	0.095535
C	-0.305702	-1.221339	0.757199
N	-0.479043	-2.210595	1.366722
N	-0.021312	0.84117	-2.360393
O	0.344334	0.455212	-3.468513
O	-0.028783	2.018168	-1.997393
Cl	-3.621992	0.0	0.0
