14

C	0.0	0.0	0.0
C	-0.511716	-0.090084	-1.438981
Br	1.964877	0.0	0.0
H	-0.175086	-1.014019	-1.903445
H	-1.606645	-0.026496	-1.384161
N	-0.490337	1.165396	0.657555
H	-0.279139	1.110702	1.647609
H	-1.512537	1.15232	0.543946
C	-0.32967	-1.281884	0.663177
N	-0.524947	-2.277908	1.257331
N	-0.008971	1.019529	-2.288884
O	0.858468	0.740109	-3.121853
O	-0.500255	2.132759	-2.123493
Cl	-3.497823	0.0	0.0
