14

C	0.0	0.0	0.0
C	-0.543884	-0.137309	-1.410716
Br	2.017158	0.0	0.0
H	-0.33733	0.763454	-1.986351
H	-1.636306	-0.274457	-1.28117
N	-0.497008	1.198501	0.523621
H	-0.466209	1.276587	1.527079
H	-0.178641	2.027446	0.046502
C	-0.346354	-1.111754	0.891538
N	-0.51915	-1.948643	1.697782
N	0.020372	-1.270514	-2.176718
O	0.2613	-1.072478	-3.367637
O	0.172781	-2.338436	-1.590323
Cl	-3.60799	0.0	0.0
