14

C	0.0	0.0	0.0
C	-0.482583	-0.193021	-1.446264
Br	1.979883	0.0	0.0
H	-1.574441	-0.066696	-1.407169
H	-0.204643	-1.16821	-1.842324
N	-0.480259	1.137333	0.716788
H	-0.362358	1.951431	0.123989
H	-1.489763	0.986522	0.83183
C	-0.352822	-1.22875	0.727987
N	-0.559214	-2.216739	1.329811
N	0.085771	0.811112	-2.375946
O	0.577441	0.398269	-3.425701
O	0.014728	1.998439	-2.056616
Cl	-3.452677	0.0	0.0
