12
Coordinates from ORCA-job run
  C   -0.53624861157620      0.61302571103714     -0.04979920992545
  C   0.97335043700341      0.61002697081361      0.22738239675941
  H   -0.70678639972633      0.93397629708826     -1.08163042605708
  H   1.16650322224110      0.32960674393322      1.26772476051109
  H   -0.99327581788423      1.36750409827234      0.59808157309809
  H   1.39776391715574      1.60710555375601      0.07850491432016
  C   -1.17819121903794     -0.74830422807944      0.19152705215975
  H   -0.75625104512487     -1.50646627463153     -0.47193329859007
  H   -2.25467836395479     -0.70805364769384      0.01281360593247
  H   -1.02230975963536     -1.07701095121531      1.22267961211410
  C   1.68396316251664     -0.32957998144075     -0.64110554039345
  N   2.22416047802282     -1.09083029183969     -1.35224543992900
