12
Coordinates from ORCA-job run
  C   -0.51968515644744      0.62125170679307      0.09459389727948
  C   0.95014735178326      0.59015113912824     -0.34641828922896
  H   -1.03569674329079      1.36809446638082     -0.51676825395139
  H   1.40018418171109      1.58401892638096     -0.26747477367885
  H   -0.57186643226476      0.96704263820462      1.13108835332794
  H   1.02444498062818      0.28466171717717     -1.39498081295897
  C   -1.20140249435562     -0.73498309812693     -0.04385667072946
  H   -0.71578742723217     -1.48664758925893      0.58207455636748
  H   -2.24965246256216     -0.67591406053706      0.25593917140015
  H   -1.16887846396960     -1.08490020437374     -1.07908615564342
  C   1.74047881615778     -0.34048229255767      0.46081709627606
  N   2.34671384984223     -1.09329334921054      1.12607188153993
