17
Coordinates from ORCA-job run
  C   0.82174389882387      0.17835941547585     -0.10604245947155
  C   -0.65924820176099     -0.03456956025580      0.24223482224957
  F   0.93869026247428     -0.00073827941243     -1.49721356818552
  H   -0.75386101469423      0.05779546049303      1.32462499573755
  N   1.58334265520312     -0.85855476614981      0.54374288365790
  H   2.51258261558114     -0.52949886733056      0.76646062613306
  H   1.65525487998072     -1.66245177578948     -0.06629550188565
  N   1.22808961787223      1.49092136189692      0.21389350814721
  H   0.65811346789446      1.95121530371627      0.90452980195585
  H   2.21524174847586      1.58163247176466      0.39081430240042
  C   -1.20848404924208     -1.35151661914884     -0.25766090739965
  H   -1.08563824462222     -1.43203044717579     -1.33555997474664
  H   -2.27086333622379     -1.42911282303997     -0.02180831056960
  H   -0.68464466510389     -2.16910420432760      0.23821410187598
  N   -1.45651489811829      1.10994189453705     -0.31315528509849
  O   -1.59300036548905      2.08873738976162      0.42411108118560
  O   -1.90280437105115      1.00797404498486     -1.45089011598605
