17
Coordinates from ORCA-job run
  C   0.80744068552649      0.33747979488377      0.17361755428065
  C   -0.72087352484312      0.23342856154261      0.19257778869177
  F   1.06740890669852      1.72057399088806     -0.08332351972459
  H   -1.07378629260013      0.81195133755544      1.04683137008351
  N   1.40797363145202     -0.48472995670141     -0.80438122588424
  H   0.95150737839547     -0.34739142690538     -1.69761619220048
  H   2.38853386236799     -0.24607928888172     -0.89504487201851
  N   1.29132339218974      0.00635834600833      1.47302949508321
  H   1.27175201667566      0.82185628821222      2.07120186754518
  H   2.22980669805978     -0.36676107529392      1.43085352758399
  C   -1.22925263159579     -1.19273256408623      0.23139853869265
  H   -0.93807310796971     -1.73008272064943     -0.66965553085763
  H   -0.78982763436407     -1.69134282558562      1.09479034854637
  H   -2.31731591586643     -1.20372270295338      0.32482057480637
  N   -1.29804293200881      0.94034530986095     -0.99547439864985
  O   -2.06759824304194      1.87198608555218     -0.78417080988691
  O   -0.98097628907566      0.51986284655352     -2.10945451609150
