17
Coordinates from ORCA-job run
  C   0.87646357641429      0.00807239286286     -0.15040873978312
  C   -0.61403732670404     -0.11192887642596      0.25219855390285
  F   0.98115575127646     -0.30441844993523     -1.48950559111021
  H   -0.67466437990144     -0.11769356171638      1.34258386169147
  N   1.58673471200357     -1.00103043810595      0.57795331226714
  H   2.56971618480840     -0.91473905520793      0.34233420035101
  H   1.48646124388176     -0.86130077465558      1.57579878226798
  N   1.46962609076704      1.31553086320154     -0.03452945249136
  H   1.33578883281686      1.69651219892764      0.89375052953865
  H   1.06778826622132      1.95340623465766     -0.71200406754059
  C   -1.30883132409646     -1.30859017046443     -0.36005856240431
  H   -1.31898819321712     -1.21918569144468     -1.44399655791600
  H   -0.76268493694491     -2.21002050248231     -0.08328277977380
  H   -2.33577440297341     -1.38296417391452      0.00377227088063
  N   -1.29837748210983      1.15778046176566     -0.13873951078488
  O   -1.48940547523665      1.98703259305511      0.75179789964142
  O   -1.57097113700584      1.31353694988249     -1.32666414873686
