17
Coordinates from ORCA-job run
  C   0.79912824757145      0.04897928616237      0.39320435460498
  C   -0.73337748485079      0.04778009231885      0.29756197440305
  F   1.07415200005521     -0.59685251505956      1.61497140730333
  H   -1.11755638259659      0.52654315603619      1.19994416574051
  N   1.26161023444261      1.39481875648835      0.41825376009319
  H   0.87283238889917      1.90902926649732      1.20033753324750
  H   2.27229936265282      1.42747093116630      0.46733688312592
  N   1.40408396286897     -0.76366287700399     -0.61171128309353
  H   1.23669232726003     -0.35666709821576     -1.52311475886588
  H   2.40007944479782     -0.83869254301488     -0.44346048885361
  C   -1.32930307607231     -1.32931038260875      0.10250795353249
  H   -2.41994383348981     -1.27499573959480      0.11733654114962
  H   -0.99451474822137     -1.97368546869187      0.91549203535410
  H   -0.99422186127593     -1.75792101094162     -0.83922723431295
  N   -1.14125857365656      0.95366013713977     -0.82104021587944
  O   -1.75563364762698      1.97545456723502     -0.52726650933769
  O   -0.83506836075773      0.60805144208706     -1.96112611821161
