17

C	0.0	0.0	0.0
C	-0.768054	0.07695	-1.316458
Cl	1.74778	0.0	0.0
H	-1.824468	0.114859	-0.98251
N	-0.40379	1.109402	0.97565
O	-0.902899	2.119601	0.496743
O	-0.135461	0.920074	2.152867
N	-0.429367	-1.328006	0.693816
O	0.300243	-2.2904	0.528718
O	-1.487444	-1.290676	1.299252
N	-0.563131	-1.15943	-2.022256
H	-1.38776	-1.392803	-2.557566
H	0.244091	-1.078045	-2.628857
N	-0.339815	1.226095	-2.110816
H	-0.655102	2.069771	-1.645166
H	-0.856393	1.163853	-2.98193
Cl	-4.060034	0.0	0.0
