18

C	0.0	0.0	0.0
C	-0.414648	0.110963	-1.489031
F	1.419691	0.0	0.0
H	-1.498015	0.263426	-1.502252
N	-0.468015	1.055896	0.838543
H	-0.451495	1.93799	0.334285
H	-1.452518	0.860774	1.026812
C	-0.434646	-1.332459	0.571868
H	-0.159424	-1.340248	1.628053
H	0.082399	-2.149716	0.068406
H	-1.516188	-1.44644	0.478626
N	-0.039526	-0.969869	-2.351562
H	0.891874	-1.292681	-2.1227
H	-0.702612	-1.724262	-2.238374
N	0.209909	1.371606	-2.035584
O	1.260629	1.272279	-2.660133
O	-0.355074	2.436138	-1.777128
Br	-3.815346	0.0	0.0
