18

C	0.0	0.0	0.0
C	-0.391249	0.040126	-1.495026
F	1.417063	0.0	0.0
H	-1.475444	0.182768	-1.542606
N	-0.457131	1.091721	0.790843
H	-0.370692	1.962506	0.281436
H	-1.454594	0.943988	0.952661
C	-0.455244	-1.302532	0.61732
H	-0.189721	-1.272502	1.675923
H	0.03425	-2.142558	0.1292
H	-1.538006	-1.393216	0.513454
N	0.029565	-1.125704	-2.189162
H	-0.311673	-1.113778	-3.140729
H	1.040639	-1.155241	-2.208586
N	0.2255	1.308074	-2.104742
O	-0.27991	2.390651	-1.80819
O	1.200499	1.177472	-2.844875
Br	-3.828978	0.0	0.0
