18

C	0.0	0.0	0.0
C	-0.477704	0.095369	-1.442757
F	1.415904	0.0	0.0
H	-1.571677	0.028088	-1.414355
N	-0.484581	1.108167	0.73728
H	0.097923	1.920673	0.613508
H	-0.645472	0.89032	1.707455
C	-0.486534	-1.297996	0.600147
H	-1.579418	-1.280191	0.624454
H	-0.136708	-2.141002	0.007225
H	-0.090688	-1.378802	1.617077
N	0.098216	-0.919988	-2.269275
H	1.101634	-0.795778	-2.322555
H	-0.307133	-0.889008	-3.19515
N	-0.202182	1.471111	-2.060625
O	-0.749385	1.666357	-3.145323
O	0.583287	2.257647	-1.530496
Br	-4.001993	0.0	0.0
