18

C	0.0	0.0	0.0
C	-0.469819	0.067194	-1.464017
F	1.399498	0.0	0.0
H	-1.556056	0.184872	-1.460405
N	-0.449129	1.181354	0.672108
H	-1.455296	1.256798	0.513694
H	-0.318468	1.058526	1.670705
C	-0.426543	-1.306002	0.644625
H	-0.086991	-1.300172	1.684996
H	-1.516562	-1.374885	0.624016
H	0.023977	-2.167124	0.145561
N	-0.08555	-1.030382	-2.304766
H	0.852689	-1.334168	-2.076578
H	-0.738652	-1.791034	-2.173894
N	0.092002	1.324517	-2.075146
O	1.234429	1.26103	-2.528151
O	-0.620396	2.323541	-2.084261
Br	-3.815123	0.0	0.0
