16

C	-0.467776	-0.090656	-1.436474
C	0.0	0.0	0.0
F	-1.851972	-0.204023	-1.470677
H	1.09306	0.0	0.0
H	-0.368002	0.936663	0.429593
N	-0.208747	1.252611	-2.11572
O	0.512396	1.28594	-3.109102
O	-0.778522	2.222697	-1.61897
C	0.156015	-1.21256	-2.209023
H	-0.102558	-2.133822	-1.687993
H	1.240064	-1.092868	-2.211959
H	-0.222411	-1.234498	-3.231312
N	-0.448301	-1.19742	0.711721
H	0.278536	-1.47251	1.358823
H	-1.29246	-1.007039	1.233388
Br	3.592033	0.0	0.0
