16

C	-0.504308	-0.110572	-1.42339
C	0.0	0.0	0.0
F	-1.804759	-0.57025	-1.421271
H	1.090596	0.0	0.0
H	-0.309724	-0.934175	0.486434
N	-0.551476	1.281679	-2.028065
O	0.531917	1.835186	-2.149676
O	-1.638143	1.743873	-2.348442
C	0.348923	-0.991678	-2.299682
H	0.342519	-2.001235	-1.884303
H	-0.055211	-1.021146	-3.313436
H	1.375122	-0.624711	-2.3001
N	-0.526211	1.190682	0.658784
H	-1.261125	0.963479	1.309823
H	0.224762	1.635638	1.162824
Br	3.634047	0.0	0.0
