16

C	-0.436248	0.140359	-1.439174
C	0.0	0.0	0.0
F	-0.340024	-1.080409	-2.078802
H	1.094577	0.0	0.0
H	-0.369272	-0.95336	0.386242
N	-1.942667	0.426409	-1.457272
O	-2.63248	-0.248182	-0.694347
O	-2.381907	1.259028	-2.246732
C	0.319769	1.183026	-2.203946
H	0.174529	2.152257	-1.729322
H	-0.016914	1.225225	-3.239074
H	1.377914	0.91798	-2.149999
N	-0.467723	1.171773	0.743503
H	-1.261732	0.929057	1.320733
H	0.281226	1.495178	1.342011
Br	3.621077	0.0	0.0
