16

C	-0.476462	0.107992	-1.446211
C	0.0	0.0	0.0
F	0.001967	1.259147	-2.007661
H	1.093283	0.0	0.0
H	-0.349257	-0.951396	0.405893
N	0.099417	-1.050531	-2.240484
O	0.78789	-0.8091	-3.220689
O	-0.22914	-2.166068	-1.837029
C	-1.975089	0.067893	-1.660921
H	-2.191815	0.120466	-2.730393
H	-2.394747	-0.848775	-1.248592
H	-2.431447	0.933943	-1.179748
N	-0.430364	1.103142	0.845091
H	0.113741	1.924121	0.615649
H	-1.412029	1.317732	0.732094
Br	3.635533	0.0	0.0
