16

C	-0.337693	0.073138	-1.490408
C	0.0	0.0	0.0
F	0.012195	-1.117785	-2.062837
H	1.09388	0.0	0.0
H	-0.38185	-0.955287	0.373972
N	-1.848948	0.169141	-1.655383
O	-2.480737	-0.854674	-1.889767
O	-2.348276	1.283452	-1.476666
C	0.336171	1.201004	-2.223563
H	1.412567	1.074294	-2.081999
H	0.089831	1.160007	-3.287045
H	0.02722	2.16233	-1.818426
N	-0.437863	1.113111	0.824992
H	-1.31947	1.500337	0.516667
H	0.264346	1.839539	0.804574
Br	3.603011	0.0	0.0
