15

C	0.0	0.0	0.0
C	-0.441881	-0.165054	-1.464374
F	1.393157	0.0	0.0
H	-1.539073	-0.165656	-1.467604
H	-0.081625	0.674261	-2.066311
C	-0.447593	1.343703	0.536819
H	-0.027072	2.144654	-0.07661
H	-0.073441	1.441141	1.5572
H	-1.537147	1.404894	0.533245
N	-0.4524	-1.044792	0.869558
H	-0.258229	-1.948071	0.44893
H	-1.467026	-0.949635	0.94153
C	0.064223	-1.40876	-2.03607
N	0.45544	-2.422155	-2.481411
Cl	-3.675925	0.0	0.0
