15

C	0.0	0.0	0.0
C	-0.289694	-0.000987	-1.578126
F	1.417015	0.0	0.0
H	0.159837	0.874369	-2.011252
H	-1.387035	0.128637	-1.721287
C	-0.305759	1.364703	0.756614
H	-1.385838	1.542144	0.815127
H	0.091711	2.191247	0.191383
H	0.032739	1.282963	1.777096
N	-0.347706	-1.26511	0.723568
H	-0.165476	-1.178471	1.695885
H	-0.037301	-2.072317	0.24275
C	0.055582	-1.23844	-2.179755
N	0.331375	-2.282792	-2.639263
Cl	-2.126214	0.0	0.0
