15

C	0.0	0.0	0.0
C	-0.484508	0.137272	-1.442006
F	1.414657	0.0	0.0
H	-0.216618	-0.763169	-2.0038
H	-1.580999	0.195141	-1.393492
C	-0.486077	1.133617	0.868156
H	-1.578734	1.112612	0.877076
H	-0.125478	2.087337	0.479174
H	-0.098157	1.006435	1.883218
N	-0.46169	-1.24999	0.488878
H	0.054279	-2.012296	0.070157
H	-0.406549	-1.303137	1.495765
C	0.085752	1.296677	-2.121348
N	0.554291	2.222193	-2.670203
Cl	-3.879393	0.0	0.0
