15

C	0.0	0.0	0.0
C	-0.467013	0.120618	-1.449168
F	1.398856	0.0	0.0
H	-1.564283	0.092708	-1.451942
H	-0.145117	1.086219	-1.849804
C	-0.416726	1.220649	0.803652
H	-1.505936	1.281445	0.820633
H	-0.040393	1.112907	1.825488
H	0.008334	2.13283	0.375
N	-0.450742	-1.257014	0.523253
H	-1.468557	-1.262867	0.434244
H	-0.24058	-1.292115	1.515279
C	0.076191	-0.939286	-2.29581
N	0.492857	-1.778732	-3.001897
Cl	-3.672118	0.0	0.0
