15

C	0.0	0.0	0.0
C	-0.482366	0.164342	-1.440165
F	1.414553	0.0	0.0
H	-0.21472	-0.726128	-2.017658
H	-1.578844	0.222124	-1.392472
C	-0.487061	1.117809	0.887824
H	-1.579853	1.098429	0.893634
H	-0.123875	2.077956	0.517698
H	-0.102514	0.971261	1.901481
N	-0.462512	-1.258688	0.464542
H	-0.416756	-1.328169	1.470857
H	0.058373	-2.01315	0.037736
C	0.090199	1.335267	-2.097628
N	0.56144	2.269207	-2.629714
Cl	-3.879689	0.0	0.0
