15

C	0.0	0.0	0.0
C	-0.441742	-0.119013	-1.468944
F	1.393116	0.0	0.0
H	-0.079518	0.738022	-2.044161
H	-1.539009	-0.117274	-1.472514
C	-0.446288	1.327283	0.577763
H	-0.074081	1.392051	1.601224
H	-0.02258	2.145811	-0.009738
H	-1.535657	1.390879	0.573947
N	-0.453585	-1.070377	0.836721
H	-0.259831	-1.961081	0.389722
H	-1.468203	-0.976188	0.910871
C	0.062684	-1.345272	-2.078845
N	0.45244	-2.34487	-2.555501
Cl	-3.673584	0.0	0.0
