15

C	0.0	0.0	0.0
C	-0.441929	-0.16773	-1.464007
F	1.393259	0.0	0.0
H	-1.539142	-0.168372	-1.466917
H	-0.081783	0.670416	-2.067613
C	-0.447677	1.344598	0.534542
H	-0.029029	2.144612	-0.081361
H	-1.537295	1.404841	0.532602
H	-0.071902	1.444567	1.554077
N	-0.452375	-1.043136	0.871462
H	-1.467055	-0.94822	0.942806
H	-0.257684	-1.947279	0.45288
C	0.064027	-1.412445	-2.033608
N	0.454876	-2.426337	-2.4782
Cl	-3.675269	0.0	0.0
