16

C	-0.525804	-0.024749	-1.424784
C	0.0	0.0	0.0
Cl	0.141889	1.453498	-2.326269
H	1.098818	0.0	0.0
H	-0.093953	-0.858383	-1.978167
N	-1.944907	-0.066213	-1.440006
H	-2.274265	0.670346	-0.82472
H	-2.308854	0.074625	-2.372423
C	-0.4514	-1.256787	0.732835
H	-1.534549	-1.270485	0.868046
H	0.043659	-1.300361	1.707408
H	-0.152999	-2.149373	0.177942
N	-0.558456	1.185734	0.675728
H	-0.001604	1.984722	0.387698
H	-0.38873	1.07596	1.669925
Br	3.702788	0.0	0.0
