16

C	-0.522673	-0.041014	-1.426034
C	0.0	0.0	0.0
Cl	0.179333	1.397367	-2.358368
H	1.098113	0.0	0.0
H	-0.111568	-0.898012	-1.960343
N	-1.946162	-0.047217	-1.442809
H	-2.248004	0.706031	-0.83181
H	-2.297529	0.112612	-2.377921
C	-0.459467	-1.239951	0.754586
H	-0.143663	-2.144387	0.228785
H	-1.545602	-1.256784	0.867604
H	0.01391	-1.257655	1.741307
N	-0.551729	1.202409	0.652099
H	0.014475	1.991021	0.354346
H	-0.389691	1.108838	1.648981
Br	3.678611	0.0	0.0
