16

C	-0.491581	0.018171	-1.43834
C	0.0	0.0	0.0
Cl	-0.082045	1.547013	-2.261004
H	1.096081	0.0	0.0
H	0.055861	-0.750766	-1.997589
N	-1.946215	-0.140755	-1.496026
H	-2.158033	-1.114477	-1.303871
H	-2.257331	0.04989	-2.441725
C	-0.407168	-1.331534	0.647765
H	-1.487126	-1.377153	0.830752
H	0.106075	-1.426011	1.607504
H	-0.108662	-2.190626	0.036259
N	-0.466316	1.167347	0.72969
H	0.142321	1.322508	1.522918
H	-1.413911	1.024487	1.055395
Br	3.679472	0.0	0.0
