16

C	-0.44935	0.063299	-1.461745
C	0.0	0.0	0.0
Cl	-0.192993	-1.514592	-2.292329
H	1.09656	0.0	0.0
H	-1.530338	0.243872	-1.50548
N	0.227608	1.092534	-2.221658
H	1.226409	0.893453	-2.160074
H	0.081464	1.941542	-1.680877
C	-0.526899	-1.189288	0.786631
H	-1.623262	-1.236551	0.737679
H	-0.230428	-1.088841	1.834258
H	-0.125301	-2.130396	0.411655
N	-0.416573	1.293343	0.574474
H	0.298257	1.597367	1.226714
H	-1.281799	1.176661	1.093617
Br	3.632384	0.0	0.0
