16

C	-0.249142	-0.04334	-1.504954
C	0.0	0.0	0.0
Cl	-2.037049	-0.192685	-1.893676
H	1.100373	0.0	0.0
H	-0.002708	0.940723	-1.921972
N	0.458532	-1.140966	-2.097161
H	0.555059	-1.000651	-3.094682
H	1.393106	-1.158016	-1.688562
C	-0.515679	-1.228458	0.725096
H	-0.22123	-2.141042	0.204848
H	-0.098768	-1.23657	1.733378
H	-1.607109	-1.205292	0.798508
N	-0.473817	1.215078	0.647758
H	0.126139	1.987616	0.381458
H	-1.417033	1.421526	0.333141
Br	3.596675	0.0	0.0
