16

C	-0.392271	0.026637	-1.464425
C	0.0	0.0	0.0
Cl	-2.250104	0.312632	-1.628436
H	1.101898	0.0	0.0
H	0.019165	0.917346	-1.940681
N	0.027954	-1.117177	-2.167803
H	-0.153214	-1.041058	-3.158211
H	-0.392427	-1.961154	-1.807037
C	-0.497355	-1.230738	0.736158
H	-0.047281	-2.140943	0.333312
H	-1.587798	-1.294605	0.700176
H	-0.187338	-1.171436	1.782871
N	-0.50423	1.203236	0.683628
H	-0.044155	1.218021	1.589515
H	-0.130343	2.012346	0.193491
Br	3.687715	0.0	0.0
