16

C	-0.447486	0.012398	-1.460066
C	0.0	0.0	0.0
Cl	0.048821	1.535334	-2.268457
H	1.095328	0.0	0.0
H	0.089597	-0.771285	-2.007402
N	-1.89968	-0.068535	-1.564587
H	-2.185953	-0.985293	-1.239142
H	-2.168638	0.008064	-2.539022
C	-0.457185	-1.300406	0.658585
H	-1.535688	-1.293811	0.850134
H	0.051015	-1.389236	1.618968
H	-0.197141	-2.176882	0.054731
N	-0.483795	1.133628	0.778356
H	-1.398968	1.395546	0.424811
H	0.142343	1.914966	0.623522
Br	3.689968	0.0	0.0
