16

C	0.0	0.0	0.0
C	-0.529784	-0.078773	-1.449594
Br	1.963475	0.0	0.0
H	-1.580183	0.242618	-1.358248
C	-0.385883	1.212426	0.730746
N	-0.559909	2.170902	1.389128
C	-0.391787	-1.184828	0.76629
N	-0.579556	-2.168359	1.383257
C	-0.448187	-1.46085	-2.047796
H	-1.126888	-2.109186	-1.492677
H	-0.77989	-1.425158	-3.084621
H	0.567002	-1.863329	-2.021167
N	0.176888	0.945532	-2.281979
O	0.675679	0.59365	-3.349976
O	0.188435	2.093947	-1.84277
Cl	-3.266856	0.0	0.0
