18

C	0.0	0.0	0.0
C	-0.31069	-0.026359	-1.563191
Br	1.955897	0.0	0.0
H	0.58259	-0.431787	-2.048328
N	-0.627988	0.995954	0.799776
H	-1.653492	0.760068	0.731484
H	-0.502582	1.897554	0.355179
C	-0.315171	-1.324279	0.572551
N	-0.488994	-2.409932	0.988652
C	-0.517113	1.402685	-2.065416
H	0.280994	2.080927	-1.736404
H	-1.483704	1.786557	-1.729036
H	-0.511714	1.403076	-3.159503
C	-1.480374	-0.920085	-1.965816
H	-2.377769	-0.64617	-1.393406
H	-1.252391	-1.97402	-1.783923
H	-1.666473	-0.797119	-3.039341
H	-3.286252	0.0	0.0
