18

C	0.0	0.0	0.0
C	-0.494244	-0.055689	-1.449237
Br	1.990893	0.0	0.0
H	-1.591649	-0.086743	-1.27923
N	-0.588251	1.120296	0.650569
H	-1.628245	0.921387	0.507708
H	-0.417034	1.054605	1.651057
C	-0.282604	-1.278701	0.694699
N	-0.467452	-2.264265	1.31035
C	-0.070722	-1.307134	-2.202404
H	-0.576486	-1.328349	-3.173076
H	-0.35236	-2.215284	-1.663207
H	1.008439	-1.3293	-2.382122
C	-0.138747	1.212775	-2.214659
H	0.933975	1.255653	-2.434896
H	-0.412986	2.097642	-1.639867
H	-0.682745	1.226582	-3.165454
H	-2.998108	0.0	0.0
