14
Coordinates from ORCA-job run
  C   -0.30925493203807     -0.13005691805566     -0.29377398439468
  C   0.98518533394373     -0.70385996914433      0.26711126330990
  F   -0.35117130711503     -0.38101669236775     -1.64226407935057
  H   1.06209662529909     -1.75192181825923     -0.02429577836141
  H   0.96740811005891     -0.66369778043643      1.35950622113011
  C   -0.52894927170790      1.33314415999803     -0.03999226800656
  H   -0.56353869467578      1.53763181787791      1.03133332501854
  H   0.29215812553899      1.89419232179606     -0.48734369364788
  H   -1.46852986026346      1.64580926266951     -0.48983481948822
  N   -1.47239025423781     -0.95120920319592      0.27950002232538
  O   -2.56573252879025     -0.39960244384656      0.34008011200991
  O   -1.23674487619920     -2.12047485718064      0.57286442197559
  C   2.13536545608758      0.04092491724229     -0.23596241102824
  N   3.05309807409921      0.65113720290271     -0.63792833149188
