14
Coordinates from ORCA-job run
  C   -0.27519353161151     -0.15887950809190     -0.33589270321041
  C   0.97607259452998     -0.66262858293627      0.37695656265092
  F   -0.18101455829789     -0.46313176393792     -1.65685629479151
  H   0.86132791364933     -0.53462729058190      1.45451457714318
  H   1.09083395491342     -1.73040667688708      0.16681621282031
  C   -0.58249972418314      1.30582123628099     -0.16405918244343
  H   -1.50531779926195      1.54088513360460     -0.69730195629612
  H   -0.69986983236027      1.55235690690456      0.89054545342287
  H   0.23032597230934      1.89430922118525     -0.59167658461860
  N   -1.44378717171856     -0.96363605715108      0.22849782666592
  O   -2.12719623566845     -1.60875833874834     -0.55235675035268
  O   -1.59755396242653     -0.87078488409605      1.44312349523003
  C   2.15789209094934      0.05334388656354     -0.09286269403122
  N   3.09698028917688      0.64713671789159     -0.46944796218925
