14
Coordinates from ORCA-job run
  C   -0.24995116711358      0.08005668380355     -0.33088220753523
  C   1.21056800080757     -0.06135226426997      0.07638270964856
  F   -0.38238294735293     -0.25018138928481     -1.64193502468431
  H   1.31502643089914      0.16437583152447      1.13861135786013
  H   1.79387326702807      0.66602004412209     -0.49487003579467
  C   -0.83427606348670      1.44780932451437     -0.08227142292525
  H   -0.28823719217229      2.18333325438615     -0.67515207328941
  H   -0.77405865128830      1.70638814236770      0.97402451320976
  H   -1.87917995699336      1.45257425076989     -0.39762089218820
  N   -1.05607922942137     -0.93454003936393      0.47488427494838
  O   -0.94713865479063     -0.82195547975687      1.69260379441904
  O   -1.74182150741944     -1.74050065451708     -0.13449298093058
  C   1.71640602246286     -1.40534946191628     -0.19329157246609
  N   2.11825164884096     -2.48667824237929     -0.40599044027215
