19

C	-0.445525	-0.007005	-1.448375
C	0.0	0.0	0.0
Br	-2.376954	-0.511691	-1.660314
H	1.090544	0.0	0.0
C	-0.253199	1.387094	-2.033521
H	-0.432806	1.356058	-3.11
H	-0.928749	2.113458	-1.58707
H	0.786174	1.686134	-1.850708
C	0.373218	-1.006027	-2.253028
H	0.147056	-0.879649	-3.315137
H	1.43171	-0.7962	-2.05293
H	0.165635	-2.030411	-1.957727
N	-0.380617	-1.185255	0.781704
O	-0.942109	-1.029722	1.869822
O	-0.033651	-2.272304	0.317337
N	-0.455153	1.17919	0.787311
O	-1.568701	1.661509	0.562446
O	0.33304	1.591534	1.638951
H	2.523765	0.0	0.0
