19

C	-0.34768	-0.019123	-1.472469
C	0.0	0.0	0.0
Br	-2.314684	0.16395	-1.816671
H	1.091085	0.0	0.0
C	0.343117	1.140653	-2.183512
H	-0.118339	2.098591	-1.956761
H	1.385866	1.159117	-1.844878
H	0.302582	0.969256	-3.261711
C	0.152634	-1.333236	-2.060908
H	1.212978	-1.419579	-1.785188
H	-0.39808	-2.19083	-1.681807
H	0.06416	-1.306133	-3.149403
N	-0.419411	-1.170384	0.798538
O	-1.313736	-1.918781	0.394224
O	0.210376	-1.326047	1.84682
N	-0.439297	1.198259	0.730864
O	0.079248	2.261568	0.386696
O	-1.261659	1.077005	1.642702
H	2.499859	0.0	0.0
