19

C	-0.52564	-0.059706	-1.437364
C	0.0	0.0	0.0
Br	-0.046315	1.681984	-2.266917
H	1.088156	0.0	0.0
C	0.254272	-1.11655	-2.211499
H	-0.046932	-2.106147	-1.86859
H	0.045815	-1.022055	-3.279986
H	1.323605	-0.984867	-2.026122
C	-2.033209	-0.202775	-1.575074
H	-2.303359	-0.201762	-2.634224
H	-2.556206	0.611197	-1.074641
H	-2.3388	-1.149086	-1.12719
N	-0.356561	-1.134504	0.835445
O	-0.062355	-1.01421	2.035243
O	-0.74747	-2.195883	0.315067
N	-0.465991	1.209575	0.743567
O	0.332316	2.125556	0.909517
O	-1.640024	1.209634	1.12898
H	2.492551	0.0	0.0
