19

C	-0.508009	0.000957	-1.446678
C	0.0	0.0	0.0
Br	-0.084331	1.809015	-2.161909
H	1.091456	0.0	0.0
C	0.315609	-0.974712	-2.279925
H	0.042266	-1.99392	-2.007405
H	1.378548	-0.825255	-2.074158
H	0.112559	-0.81338	-3.341559
C	-2.005925	-0.197923	-1.619109
H	-2.25485	-0.167791	-2.683432
H	-2.27646	-1.176705	-1.217352
H	-2.572565	0.570702	-1.096247
N	-0.380112	-1.153655	0.781844
O	-0.621351	-2.227723	0.197261
O	-0.252088	-1.045469	2.013519
N	-0.458072	1.192333	0.783741
O	-1.670095	1.283334	0.998248
O	0.387059	1.997798	1.156024
H	2.477726	0.0	0.0
