19

C	-0.506113	-0.001189	-1.446166
C	0.0	0.0	0.0
Br	-0.052987	-1.798839	-2.169932
H	1.091493	0.0	0.0
C	-2.007118	0.170013	-1.620457
H	-2.254157	0.144973	-2.685418
H	-2.559655	-0.615065	-1.106073
H	-2.297255	1.138915	-1.208247
C	0.303575	0.995453	-2.269338
H	0.108734	0.839359	-3.333357
H	0.011727	2.007977	-1.989878
H	1.368631	0.861173	-2.059946
N	-0.45736	-1.191415	0.784808
O	-1.664083	-1.261016	1.036868
O	0.382158	-2.019784	1.11674
N	-0.379004	1.155609	0.781675
O	-0.206334	1.058253	2.008444
O	-0.665814	2.220343	0.199796
H	2.476285	0.0	0.0
