19

C	-0.457541	-0.000683	-1.469048
C	0.0	0.0	0.0
Br	-0.119937	1.845743	-2.130574
H	1.089586	0.0	0.0
C	0.458385	-0.905462	-2.286293
H	1.500528	-0.692977	-2.033421
H	0.284353	-0.739368	-3.352464
H	0.244454	-1.94537	-2.038105
C	-1.929801	-0.294257	-1.706924
H	-2.567463	0.411836	-1.178389
H	-2.139453	-0.239603	-2.778568
H	-2.14374	-1.306277	-1.356474
N	-0.389106	-1.17056	0.756864
O	-0.522544	-2.250889	0.152125
O	-0.389366	-1.060883	1.99428
N	-0.498167	1.17505	0.776058
O	0.327814	1.943614	1.256467
O	-1.720251	1.295605	0.87632
H	2.495981	0.0	0.0
