19

C	-0.535488	0.004823	-1.439454
C	0.0	0.0	0.0
Br	-0.2175	-1.826589	-2.143849
H	1.089836	0.0	0.0
C	-2.023447	0.302459	-1.564252
H	-2.212977	1.304934	-1.166497
H	-2.624023	-0.416381	-1.013195
H	-2.313347	0.289896	-2.618057
C	0.300385	0.929086	-2.316331
H	0.080794	1.964751	-2.060015
H	0.050458	0.753263	-3.365316
H	1.362205	0.744216	-2.141632
N	-0.468675	-1.1576	0.826211
O	0.359185	-1.650173	1.586731
O	-1.636534	-1.533167	0.717777
N	-0.392214	1.195063	0.73833
O	-0.892658	1.077638	1.869166
O	-0.092101	2.279606	0.21543
H	2.514462	0.0	0.0
