19

C	-0.53154	0.0439	-1.433633
C	0.0	0.0	0.0
Br	0.148485	-1.578468	-2.357097
H	1.087377	0.0	0.0
C	-2.046933	0.001584	-1.551764
H	-2.332879	0.024797	-2.60676
H	-2.468927	0.868738	-1.041687
H	-2.453714	-0.906092	-1.103233
C	0.109706	1.221694	-2.159752
H	-0.318719	2.154559	-1.795935
H	1.185605	1.21755	-1.96816
H	-0.071268	1.13549	-3.233532
N	-0.469364	-1.187911	0.762137
O	0.208232	-2.209025	0.679648
O	-1.516478	-1.081693	1.411182
N	-0.362281	1.15815	0.824586
O	-1.009693	2.108816	0.35439
O	0.124349	1.142184	1.960646
H	2.500166	0.0	0.0
