19

C	-0.343425	-0.013636	-1.480792
C	0.0	0.0	0.0
Br	-2.337261	-0.019224	-1.750114
H	1.088604	0.0	0.0
C	0.221495	1.22267	-2.160418
H	-0.260988	2.140436	-1.833455
H	1.286486	1.271621	-1.902124
H	0.098878	1.122748	-3.2409
C	0.228238	-1.2551	-2.145161
H	-0.250896	-2.171503	-1.8083
H	0.106932	-1.167872	-3.227468
H	1.293249	-1.295627	-1.884262
N	-0.422308	-1.237485	0.702883
O	-1.396602	-1.271994	1.456304
O	0.317744	-2.201457	0.474674
N	-0.42696	1.251139	0.675901
O	0.319495	2.208697	0.444145
O	-1.414532	1.301425	1.41027
H	2.520238	0.0	0.0
