15
Coordinates from ORCA-job run
  C   0.34174047001431      0.40822854311245      0.67080379511194
  C   0.03579823234447     -0.10936512940894     -0.73988236486423
  Br  1.03361197288834      2.27843645460780      0.48087474434671
  H   0.96141121503313     -0.05996953182715     -1.32881694993242
  N   1.30054391349367     -0.47953593136213      1.24742217451079
  H   1.43768319951896     -0.28756530104026      2.23250839125668
  H   2.19177495014413     -0.40913027881660      0.76866420877343
  C   -0.82999769751870      0.46173653328945      1.54265423034454
  N   -1.68902882882453      0.46409169301668      2.34433833332758
  N   -0.91873147904951      0.78480505583657     -1.49124688865376
  O   -1.79150584418436      1.36860061278694     -0.86396411105160
  O   -0.76471017664209      0.78555448637529     -2.71110569636518
  N   -0.59935282477269     -1.39040490242774     -0.64431834232653
  H   -0.10868182929077     -1.95916736148468      0.03448276442370
  H   -0.60255527315436     -1.85631494265767     -1.54341428890165
