15
Coordinates from ORCA-job run
  C   0.34094226549448      0.36952609238220      0.68164854212424
  C   0.03519465229121     -0.09595970238884     -0.74797228821713
  Br  1.04373717843993      2.24272800582817      0.55651647690721
  H   0.96634504900960     -0.04970403281142     -1.32753355657821
  N   1.28763838541630     -0.54467578375300      1.23295273579499
  H   2.17820482954246     -0.47761554504004      0.75205534156355
  H   1.43057046359165     -0.38031817683977      2.22236945309223
  C   -0.83386151515744      0.40830847531163      1.55052176685294
  N   -1.69450482968684      0.40090341876683      2.35057860046396
  N   -0.87947738140164      0.86731350831563     -1.46610438240666
  O   -1.84771738930307      1.29991110156844     -0.85636591808531
  O   -0.58968470318669      1.09063166435322     -2.64003224920494
  N   -0.63303908840307     -1.36024558737428     -0.69641623424782
  H   -0.61966901457938     -1.81502558991462     -1.60091547839274
  H   -0.18367890206749     -1.95377784840413     -0.01030280966632
