15
Coordinates from ORCA-job run
  C   0.42598963517803      0.42989919404275      0.69107221164905
  C   0.15679454554779      0.05147111186739     -0.78254176118047
  Br  2.44435102155210      0.80492562523201      0.72201549002802
  H   0.57562562955016      0.81726938848901     -1.43472571175787
  N   0.02616589203871     -0.61898355898821      1.52498096127512
  H   0.49150363861527     -1.48092063070152      1.26094979794052
  H   0.15245508608839     -0.41527413039443      2.50806787702380
  C   -0.16538221773742      1.69308165208029      1.11921928005603
  N   -0.62254369602670      2.68804462808089      1.54650720753487
  N   -1.35743239928069      0.13967896148228     -0.99641838631823
  O   -1.99677016291785     -0.90619746208631     -0.98843094077037
  O   -1.80834467147817      1.27153084967449     -1.13863303844924
  N   0.64014321949002     -1.26185478139368     -1.04403028142616
  H   1.17442562030182     -1.30103228325554     -1.89905806023679
  H   -0.13698114092143     -1.91063856412940     -1.08897464536829
