15
Coordinates from ORCA-job run
  C   0.09460626539279      0.25833567575051      0.82539681036789
  C   -0.12407981579744     -0.44429007712560     -0.53078754675216
  Br  -1.43629910733704      1.40619234810638      1.28208024297657
  H   0.69891002481180     -1.15182627171933     -0.66549850939618
  N   1.25617034738376      1.09624481651538      0.77379761809357
  H   2.05868574734297      0.59131722836623      0.41278112941408
  H   1.47004020104048      1.47761430207924      1.68693696077973
  C   0.13094757450476     -0.79584286695529      1.85146793049673
  N   0.26733052150862     -1.61900215351548      2.68049888922433
  N   0.10832498733585      0.58637660852259     -1.63851273657786
  O   -0.86778765958286      1.22516655953107     -2.01585724856795
  O   1.25507784395617      0.67560316454581     -2.06858106899217
  N   -1.36407639264822     -1.11035097964199     -0.59055479796008
  H   -2.13369089582005     -0.45389907732979     -0.62492646361794
  H   -1.41315964209159     -1.74063927712972     -1.37924120948857
