15
Coordinates from ORCA-job run
  C   0.02499534639306      0.36187489503887      0.79052005864891
  C   -0.07679832406428     -0.51031702792522     -0.47813978980893
  Br  -1.54849041675747      1.52885621061909      0.97393577536701
  H   0.76079019823345     -1.21322829819389     -0.45579632406446
  N   1.17903925495731      1.20898750396482      0.72498986716925
  H   2.01302041858416      0.67821734662598      0.49681643168544
  H   1.31385765232202      1.70763861555324      1.59569990055362
  C   -0.01282802900597     -0.55338370767601      1.94204124558330
  N   0.06404854973778     -1.26175324168516      2.87789582177383
  N   0.23615073576482      0.37576494544560     -1.68614341122069
  O   -0.71109508689346      0.94392917874947     -2.21828572557308
  O   1.41345104948824      0.43223146738041     -2.03077618485355
  N   -1.30200640134004     -1.20203837608978     -0.55069285764822
  H   -2.07173204719230     -0.56979948495841     -0.73029911658525
  H   -1.28140290022732     -1.92798002684903     -1.25376569102721
