15
Coordinates from ORCA-job run
  C   0.21064082924094      0.25446794403753      0.75957870159785
  C   -0.25202621817128     -0.40794754260932     -0.56044872638613
  Br  -0.44061007016225      2.18150194454262      0.80046019830416
  H   0.01511622559817     -1.46422105599038     -0.46964345059696
  N   1.59046445044913      0.09485910848050      0.99059658723899
  H   1.85373445408527      0.33614488057303      1.93709123849028
  H   2.13484734009946      0.62197699945071      0.31977867773466
  C   -0.55489118285269     -0.39495773506551      1.82534083618881
  N   -1.16305716573983     -0.95499761048130      2.66065387963894
  N   0.60607992834480      0.05575204481894     -1.74620179622336
  O   0.46568939117481     -0.60275907703638     -2.76509161825199
  O   1.34937302663451      1.02651345160384     -1.60969387778163
  N   -1.61503345373342     -0.27708766962392     -0.90368216658506
  H   -2.17453850403537     -1.06670478946678     -0.62586003215987
  H   -2.02478905093222      0.59845910676641     -0.61187845120868
