15
Coordinates from ORCA-job run
  C   0.32744720041504      0.54036367590473      0.79828599709411
  C   0.23016654420414     -0.00311837117321     -0.67856910163720
  Br  1.00878660697443      2.33471669656168      0.87726017391659
  H   1.14353781720032      0.28619496933119     -1.20351772062926
  N   1.19300794640385     -0.28421006645591      1.62535969915190
  H   1.01529802253295     -1.25235088423512      1.37550433368157
  H   2.15854907575830     -0.05951918045169      1.41808103033325
  C   -1.02714138018932      0.47462736534150      1.36149265752434
  N   -2.05835120107823      0.38431108827103      1.91639814359303
  N   -0.91939289129379      0.67466780505443     -1.43535822876667
  O   -1.04627895207589      1.87947435241650     -1.28479509471752
  O   -1.60014087104072     -0.04710291560929     -2.15683170995924
  N   0.07696243735911     -1.41550426793827     -0.62902554657489
  H   -0.89616671777254     -1.67284874513709     -0.49863369348370
  H   0.39271636260235     -1.83970152188050     -1.48765093952629
