17

C	-0.394638	-0.057882	-1.475898
C	0.0	0.0	0.0
Cl	-0.207733	1.599914	-2.211678
H	1.095497	0.0	0.0
H	-0.295406	-0.978228	0.410267
N	0.502734	-0.929587	-2.218267
H	1.454051	-0.680059	-1.927405
H	0.354578	-1.868569	-1.854879
C	-1.835832	-0.468555	-1.726055
H	-2.527345	0.232549	-1.254036
H	-2.030675	-0.498385	-2.79939
H	-2.006421	-1.465005	-1.303459
C	-0.573855	1.113985	0.858965
H	-0.216199	2.086089	0.516347
H	-1.670084	1.130746	0.863176
H	-0.233204	0.984385	1.890516
H	3.059099	0.0	0.0
