17

C	-0.250153	0.022614	-1.491752
C	0.0	0.0	0.0
Cl	-2.057373	0.31022	-1.861019
H	1.098351	0.0	0.0
H	-0.336404	0.955962	0.411368
N	0.48187	1.14483	-2.017643
H	1.416396	1.104334	-1.596722
H	0.580791	1.052667	-3.022795
C	0.102629	-1.298216	-2.157076
H	-0.530576	-2.119282	-1.815264
H	1.148677	-1.508781	-1.907593
H	-0.00298	-1.212414	-3.242938
C	-0.565774	-1.177667	0.769345
H	-0.384533	-1.03798	1.838741
H	-1.64443	-1.289668	0.617769
H	-0.072981	-2.110075	0.483905
H	2.983698	0.0	0.0
