17

C	-0.492234	-0.011499	-1.437727
C	0.0	0.0	0.0
Cl	0.064184	-1.557402	-2.211008
H	1.094113	0.0	0.0
H	-0.335919	-0.934357	0.462331
N	-1.953282	-0.058816	-1.482185
H	-2.248286	-0.156652	-2.450177
H	-2.305173	0.834627	-1.148623
C	0.115589	1.134018	-2.240115
H	1.206146	1.113997	-2.152385
H	-0.252965	2.090208	-1.853804
H	-0.175432	1.054244	-3.291945
C	-0.507556	1.180102	0.822581
H	-0.078709	1.121672	1.827005
H	-1.598119	1.179914	0.932238
H	-0.194315	2.140677	0.404635
H	2.92159	0.0	0.0
