13

C	-0.582611	-0.149528	-1.381639
C	0.0	0.0	0.0
Cl	0.178016	0.898887	-2.6171
H	1.096196	0.0	0.0
H	-1.652095	0.067276	-1.394661
H	-0.398311	-1.171725	-1.715099
N	-0.390947	-1.10157	0.87396
H	0.463954	-1.393364	1.343652
H	-0.703345	-1.882146	0.313341
N	-0.447901	1.256868	0.643004
O	-1.036968	2.114087	-0.02987
O	-0.132193	1.399704	1.824477
H	2.642016	0.0	0.0
