13

C	-0.571788	-0.078082	-1.400494
C	0.0	0.0	0.0
Cl	-0.321875	1.41356	-2.355899
H	1.089677	0.0	0.0
H	-1.648098	-0.267968	-1.370266
H	-0.049243	-0.890607	-1.906278
N	-0.432165	-1.162977	0.715372
H	0.249225	-1.366517	1.433981
H	-1.34962	-1.031349	1.117044
N	-0.533118	1.263493	0.645231
O	-1.742502	1.266358	0.914574
O	0.226269	2.202336	0.859307
H	2.833107	0.0	0.0
