13

C	-0.462319	0.16853	-1.445266
C	0.0	0.0	0.0
Cl	-0.375433	-1.377706	-2.352728
H	1.089502	0.0	0.0
H	-1.490905	0.519665	-1.520419
H	0.204269	0.86242	-1.951287
N	-0.447856	-1.146796	0.721481
H	-1.124886	-1.685652	0.202178
H	0.361851	-1.728635	0.908376
N	-0.370392	1.251575	0.716351
O	-0.523241	2.271517	0.022001
O	-0.376183	1.252107	1.944945
H	2.628403	0.0	0.0
