13

C	-0.622978	-0.014986	-1.37386
C	0.0	0.0	0.0
Cl	0.16931	1.05721	-2.570375
H	1.095626	0.0	0.0
H	-0.536525	-1.028178	-1.761666
H	-1.67377	0.269196	-1.328285
N	-0.405836	-1.227883	0.69856
H	-0.293533	-1.016899	1.68742
H	0.357327	-1.875577	0.504702
N	-0.424766	1.154984	0.777125
O	-0.270281	1.098801	2.007542
O	-0.809346	2.169561	0.180467
H	2.596089	0.0	0.0
