13

C	-0.590515	0.015403	-1.400588
C	0.0	0.0	0.0
Cl	-0.476879	1.544933	-2.317372
H	1.089682	0.0	0.0
H	-1.647473	-0.257034	-1.360962
H	-0.037069	-0.738	-1.959561
N	-0.396479	-1.247931	0.593034
H	-1.235921	-1.117108	1.14401
H	0.360812	-1.543169	1.201079
N	-0.475773	1.178738	0.798029
O	-1.374016	1.003302	1.636079
O	0.062821	2.261279	0.581787
H	2.729843	0.0	0.0
