13

C	-0.525375	-0.100116	-1.414315
C	0.0	0.0	0.0
Cl	-0.270973	1.391237	-2.368953
H	1.0894	0.0	0.0
H	0.029401	-0.899132	-1.909289
H	-1.599261	-0.300174	-1.420467
N	-0.374381	-1.140605	0.790583
H	0.435491	-1.743342	0.869896
H	-1.176339	-1.640557	0.432417
N	-0.610515	1.210799	0.646105
O	-1.844725	1.250341	0.652113
O	0.116699	2.064098	1.138554
H	2.805533	0.0	0.0
