15

C	-0.475317	0.012793	-1.458252
C	0.0	0.0	0.0
F	-0.131216	1.261383	-1.964996
H	1.092138	0.0	0.0
H	0.102959	-0.733009	-2.004655
C	-1.964853	-0.174542	-1.63354
H	-2.272284	-1.168697	-1.307124
H	-2.510275	0.582145	-1.06539
H	-2.217956	-0.063512	-2.690201
N	-0.382455	-1.294487	0.649471
O	-0.718959	-1.282417	1.82959
O	-0.272794	-2.29996	-0.050242
C	-0.545919	1.118376	0.751882
N	-0.984636	2.052167	1.31267
Br	3.334712	0.0	0.0
