15

C	-0.512219	0.037313	-1.437635
C	0.0	0.0	0.0
F	-0.121778	-1.155598	-2.03542
H	1.091911	0.0	0.0
H	-1.605789	0.041668	-1.438023
C	0.077947	1.199322	-2.198508
H	1.165699	1.176754	-2.113793
H	-0.29437	2.146091	-1.801506
H	-0.210498	1.122081	-3.248805
N	-0.524206	-1.25759	0.64714
O	-1.749726	-1.374356	0.683388
O	0.288835	-2.066678	1.06898
C	-0.517029	1.139994	0.745327
N	-0.932623	2.079376	1.314617
Br	3.425584	0.0	0.0
