15

C	-0.53234	0.036299	-1.430158
C	0.0	0.0	0.0
F	-0.125907	-1.145146	-2.041345
H	1.091864	0.0	0.0
H	-1.626407	0.016601	-1.411986
C	0.017579	1.216216	-2.194629
H	-0.289475	1.140102	-3.239883
H	1.107794	1.21841	-2.131038
H	-0.370798	2.151492	-1.784631
N	-0.512284	-1.26367	0.649871
O	0.309068	-2.06582	1.069128
O	-1.736596	-1.392901	0.690332
C	-0.519562	1.133465	0.753771
N	-0.938094	2.068342	1.328611
Br	3.412618	0.0	0.0
