15

C	-0.410033	-0.054348	-1.471261
C	0.0	0.0	0.0
F	-1.804937	-0.071084	-1.561957
H	1.09212	0.0	0.0
H	-0.069465	0.894191	-1.899776
C	0.169213	-1.213975	-2.24575
H	1.248111	-1.25999	-2.077007
H	-0.280989	-2.152685	-1.926036
H	-0.034568	-1.063264	-3.308501
N	-0.478864	-1.212507	0.739503
O	0.068306	-2.270832	0.448955
O	-1.383311	-1.081264	1.560891
C	-0.528458	1.19593	0.644804
N	-0.90182	2.207717	1.109899
Br	3.37032	0.0	0.0
