18
Coordinates from ORCA-job run
  C   -0.85949273595895     -0.20173120833870     -0.08477301878029
  C   0.48529867252985     -0.26711642099457      0.65385286146143
  Br  -1.98148911762421     -1.64382436331675      0.56668744842420
  H   0.24803384677395     -0.19713085621534      1.71718549360835
  N   -0.67137806612509     -0.34359717230735     -1.60172423406068
  O   -1.10136989441926     -1.32201060225361     -2.18670281062755
  O   -0.09040043531091      0.61247082874055     -2.11000150261154
  C   -1.56838385014280      1.12055757830135      0.15918671961750
  H   -0.98105097479255      1.94395744266305     -0.24460236062267
  H   -1.72192522437456      1.26289693604618      1.22985797913893
  H   -2.54296929415018      1.11011636106541     -0.33107798429081
  C   1.54471933513282      0.75764967529780      0.27632063962872
  H   1.86632696066670      0.63286166042708     -0.75494090630857
  H   1.17109251557097      1.77239071656468      0.41092946156448
  H   2.40083824825158      0.61981814062548      0.94117145376738
  N   1.10292281692305     -1.62569611557400      0.49554640326271
  O   1.31237145128814     -1.99768330859780     -0.65633616568018
  O   1.38785574576145     -2.23592929213348      1.52142052250859
