18
Coordinates from ORCA-job run
  C   -0.83813315012280     -0.23115985135588     -0.01965716815031
  C   0.63642708364025     -0.56780068335681      0.24710421914481
  Br  -1.90503556272774     -1.21871466873458      1.28279724663189
  H   0.74125687287552     -1.65175521340698      0.23622552159179
  N   -1.17785465325054     -0.84868363306223     -1.38439071471941
  O   -0.90125673215788     -2.03227390497599     -1.53248002184949
  O   -1.67443647096637     -0.10585674203599     -2.22517179341636
  C   -1.22748118915583      1.22555660879506      0.01776964166561
  H   -1.03771438241479      1.62452890029871      1.01429594456013
  H   -2.28811468422228      1.33035595036440     -0.20454051324176
  H   -0.65198389403150      1.79013529308731     -0.71378737105249
  C   1.21194031252628      0.05781837463823      1.50246947857557
  H   0.63744410564577     -0.24958662067909      2.37619394050552
  H   1.21435160584706      1.14456484715858      1.42911372558155
  H   2.24170148390584     -0.28141569818548      1.63257293945358
  N   1.46273093503539     -0.10801272987668     -0.93223926349331
  O   1.58340796621712      1.10463085282029     -1.09967208769180
  O   1.97275035335649     -0.98433108149286     -1.62660372409552
