15

C	0.0	0.0	0.0
C	-0.449135	0.073056	-1.461837
Br	2.039118	0.0	0.0
H	-1.48703	-0.265092	-1.377912
H	0.16458	-0.630603	-2.037424
C	-0.352873	1.19864	0.777588
N	-0.54059	2.172571	1.40872
N	-0.444485	-1.148522	0.730081
H	-0.231991	-1.970712	0.172989
H	-1.475192	-0.946805	0.697661
C	-0.439188	1.471781	-2.059651
H	-0.720149	1.428753	-3.116833
H	-1.187756	2.076104	-1.539036
H	0.537324	1.962396	-1.980397
F	-2.677416	0.0	0.0
