15

C	0.0	0.0	0.0
C	-0.461799	-0.031327	-1.463023
Br	1.96995	0.0	0.0
H	0.010554	0.799019	-1.997253
H	-1.542485	0.136493	-1.363278
C	-0.308666	1.335283	0.566175
N	-0.512117	2.399291	1.023644
N	-0.590238	-1.073729	0.722077
H	-0.408703	-0.943792	1.713192
H	-1.630411	-0.838951	0.538119
C	-0.185433	-1.360286	-2.151033
H	-0.673851	-2.168012	-1.606229
H	-0.586981	-1.33624	-3.169335
H	0.884656	-1.57958	-2.210558
F	-2.808227	0.0	0.0
