15

C	0.0	0.0	0.0
C	-0.460757	-0.039706	-1.463268
Br	1.970491	0.0	0.0
H	0.010585	0.78881	-2.00159
H	-1.541697	0.128039	-1.364876
C	-0.310366	1.337816	0.558156
N	-0.511382	2.405518	1.008025
N	-0.589683	-1.070643	0.727232
H	-0.409652	-0.934094	1.717585
H	-1.629871	-0.835891	0.541037
C	-0.183175	-1.372363	-2.144032
H	0.886302	-1.596222	-2.192057
H	-0.680018	-2.176282	-1.601002
H	-0.574504	-1.350864	-3.166046
F	-2.806395	0.0	0.0
