15

C	0.0	0.0	0.0
C	-0.186033	-0.295743	-1.541928
Br	1.981604	0.0	0.0
H	0.506626	0.361111	-2.076323
H	0.209111	-1.313533	-1.661632
C	-0.370661	1.396817	0.277877
N	-0.557438	2.548885	0.412949
N	-0.636142	-0.864084	0.912345
H	-1.681031	-0.59213	0.711464
H	-0.496676	-1.815585	0.580413
C	-1.546545	-0.192812	-2.218611
H	-2.299314	-0.803322	-1.733711
H	-1.397392	-0.474428	-3.270281
H	-1.929281	0.826862	-2.172394
F	-2.845721	0.0	0.0
