15

C	0.0	0.0	0.0
C	-0.212459	0.170743	-1.546613
Br	1.965515	0.0	0.0
H	0.44926	0.986037	-1.851694
H	0.219019	-0.749057	-1.955522
C	-0.333828	1.25226	0.716913
N	-0.555694	2.250119	1.298346
N	-0.645543	-1.156225	0.486163
H	-1.694419	-0.845427	0.312398
H	-0.518192	-1.202079	1.494371
C	-1.573282	0.413825	-2.186004
H	-2.027051	1.337323	-1.832128
H	-2.28724	-0.368091	-1.96048
H	-1.39059	0.482403	-3.268397
F	-2.847368	0.0	0.0
