15

C	0.0	0.0	0.0
C	-0.440587	0.002627	-1.469028
Br	1.968747	0.0	0.0
H	0.038735	-0.865151	-1.931024
H	-1.522668	-0.150058	-1.38205
C	-0.339009	1.279799	0.664301
N	-0.504613	2.312615	1.202153
N	-0.543862	-1.151886	0.640847
H	-1.585198	-0.92714	0.512641
H	-0.32342	-1.121769	1.633377
C	-0.142831	1.28652	-2.231321
H	0.916964	1.547806	-2.21288
H	-0.713471	2.114339	-1.809017
H	-0.444723	1.175297	-3.276439
F	-2.755933	0.0	0.0
