15

C	0.0	0.0	0.0
C	-0.440627	-0.00786	-1.477275
Br	1.97633	0.0	0.0
H	-1.515175	0.196654	-1.382078
H	0.071374	0.799882	-2.010504
C	-0.343046	1.316378	0.572351
N	-0.518811	2.38324	1.03033
N	-0.5633	-1.011367	0.833241
H	-0.372537	-1.909712	0.399183
H	-1.601356	-0.77421	0.680483
C	-0.224496	-1.343885	-2.173176
H	-0.482622	-1.256163	-3.23253
H	0.811609	-1.689514	-2.106514
H	-0.88236	-2.104252	-1.746276
F	-2.771146	0.0	0.0
