17

C	0.0	0.0	0.0
C	-0.234765	-0.013908	-1.572421
Cl	1.788136	0.0	0.0
H	0.368592	-0.841485	-1.95085
C	-0.468318	1.296651	0.632256
H	-1.558764	1.288242	0.526568
H	-0.006332	2.162988	0.156776
H	-0.188509	1.269843	1.687307
N	-0.575902	-1.103694	0.667121
H	-1.609699	-0.857776	0.585301
H	-0.4089	-1.954693	0.139246
C	0.209742	1.213198	-2.223993
N	0.613583	2.180799	-2.754036
N	-1.619914	-0.357589	-2.088049
O	-1.881373	-1.554433	-2.073365
O	-2.286679	0.527729	-2.600239
F	-2.809043	0.0	0.0
