17

C	0.0	0.0	0.0
C	-0.579987	0.06424	-1.420922
Cl	1.829657	0.0	0.0
H	-1.685762	0.11567	-1.174074
C	-0.404495	1.217776	0.828331
H	-0.038076	1.06576	1.848093
H	-1.496485	1.233732	0.810234
H	0.010717	2.150979	0.445808
N	-0.508357	-1.244839	0.513384
H	-1.534232	-1.072342	0.480527
H	-0.227788	-1.323073	1.486421
C	-0.250273	-1.106295	-2.219747
N	-0.076383	-2.03267	-2.92104
N	-0.17643	1.298616	-2.157867
O	-0.783987	2.330667	-1.875464
O	0.729831	1.220614	-2.987901
F	-2.85792	0.0	0.0
