17

C	0.0	0.0	0.0
C	-0.23883	-0.112122	-1.56532
Cl	1.803407	0.0	0.0
H	0.399654	-0.930573	-1.904901
C	-0.461177	1.33239	0.558174
H	-1.550834	1.32473	0.448658
H	0.00818	2.16942	0.039973
H	-0.186092	1.359054	1.614384
N	-0.565924	-1.060992	0.739947
H	-0.408501	-1.940846	0.258798
H	-1.600128	-0.822583	0.651097
C	0.144453	1.096175	-2.286188
N	0.512265	2.04926	-2.864456
N	-1.608626	-0.557623	-2.040796
O	-2.304129	0.238457	-2.650914
O	-1.82183	-1.75623	-1.897374
F	-2.802988	0.0	0.0
