17

C	0.0	0.0	0.0
C	-0.404918	0.203643	-1.489721
Cl	1.842999	0.0	0.0
H	0.421656	0.713369	-1.987944
C	-0.387025	1.237786	0.803284
H	0.023964	1.143258	1.81265
H	0.003114	2.156609	0.356001
H	-1.480447	1.228472	0.820145
N	-0.522663	-1.237087	0.468695
H	-1.557768	-1.0293	0.388017
H	-0.287383	-1.322746	1.453313
C	-1.608953	0.991501	-1.774947
N	-2.273985	1.810646	-2.295636
N	-0.473709	-1.132414	-2.187577
O	-1.570266	-1.632882	-2.397994
O	0.611802	-1.618263	-2.496533
F	-2.733745	0.0	0.0
