14

C	0.0	0.0	0.0
C	-0.406889	-0.182382	-1.490426
F	1.36642	0.0	0.0
H	0.540014	-0.330369	-2.023964
H	-0.996388	-1.091679	-1.550631
C	-0.460989	1.255967	0.595533
N	-0.562729	2.360235	0.983295
N	-0.377696	-1.161486	0.889086
O	-0.52857	-0.931201	2.082569
O	-0.348808	-2.274284	0.375993
N	-1.171249	0.888624	-2.096304
H	-1.995664	0.904662	-1.484515
H	-0.675192	1.767538	-1.981756
F	-2.374337	0.0	0.0
