14

C	0.0	0.0	0.0
C	-0.407431	0.032037	-1.483031
F	1.356296	0.0	0.0
H	-0.358261	1.087769	-1.77493
H	-1.453503	-0.265478	-1.485099
C	-0.508269	1.122573	0.788573
N	-0.602114	2.126326	1.395464
N	-0.397862	-1.302202	0.666271
O	-0.312936	-1.321756	1.891804
O	-0.634995	-2.266644	-0.045482
N	0.486067	-0.802744	-2.282889
H	-0.06238	-1.466081	-2.808666
H	1.033385	-0.24737	-2.924703
F	-2.411626	0.0	0.0
