14

C	0.0	0.0	0.0
C	-0.397887	0.123417	-1.480606
F	1.356534	0.0	0.0
H	-1.467546	-0.07726	-1.496869
H	-0.233676	1.178912	-1.72893
C	-0.51477	1.075667	0.847262
N	-0.612955	2.03857	1.516694
N	-0.406566	-1.337977	0.582946
O	-0.283541	-1.445355	1.801736
O	-0.679993	-2.247115	-0.184677
N	0.435855	-0.741581	-2.317597
H	-0.155926	-1.436609	-2.753872
H	0.881769	-0.201357	-3.04246
F	-2.42292	0.0	0.0
