14

C	0.0	0.0	0.0
C	-0.407758	-0.000486	-1.483649
F	1.356386	0.0	0.0
H	-0.383666	1.050411	-1.793435
H	-1.446803	-0.320542	-1.476315
C	-0.514201	1.134998	0.766198
N	-0.611343	2.155352	1.344383
N	-0.387889	-1.292995	0.690474
O	-0.266379	-1.295396	1.914611
O	-0.64997	-2.265531	-0.000516
N	0.501321	-0.830291	-2.271313
H	-0.038038	-1.509247	-2.789563
H	1.027858	-0.271948	-2.925482
F	-2.405534	0.0	0.0
