14

C	0.0	0.0	0.0
C	-0.277445	0.055465	-1.5588
F	1.365337	0.0	0.0
H	-0.321739	1.129463	-1.769052
H	0.656994	-0.325251	-1.983947
C	-0.499891	1.133998	0.769442
N	-0.608646	2.155417	1.342551
N	-0.373461	-1.30178	0.65272
O	-0.578828	-1.304043	1.859628
O	-0.291202	-2.300263	-0.05799
N	-1.383839	-0.60266	-2.200866
H	-2.161304	-0.396201	-1.558478
H	-1.224881	-1.599355	-2.125894
F	-2.375583	0.0	0.0
