14

C	0.0	0.0	0.0
C	-0.396795	0.08695	-1.488008
F	1.356417	0.0	0.0
H	-1.462511	-0.125251	-1.511713
H	-0.231896	1.135943	-1.757522
C	-0.51251	1.102127	0.813988
N	-0.602604	2.09454	1.440215
N	-0.411981	-1.317244	0.619738
O	-0.561455	-2.271336	-0.134784
O	-0.412904	-1.37143	1.844767
N	0.478608	-0.747541	-2.321385
H	0.458363	-0.37877	-3.265164
H	0.080312	-1.67762	-2.343167
F	-2.408583	0.0	0.0
