14

C	0.0	0.0	0.0
C	-0.358556	0.046122	-1.515054
F	1.356565	0.0	0.0
H	-1.431501	0.17689	-1.593078
H	0.174937	0.923393	-1.91058
C	-0.467059	1.084214	0.85487
N	-0.828002	1.996472	1.505316
N	-0.274599	-1.523386	0.568006
O	-1.321393	-1.937697	1.045155
O	0.746396	-2.225961	0.497758
N	0.066337	-1.132029	-2.256719
H	1.031019	-1.362442	-2.041859
H	-0.503061	-1.915268	-1.95702
F	-2.322088	0.0	0.0
