14

C	0.0	0.0	0.0
C	-0.462979	0.02522	-1.462074
F	1.356899	0.0	0.0
H	0.042312	-0.829378	-1.901604
H	-1.549043	-0.12252	-1.375723
C	-0.613069	1.040497	0.831666
N	-0.888913	2.000171	1.45834
N	-0.305461	-1.471642	0.457008
O	-1.15166	-1.764453	1.283825
O	0.423353	-2.279975	-0.125081
N	-0.074597	1.230039	-2.166798
H	0.89813	1.415853	-1.965774
H	-0.631128	2.01459	-1.854174
F	-2.519229	0.0	0.0
