14

C	0.0	0.0	0.0
C	-0.17364	-0.119789	-1.582858
F	1.366225	0.0	0.0
H	0.336742	0.7872	-1.929866
H	0.502175	-0.947879	-1.803759
C	-0.451038	1.230208	0.649548
N	-0.703377	2.309297	1.049505
N	-0.389453	-1.219413	0.7838
O	-0.461959	-2.276118	0.160838
O	-0.417497	-1.100074	2.004578
N	-1.382995	-0.300594	-2.357978
H	-1.905429	-1.000588	-1.867108
H	-1.959211	0.52631	-2.187232
F	-2.244138	0.0	0.0
