17
Coordinates from ORCA-job run
  C   -0.72328194659126      0.37204023822214      0.34967414347487
  C   0.78606930099567      0.59864823958706      0.12159615496377
  H   -1.08069875500658      1.12598562087862      1.05604320946042
  H   0.91441188531509      1.65705069323955     -0.12910338951832
  C   -1.11299008972102     -1.01942861338793      0.79497512271049
  H   -0.81802475310700     -1.77512357602260      0.06920076451031
  H   -2.19390215346479     -1.08484843693878      0.92378180737554
  H   -0.63764048880520     -1.23551017798431      1.75383857135467
  N   -1.38682979042628      0.74271711610112     -0.95214574895424
  O   -1.31542489364524      1.92806681654260     -1.27003473697041
  O   -1.90715872002230     -0.14664162083026     -1.62049052726901
  C   1.37282294940136     -0.25654304164837     -1.00592650398229
  H   0.86383666371482     -0.04659929600088     -1.94838067696899
  H   1.28515654701625     -1.32122319344261     -0.78775306424075
  H   2.43072366114169     -0.02220280980127     -1.13350825536581
  C   1.48569874594972      0.35127470126779      1.38308410660783
  N   2.03723183725509      0.13033734021813      2.39614902281192
