17
Coordinates from ORCA-job run
  C   -0.65375163263502      0.15236376409734      0.42813293317429
  C   0.85940269359821     -0.08735187220672      0.29695502416853
  H   -0.80571308169257      0.95388589978647      1.15366267172178
  H   1.21192150764337     -0.29190021544956      1.31590674847283
  C   -1.45147621855683     -1.08618699038285      0.78175534581929
  H   -1.09025416065963     -1.49627174598622      1.72790627172609
  H   -2.50918160157025     -0.84015884450197      0.89571233928021
  H   -1.34716666213132     -1.84414481688098      0.00564359202088
  N   -1.15098274414243      0.72779849043999     -0.86481175165038
  O   -1.21110162339385     -0.03390307669896     -1.82703562983641
  O   -1.42790529436514      1.92649118117619     -0.87643798231560
  C   1.60549423253242      1.13306237551489     -0.25263598336999
  H   2.68316722216867      0.97366280407189     -0.19628228934255
  H   1.34230249034043      1.31043035315529     -1.29663260606619
  H   1.34996953085668      2.02345050654054      0.32570242039713
  C   1.15874437080668     -1.28192961721610     -0.49828311582762
  N   1.43553097120057     -2.23929819545925     -1.11925798837228
