17
Coordinates from ORCA-job run
  C   -0.66657179759207      0.21614942518160     -0.13889132116261
  C   0.79416558079517     -0.22296173308171     -0.29182806042900
  H   -0.77139988039672      1.27572063004179     -0.38079195135254
  H   0.82603815343899     -1.31165092079028     -0.17915052802642
  C   -1.26348281397652     -0.10723716644197      1.21999968908615
  H   -1.11753242479672     -1.16198387593507      1.46036047247862
  H   -2.33432925241083      0.10660666529669      1.21542316278334
  H   -0.80362256763624      0.50576300031323      1.99550201338723
  N   -1.48479054973878     -0.49477783442482     -1.17973719952195
  O   -2.20477848938304      0.19221451594060     -1.89894323211076
  O   -1.39248747578497     -1.72038423357652     -1.20870275822101
  C   1.70660239962929      0.43876017637077      0.74626293671485
  H   2.74843459433607      0.18488277451475      0.54570031770231
  H   1.60926122076414      1.52650628401142      0.71191939440573
  H   1.46178555024499      0.09217724724556      1.75082857080562
  C   1.25718685464502      0.09619942121638     -1.64624669288428
  N   1.63452089786221      0.38301562411757     -2.72070481365529
