17
Coordinates from ORCA-job run
  C   -0.66212743994910      0.23777611599635     -0.12929208194220
  C   0.79423400633828     -0.21129842342144     -0.29676289789510
  H   -0.74840578901228      1.31456485883601     -0.28883552553709
  H   0.80731203841478     -1.30569056099475     -0.26646732190797
  C   -1.28227456729955     -0.18371877170878      1.19185347465354
  H   -1.14948667101425     -1.25552168629083      1.35107686839665
  H   -2.35112023674903      0.04037627541016      1.19023785428562
  H   -0.82803630815577      0.36273038743006      2.01878765728283
  N   -1.47390989802212     -0.37651742439838     -1.23469708149248
  O   -1.40225532482885     -1.59782003926109     -1.35532048360694
  O   -2.16730959843362      0.37673206233813     -1.91238088160414
  C   1.70254218104501      0.35482756094499      0.79972789930167
  H   2.74222537097305      0.09463949695881      0.59648838750595
  H   1.62717476419096      1.44379560920325      0.84230884255540
  H   1.43499892808109     -0.05762164405443      1.77291355932520
  C   1.28033869527149      0.20199323592277     -1.61695410270291
  N   1.67509984914992      0.56275294708918     -2.66268416661802
