17

C	0.0	0.0	0.0
C	-0.484186	0.02812	-1.445604
F	1.399244	0.0	0.0
H	-1.560808	0.220269	-1.447297
H	-0.241267	-0.906234	-1.947818
C	-0.453012	1.204942	0.797511
H	-1.544266	1.230798	0.816194
H	-0.069037	1.114706	1.817011
H	-0.072042	2.126042	0.356165
C	-0.473241	-1.294004	0.629759
H	-0.134747	-1.335362	1.668201
H	-1.564907	-1.327233	0.604061
H	-0.055797	-2.150265	0.09303
N	0.206579	1.085332	-2.227951
O	1.107598	0.730535	-2.990797
O	-0.14429	2.252633	-2.05851
Cl	-3.80021	0.0	0.0
