17

C	0.0	0.0	0.0
C	-0.165092	-0.431145	-1.475035
F	1.40578	0.0	0.0
H	0.375231	-1.370091	-1.592227
H	0.294069	0.338715	-2.094304
C	-0.524114	1.385987	0.268965
H	-0.105154	2.101975	-0.442807
H	-0.25383	1.693995	1.28333
H	-1.615452	1.365835	0.179301
C	-0.52121	-1.024855	0.973104
H	-0.113917	-2.013364	0.74835
H	-1.612992	-1.048401	0.899828
H	-0.237178	-0.744434	1.991155
N	-1.513554	-0.670391	-2.050459
O	-2.027872	0.260588	-2.664801
O	-1.965991	-1.806824	-1.938344
Cl	-3.974336	0.0	0.0
