12

C	-0.35076	0.020882	-1.456206
C	0.0	0.0	0.0
Cl	-2.138778	0.010574	-1.79259
H	1.092746	0.0	0.0
H	0.026485	0.944305	-1.893554
H	-0.40973	-0.852364	0.537177
C	0.23769	-1.126611	-2.141424
N	0.661803	-2.053388	-2.72384
N	-0.465454	1.215362	0.664443
O	-0.45717	2.270815	0.024645
O	-0.783276	1.13034	1.85273
F	2.494248	0.0	0.0
