12

C	-0.406489	-0.01688	-1.460985
C	0.0	0.0	0.0
Cl	0.080879	1.541279	-2.201155
H	1.091322	0.0	0.0
H	0.154809	-0.796829	-1.973034
H	-0.412742	0.846827	0.544987
C	-1.839224	-0.204522	-1.693447
N	-2.990321	-0.357264	-1.871699
N	-0.453553	-1.223041	0.658276
O	-0.567462	-2.243098	-0.033172
O	-0.63409	-1.190113	1.875817
F	2.512002	0.0	0.0
