12

C	-0.384684	-0.034565	-1.467292
C	0.0	0.0	0.0
Cl	0.084818	1.52789	-2.208717
H	1.091235	0.0	0.0
H	0.201514	-0.806177	-1.962925
H	-0.419319	0.852456	0.530663
C	-1.808682	-0.250217	-1.723432
N	-2.954133	-0.415041	-1.919699
N	-0.455731	-1.217739	0.664453
O	-0.649484	-1.174422	1.879547
O	-0.558518	-2.244264	-0.019146
F	2.510966	0.0	0.0
