12

C	-0.570019	0.055387	-1.401501
C	0.0	0.0	0.0
Cl	0.510955	-0.692549	-2.625301
H	1.087926	0.0	0.0
H	-1.503717	-0.505931	-1.471209
H	-0.322437	0.848929	0.604193
C	-0.830937	1.439127	-1.792672
N	-1.085774	2.545963	-2.091616
N	-0.460807	-1.202378	0.69756
O	-0.407634	-1.191415	1.928042
O	-0.827541	-2.177159	0.031036
F	2.494537	0.0	0.0
