12

C	-0.39617	-0.028146	-1.464129
C	0.0	0.0	0.0
Cl	0.087298	1.528467	-2.209884
H	1.091409	0.0	0.0
H	0.17364	-0.808225	-1.966065
H	-0.416439	0.850369	0.53619
C	-1.826088	-0.224333	-1.703883
N	-2.976203	-0.381267	-1.880752
N	-0.456719	-1.219475	0.661947
O	-0.561008	-2.244341	-0.024164
O	-0.650509	-1.178649	1.877732
F	2.511726	0.0	0.0
