12

C	-0.39309	-0.025286	-1.464894
C	0.0	0.0	0.0
Cl	0.078862	1.539673	-2.202514
H	1.091404	0.0	0.0
H	0.187744	-0.795887	-1.969167
H	-0.41824	0.848225	0.538208
C	-1.820063	-0.233804	-1.712828
N	-2.970364	-0.382913	-1.897907
N	-0.45377	-1.222068	0.659153
O	-0.55311	-2.245821	-0.029009
O	-0.64918	-1.184988	1.874285
F	2.511906	0.0	0.0
