12

C	-0.565599	-0.036103	-1.403375
C	0.0	0.0	0.0
Cl	0.499861	-0.902942	-2.560837
H	1.087782	0.0	0.0
H	-1.514716	-0.575305	-1.435671
H	-0.323474	0.886723	0.546596
C	-0.786157	1.321061	-1.899708
N	-1.00755	2.406601	-2.28917
N	-0.460204	-1.155588	0.773457
O	-0.383056	-1.075253	2.000235
O	-0.847101	-2.163617	0.170488
F	2.494978	0.0	0.0
