12

C	-0.374701	-0.18511	-1.458933
C	0.0	0.0	0.0
Cl	0.053516	1.312923	-2.344515
H	1.091743	0.0	0.0
H	0.240964	-0.980671	-1.875707
H	-0.427462	0.897481	0.441886
C	-1.788553	-0.471529	-1.702101
N	-2.92782	-0.689631	-1.888067
N	-0.449195	-1.150037	0.779698
O	-0.671513	-0.985135	1.979902
O	-0.517305	-2.243633	0.204591
F	2.510171	0.0	0.0
