12

C	-0.357595	0.073939	-1.451548
C	0.0	0.0	0.0
Cl	-2.134765	0.294765	-1.770286
H	1.09332	0.0	0.0
H	0.116845	0.984807	-1.82214
H	-0.358747	0.877757	0.535559
C	0.124323	-1.021692	-2.288732
N	0.507468	-1.822576	-3.056319
N	-0.533258	-1.17071	0.689104
O	-0.700649	-2.210308	0.047425
O	-0.733753	-1.066521	1.901382
F	2.498217	0.0	0.0
