12

C	-0.476038	0.191223	-1.420307
C	0.0	0.0	0.0
Cl	0.421586	1.444684	-2.333233
H	1.092535	0.0	0.0
H	-0.251328	-0.745284	-1.93688
H	-0.346941	-0.961112	0.385072
C	-1.912642	0.438521	-1.556189
N	-3.074201	0.573566	-1.665696
N	-0.493402	1.024274	0.920387
O	-0.761741	2.142743	0.472084
O	-0.553529	0.720455	2.113802
F	2.50567	0.0	0.0
