16
Coordinates from ORCA-job run
  C   0.58821951227665     -0.36645165029611      0.36932553183766
  C   -0.58088942956108      0.35311154807313     -0.31632900596101
  Cl  0.16264914179022     -0.93639044315627      1.97663874570223
  H   -0.21772225125048      0.73549421866488     -1.27096433927174
  N   1.07054608559127     -1.43568263340557     -0.40387393571360
  H   1.31765710313087     -1.14140665073932     -1.33995697446512
  H   1.83861915398137     -1.91805165837115      0.04387487845362
  N   1.65414694704403      0.78533575184516      0.52359298133183
  O   2.07740002001630      1.17409408011783     -0.56197217670741
  O   1.99172663142857      1.18032956124541      1.62424321897832
  N   -1.07662394112998      1.39838880603284      0.48899766574228
  H   -1.53994249970332      1.04295119015296      1.31546001360973
  H   -1.70641111391025      1.99966019160720     -0.02367222911026
  N   -1.61055725627000     -0.70589589687890     -0.71016781293682
  O   -2.49783408019417     -0.94850203300791      0.10199188156263
  O   -1.47198402324001     -1.21498438188417     -1.81818844305234
