16
Coordinates from ORCA-job run
  C   0.56184513604959     -0.36389843308923      0.34621625470782
  C   -0.66975011797772      0.29579817124099     -0.32143672700481
  Cl  0.24293896358025     -0.87227550647255      1.99755907109381
  H   -0.34279493775174      0.67398391865088     -1.29149598121300
  N   1.04629408092747     -1.44052247682567     -0.40599802212533
  H   1.86638906881028     -1.86864516180741      0.00221184350583
  H   1.20231097191100     -1.19474251628616     -1.37452460789577
  N   1.57335204779311      0.84707195152587      0.40632272500325
  O   1.72147339826319      1.47966578760376      1.44046037134311
  O   2.09995897752429      1.08328452253319     -0.67860632580512
  N   -1.33721593949186      1.31220737664070      0.40291654151618
  H   -1.44593935549406      1.08998167503821      1.38238820786136
  H   -0.91116443411034      2.21825116427656      0.28047001278881
  N   -1.63824232995084     -0.81553173476500     -0.64877136864326
  O   -1.56035386549644     -1.29182827810689     -1.77796206306623
  O   -2.41110166458621     -1.15180046015722      0.23925006793337
