16
Coordinates from ORCA-job run
  C   0.73217694279340     -0.35629155000446     -0.04360801636028
  C   -0.76655470563821     -0.16560725819472     -0.28531599036867
  Cl  1.29924625528193     -1.50928451201026     -1.37053042372062
  H   -1.27850544357684     -1.12498108642010     -0.15849424226859
  N   1.37448616736643      0.86562355955075      0.00409180343991
  H   2.36270475088640      0.80226648856253      0.20167220618883
  H   1.16099283693524      1.40921030101628     -0.82276629333975
  N   1.01336991571588     -1.16128417821074      1.22133642644451
  O   0.26585070430079     -2.10103040868161      1.44405400726514
  O   1.99595086108945     -0.82916476425436      1.86877769389872
  N   -0.95065112877274      0.51124622268974     -1.54215936405743
  H   -1.80781544436481      1.04926115801651     -1.50415822832801
  H   -1.01024876631459     -0.16372617898695     -2.29265176288971
  N   -1.31792077750249      0.72170331740861      0.82049545866650
  O   -0.93636628919420      0.47641399520932      1.95599173678549
  O   -2.13771587900565      1.57764489430951      0.50426498864397
