16
Coordinates from ORCA-job run
  C   0.65603513862525     -0.35250414709068      0.37546151805646
  C   -0.53544134655216      0.34247207411816     -0.32633308052641
  Cl  0.09681604350851     -1.08341231855428      1.87354554615795
  H   -0.17893434060464      0.70399368719532     -1.29238795609678
  N   1.43239115413629     -1.29409473258979     -0.35335690525391
  H   1.74593147272221     -0.87624456622492     -1.22176568477322
  H   0.88743975654526     -2.12117019635281     -0.55906693679635
  N   1.61444197842886      0.81992089945227      0.67107817525406
  O   2.07517153590899      1.31593971459586     -0.35279251824398
  O   1.83929276346705      1.15544376395367      1.81744804864259
  N   -1.04765828193891      1.39677517446161      0.45123867961077
  H   -1.49177816880060      1.06289790656291      1.29647623345767
  H   -1.69704606701981      1.97070730270536     -0.06788431134974
  N   -1.55578517597476     -0.74821426509539     -0.68161343693396
  O   -2.62347894476282     -0.74327963967734     -0.08006137250973
  O   -1.21639751768871     -1.54923065745995     -1.55098599869544
