16
Coordinates from ORCA-job run
  C   0.72746045342719     -0.55032239409773      0.05874371165122
  C   -0.66510487271693     -0.16200619655084     -0.47783550288489
  Cl  0.83640622447772     -2.31847729887033      0.27884351822778
  H   -0.98530448527569     -0.96470225465741     -1.14667592283543
  N   1.73152226330452     -0.03251683357507     -0.77408826181672
  H   2.55724701321202     -0.60801785850701     -0.82892608753070
  H   1.38528482425416      0.29867007547281     -1.66197226843890
  N   0.94074763675581      0.11590428918884      1.44468425865236
  O   1.67171000373021     -0.42053796319499      2.25592745009313
  O   0.42360772770634      1.22517148962420      1.53847843869078
  N   -0.65496478409343      1.06376710627903     -1.18596168090466
  H   -1.54164942844116      1.21639527552315     -1.64628266146355
  H   -0.46384780553689      1.83256988304724     -0.55507013851725
  N   -1.71923976028582     -0.20982204289301      0.64911298637084
  O   -1.52541408480251     -0.95920920196418      1.59643993712013
  O   -2.71746092571553      0.47413392517532      0.45458222358584
