16
Coordinates from ORCA-job run
  C   0.69950275937991     -0.35549892666040      0.22310846941582
  C   -0.81228929413621     -0.19057893315302      0.05007046119339
  Cl  0.97272203932514     -2.16555787475307      0.45449348006015
  H   -1.31730721575989     -0.50105362150548      0.97042700087990
  N   1.37297677263303      0.22280178161993     -0.83614272670124
  H   1.02607737689115     -0.14216562827274     -1.71445760170513
  H   2.37862353545992      0.18225346426572     -0.75338177072516
  N   1.19166044128257      0.21693969330107      1.54920616376345
  O   0.47660024752214      0.02621788642302      2.52068127024506
  O   2.28398425212863      0.76590904548625      1.53203816502778
  N   -1.21330381013163     -0.84430464998310     -1.16740984217520
  H   -1.44387105523529     -1.81107628333432     -0.98236420105274
  H   -2.02329045588052     -0.36948279061968     -1.54669979681095
  N   -1.11419664278326      1.29442410186347     -0.08146985092419
  O   -1.93457506797387      1.63519636705829     -0.92711307273315
  O   -0.54531388272180      2.03497636826403      0.70801385224228
