16
Coordinates from ORCA-job run
  C   0.75377123151851     -0.49160047781327      0.15871129414294
  C   -0.63610265409566     -0.26572076022362     -0.46917936989987
  Cl  0.94871798635654     -2.20119812721567      0.63279800895505
  H   -0.88409005864403     -1.17024813282721     -1.03003961074301
  N   1.75984851119051     -0.03903706101421     -0.70974391835081
  H   2.61389628357942     -0.57227777302114     -0.66144706420096
  H   1.42838548519710      0.14603122348724     -1.64459518337684
  N   0.87917322614624      0.37526072439202      1.44023287737053
  O   0.30060653364899      1.45477114735784      1.35888910158919
  O   1.60927040123750      0.00364670510123      2.33965618991535
  N   -0.66707182078335      0.84986905420466     -1.34052898822516
  H   -1.54283828640059      0.88364582365436     -1.84387508142330
  H   -0.54342987680701      1.70799592395286     -0.81712782039935
  N   -1.73002040861222     -0.22342513496848      0.61921809005307
  O   -1.52872610662180     -0.81189818378339      1.67263820907463
  O   -2.76139044691020      0.35318504871681      0.29339326551854
