16
Coordinates from ORCA-job run
  C   0.60108880949257     -0.32748361491003      0.38553203611724
  C   -0.59298675264559      0.31693268714940     -0.33141933784427
  Cl  0.18679282350900     -0.86494120281965      2.00692154224952
  H   -0.23866531248772      0.68528980126378     -1.29491412397998
  N   1.13642370619558     -1.39910379458654     -0.34923473075369
  H   1.38007159025357     -1.12367783785308     -1.29195407614440
  H   1.92051187166760     -1.83248202605004      0.12034735873829
  N   1.61315158340840      0.87389947132189      0.51009815000014
  O   1.91900488543574      1.32172754444549      1.59999639080590
  O   2.03134990313545      1.24452384170587     -0.58374489630561
  N   -1.14272865313917      1.36346376557564      0.43623286958652
  H   -1.79534357614256      1.91802436986113     -0.10005256512951
  H   -1.59627774356406      1.01342860661274      1.27040390210941
  N   -1.57025536915639     -0.79951559009780     -0.69979531428249
  O   -1.39924675482158     -1.33538757034320     -1.79044522896211
  O   -2.45289101114086     -1.05669845127556      0.11302802379503
