16
Coordinates from ORCA-job run
  C   0.60926667897138     -0.35753847979391      0.34471416948897
  C   -0.59960731349305      0.34258886715740     -0.29029742994973
  Cl  0.23742484514100     -1.00577089022012      1.93580596167264
  H   -0.26943355240225      0.77728627851230     -1.23446168430146
  N   1.11589231948199     -1.37636578543714     -0.47906305525286
  H   1.32403078139658     -1.03960007881204     -1.41021062389350
  H   1.91533844054108     -1.84116007928288     -0.06935831605571
  N   1.63348897244423      0.82718026676411      0.52536423397376
  O   1.97697102014031      1.19198920961925      1.63473003462461
  O   2.02086214554540      1.27427407497412     -0.55115538510159
  N   -1.12029334246187      1.33409598482883      0.56574006375431
  H   -1.55562744623801      0.92723736510697      1.38364947117838
  H   -1.78091675816841      1.93123519788858      0.08825784414572
  N   -1.59473427582847     -0.73935889343669     -0.70939613095269
  O   -2.45682799937799     -1.04899479442031      0.10706023733587
  O   -1.45683451569187     -1.19809824344846     -1.83937939066681
