16
Coordinates from ORCA-job run
  C   0.69807197495005     -0.59784340309492      0.00140173392389
  C   -0.70512697960672     -0.13700087573563     -0.44411733833639
  Cl  0.78307666641360     -2.24140392919704      0.63674608654301
  H   -0.93583973581588     -0.73344224268699     -1.32761953466651
  N   1.55022859411804     -0.47237971934452     -1.10904316170255
  H   1.49649740139395      0.47679770522273     -1.46128663616862
  H   2.50355705019573     -0.70757164408486     -0.86444221095206
  N   1.14318437809043      0.30173831767464      1.19485597488731
  O   0.28100778978104      0.58857717440254      2.01767704282265
  O   2.31972942450506      0.63472642711104      1.21981125746316
  N   -0.63189480759866      1.24942421313008     -0.75943123284292
  H   -1.35445998487320      1.50778920243897     -1.41805262518567
  H   -0.76324913782430      1.80013613919687      0.08219610581542
  N   -1.84144172453894     -0.47335627914601      0.52878607905140
  O   -2.40846024169033      0.46288099348781      1.07933633083746
  O   -2.13588066749994     -1.65907207937474      0.62218212851042
