16
Coordinates from ORCA-job run
  C   0.66362249042153     -0.44777572673845      0.06450406060063
  C   -0.76396250471641     -0.16159929883501     -0.47979936074519
  Cl  0.74213505426263     -2.16400626297027      0.56839654501331
  H   -0.92607244813217     -0.86519014765144     -1.29925792668732
  N   1.59480422201289     -0.08659418585162     -0.93874881594182
  H   2.54873277628551     -0.13391399091917     -0.60014546078683
  H   1.50242322912524     -0.70232801389270     -1.73800311978902
  N   0.96183840170057      0.43523750850779      1.29454109321571
  O   1.05915183875742     -0.08552801147686      2.39262758997724
  O   1.06615870818880      1.63067445702151      1.03869574632825
  N   -1.05680622427087      1.16706626372597     -0.90264697462676
  H   -0.49210968279120      1.39564914042033     -1.71041027107543
  H   -0.83175928242809      1.82774842459984     -0.16836506543077
  N   -1.77332962494964     -0.52752414905338      0.56855323364961
  O   -2.51664067598597     -1.47513169742293      0.34585513770176
  O   -1.77718627748026      0.19421569053642      1.56320358859663
