16
Coordinates from ORCA-job run
  C   0.69926768707926     -0.37903677272220      0.18503180975722
  C   -0.80736947431956     -0.21908627939795     -0.03575716604860
  Cl  1.02756718796191     -2.18726700446198      0.04961292166745
  H   -1.34618305854505     -0.72245579408928      0.77325226542457
  N   1.40239619689901      0.42694100193176     -0.69188728322576
  H   2.40325144485117      0.39661069253369     -0.55982654263862
  H   1.11845694864196      0.23708380721534     -1.64506724271800
  N   1.10277175864989     -0.08267619533118      1.62660354597369
  O   0.35138482996372     -0.49694059363714      2.49560530099325
  O   2.16959883870658      0.49339145216116      1.78527581883394
  N   -1.12444951929481     -0.62060382155816     -1.38002191936968
  H   -1.90909149339198     -0.07367434213661     -1.71270932935105
  H   -1.36149899330277     -1.60293430158979     -1.40392717751073
  N   -1.14937209365968      1.25527887539915      0.12140957051138
  O   -0.66852861558290      1.81967293412569      1.09371903007134
  O   -1.90820164465678      1.75669634155752     -0.70131360237044
