16
Coordinates from ORCA-job run
  C   0.65722890781984     -0.26066818353170      0.35414925390338
  C   -0.65806795379682      0.19910523117068     -0.34720526685501
  Cl  0.28204101138632     -0.93685350805447      1.92905902882472
  H   -0.38097827569868      0.53226968030362     -1.34821905002660
  N   1.54198829369306     -1.12819467073108     -0.34400889887056
  H   1.14959670633704     -2.05884772937742     -0.40444653570591
  H   1.70290418273130     -0.77495734468604     -1.28012437054672
  N   1.42467049636998      1.06704712060511      0.51421663022233
  O   1.59694274502865      1.55454755138768      1.61761323905282
  O   1.77559444490742      1.54253820435675     -0.56353209159864
  N   -1.42762404917071      1.18975164390213      0.30329996490251
  H   -1.53182987438311      1.03604497028871      1.29593209990872
  H   -1.10412610113986      2.12370649424911      0.10240635876707
  N   -1.48706169869281     -1.04865488447985     -0.55939097401212
  O   -1.09672232724368     -1.80148442670653     -1.45278863714954
  O   -2.44155650814793     -1.23635014869670      0.18203924918349
