16
Coordinates from ORCA-job run
  C   0.58469024762045     -0.35500494494697      0.31609727017745
  C   -0.68913901528992      0.28181189833080     -0.29196149087795
  Cl  0.33157658338194     -0.94189680631295      1.95232943546600
  H   -0.40337173916116      0.71110359512708     -1.25372638454913
  N   1.08945273430312     -1.38019202879633     -0.49271127406661
  H   1.93446924037260     -1.79386217927692     -0.12212833693098
  H   1.21287797549450     -1.08760288824885     -1.45291578769711
  N   1.55029264232854      0.89187570682065      0.39998151798621
  O   2.03662120134918      1.19321808603790     -0.68757647131972
  O   1.70304448241852      1.48669600618934      1.45565050402882
  N   -1.37547636890323      1.24133958995238      0.49035228903944
  H   -1.45176170506743      0.97383828244526      1.46155878767479
  H   -0.98526224261230      2.16687619753028      0.39757577215669
  N   -1.62307639437735     -0.85272979839762     -0.63910466097689
  O   -2.35613290555887     -1.25501454091637      0.25529969180413
  O   -1.55980473629864     -1.27945617553766     -1.78872086191510
