16
Coordinates from ORCA-job run
  C   0.61749185454600     -0.59262060892149     -0.00895085754600
  C   -0.79657529915658     -0.15846795958330     -0.47833840613462
  Cl  0.64851735131424     -2.31337971935546      0.32972114869477
  H   -1.07559328863760     -0.86519959571668     -1.25898049137630
  N   1.53440657449826     -0.27700889540531     -1.04624290845591
  H   1.70425623201718      0.72190543998478     -1.04891012111346
  H   2.41145654196995     -0.76512175008860     -0.90951013744037
  N   0.95433218981519      0.18021762480267      1.30550868689814
  O   0.85344787422114     -0.37086706224631      2.38725996942489
  O   1.27217599734863      1.35280310913916      1.10564700550521
  N   -0.94324022905898      1.17705143434803     -0.94311875527567
  H   -0.57980072198399      1.28377400841556     -1.87851784976657
  H   -0.54669454610912      1.85813998028807     -0.30973411484377
  N   -1.77872728337938     -0.36741987175752      0.64329245247051
  O   -2.49870666114104     -1.35888513161014      0.59274750967232
  O   -1.77674658626390      0.49507899770653      1.51812686928684
