13

C	0.0	0.0	0.0
C	-0.555038	-0.337469	-1.400814
F	1.369306	0.0	0.0
H	-1.455125	-0.918021	-1.170712
H	-0.341092	-0.768279	0.692815
C	-0.453652	1.30773	0.494311
N	-0.558936	2.39864	0.916679
C	0.413658	-1.12587	-2.166315
N	1.11369	-1.808965	-2.81666
N	-0.932107	0.894435	-2.106864
H	-1.189119	0.646188	-3.057482
H	-1.80256	1.119918	-1.614445
F	-2.549828	0.0	0.0
