13

C	0.0	0.0	0.0
C	-0.505733	0.174274	-1.477825
F	1.378477	0.0	0.0
H	-1.215627	-0.637143	-1.624692
H	-0.362423	-0.938372	0.409992
C	-0.439381	1.11336	0.851486
N	-0.565743	2.060727	1.534111
C	0.62233	0.019037	-2.416364
N	1.506037	-0.102543	-3.17915
N	-1.254989	1.381852	-1.783993
H	-2.05813	1.23305	-1.149206
H	-0.732266	2.192935	-1.467869
F	-2.49887	0.0	0.0
