13

C	-0.212786	-0.001717	-1.4922
C	0.0	0.0	0.0
Cl	-1.90852	-0.165893	-2.03493
H	1.096644	0.0	0.0
H	0.188485	0.914596	-1.917147
N	0.569053	-1.111552	-2.148791
O	1.155187	-0.812185	-3.184358
O	0.517547	-2.219057	-1.634332
C	-0.563377	-1.123587	0.719961
N	-1.017613	-1.997684	1.361513
C	-0.460311	1.260019	0.54954
N	-0.804697	2.29755	0.982821
F	2.42349	0.0	0.0
