13

C	-0.221442	0.069926	-1.4928
C	0.0	0.0	0.0
Cl	0.175347	1.660182	-2.142472
H	1.097934	0.0	0.0
H	0.414899	-0.664119	-1.982581
N	-1.635305	-0.251449	-1.927696
O	-1.748905	-0.948785	-2.935663
O	-2.554542	0.206303	-1.258777
C	-0.436485	-1.28963	0.49983
N	-0.755697	-2.356337	0.87911
C	-0.541525	1.103259	0.763807
N	-0.919385	2.011086	1.408243
F	2.430788	0.0	0.0
