13

C	-0.224751	0.082142	-1.49131
C	0.0	0.0	0.0
Cl	0.165803	1.678986	-2.126575
H	1.09791	0.0	0.0
H	0.412267	-0.64594	-1.989241
N	-1.639472	-0.23899	-1.925099
O	-2.557624	0.208401	-1.247549
O	-1.754212	-0.926046	-2.939776
C	-0.435265	-1.293176	0.490503
N	-0.750517	-2.362982	0.863159
C	-0.540053	1.096977	0.773711
N	-0.915764	1.998833	1.427324
F	2.430419	0.0	0.0
