13

C	-0.211034	0.103098	-1.489387
C	0.0	0.0	0.0
Cl	-1.910007	0.045552	-2.040029
H	1.096513	0.0	0.0
H	0.229359	1.028989	-1.85016
N	0.528109	-0.990013	-2.218331
O	0.398037	-2.133202	-1.802625
O	1.166598	-0.639348	-3.205564
C	-0.580755	-1.158128	0.646518
N	-1.06588	-2.060849	1.223357
C	-0.442841	1.230058	0.628828
N	-0.761079	2.250282	1.118589
F	2.423389	0.0	0.0
