13

C	-0.488691	0.02898	-1.440802
C	0.0	0.0	0.0
Cl	0.384481	-1.143762	-2.434524
H	1.103076	0.0	0.0
H	-1.552941	-0.169905	-1.56089
N	-0.292653	1.398572	-2.048666
O	0.722651	2.016402	-1.765111
O	-1.184352	1.766262	-2.81438
C	-0.442865	-1.242163	0.609801
N	-0.789976	-2.256598	1.093345
C	-0.52496	1.134083	0.738909
N	-0.952224	2.05828	1.328906
F	2.423413	0.0	0.0
