13

C	-0.499493	-0.166655	-1.428766
C	0.0	0.0	0.0
Cl	0.362571	-1.464685	-2.260186
H	1.101075	0.0	0.0
H	-1.566814	-0.370566	-1.511271
N	-0.305204	1.119478	-2.20202
O	0.792118	1.654505	-2.159803
O	-1.292122	1.514985	-2.826361
C	-0.449325	-1.136676	0.78443
N	-0.798221	-2.071103	1.407212
C	-0.50046	1.238179	0.570911
N	-0.890067	2.251893	1.022823
F	2.42227	0.0	0.0
