17

C	0.0	0.0	0.0
C	-0.596619	0.246527	-1.374343
Br	2.045795	0.0	0.0
H	-1.703608	0.186628	-1.045828
N	-0.379535	1.081636	0.837418
H	0.171867	1.912431	0.68102
H	-0.384859	0.825443	1.812835
C	-0.497455	-1.312493	0.550734
H	-0.098654	-1.481374	1.555521
H	-1.591786	-1.158311	0.553658
H	-0.214982	-2.134862	-0.104021
N	-0.246814	-0.793656	-2.331167
H	-0.912461	-0.778426	-3.094856
H	0.680405	-0.623047	-2.710448
C	-0.302113	1.602294	-1.848884
N	-0.067249	2.667717	-2.290607
F	-2.937946	0.0	0.0
