17

C	0.0	0.0	0.0
C	-0.509478	-0.165767	-1.444642
Br	1.961215	0.0	0.0
H	-1.605584	-0.199892	-1.237929
N	-0.523306	1.186968	0.61538
H	-0.318949	1.992366	0.029921
H	-1.549156	0.996458	0.565149
C	-0.43858	-1.202404	0.823806
H	-0.054253	-2.128146	0.398404
H	-1.532488	-1.174787	0.789756
H	-0.080098	-1.074087	1.846969
N	-0.060384	-1.391839	-2.0934
H	-0.645227	-1.568876	-2.900732
H	0.895222	-1.278131	-2.41458
C	-0.214368	1.038023	-2.240948
N	0.036694	1.959565	-2.927935
F	-2.891888	0.0	0.0
