17

C	0.0	0.0	0.0
C	-0.574924	0.041734	-1.419336
Br	2.04345	0.0	0.0
H	-1.677691	0.066252	-1.114572
N	-0.398174	1.180791	0.664463
H	-0.410785	1.092988	1.666162
H	0.088142	2.009224	0.354226
C	-0.504113	-1.217237	0.73617
H	-1.60379	-1.081714	0.67546
H	-0.146401	-1.212624	1.769245
H	-0.166535	-2.139363	0.259771
N	-0.273655	-1.084382	-2.288133
H	-0.834661	-1.871337	-1.991772
H	0.707205	-1.332108	-2.199882
C	-0.220718	1.298154	-2.079724
N	0.061697	2.318459	-2.592165
F	-2.926097	0.0	0.0
