17

C	0.0	0.0	0.0
C	-0.465997	-0.117471	-1.488587
Br	2.060262	0.0	0.0
H	0.395636	0.099986	-2.1274
N	-0.409569	1.237929	0.506371
H	0.111833	1.555105	1.306609
H	-0.571407	1.928884	-0.212257
C	-0.4605	-1.125185	0.89639
H	-1.557256	-1.066273	0.811865
H	-0.152104	-0.925886	1.926297
H	-0.071857	-2.095755	0.584688
N	-1.517425	0.847254	-1.756173
H	-2.326638	0.573803	-1.079032
H	-1.805344	0.735598	-2.722571
C	-0.839664	-1.517711	-1.806722
N	-1.141761	-2.57948	-2.209708
F	-3.10588	0.0	0.0
