18

C	-0.018417	-0.029922	0.018115
C	-0.469909	-0.108527	-1.46774
F	1.387803	-0.179597	0.027336
H	-1.554035	-0.274106	-1.389195
C	-0.370351	1.325428	0.589144
H	-1.455152	1.414941	0.486441
H	-0.087701	1.321395	1.643263
H	0.159934	2.130147	0.076618
N	-0.614144	-1.037054	0.839583
H	-1.625595	-0.808882	0.727359
H	-0.477993	-1.936603	0.387833
N	0.185505	-1.315839	-2.066686
O	-0.296829	-2.419649	-1.795767
O	1.197277	-1.153893	-2.745884
N	-0.182935	1.013667	-2.320761
H	0.747462	1.368107	-2.134816
H	-0.861222	1.732676	-2.106145
F	-2.883515	0.048659	-0.116284
