18

C	-0.046428	-0.0844	-0.035553
C	-0.318956	-0.403542	-1.511756
F	1.301322	-0.435587	0.188577
H	-0.131079	-1.474318	-1.630162
C	-0.21128	1.373676	0.345726
H	0.352256	2.039284	-0.306753
H	0.144566	1.484849	1.375393
H	-1.279911	1.590537	0.312608
N	-0.864882	-0.986652	0.732969
H	-0.595675	-0.854364	1.70454
H	-1.831086	-0.601751	0.643477
N	0.828556	0.190136	-2.35573
O	0.866985	1.401669	-2.546685
O	1.642334	-0.61336	-2.818925
N	-1.567136	0.075473	-1.966962
H	-2.236844	0.272524	-1.184266
H	-1.985508	-0.587191	-2.603873
F	-3.074735	0.42619	0.172414
