12

C	-0.454098	-0.028303	-1.438204
C	0.0	0.0	0.0
F	-0.06277	-1.190273	-2.022068
H	1.092986	0.0	0.0
H	-0.10763	0.820616	-2.026347
H	-0.351526	-0.912151	0.48896
N	-1.966532	0.002037	-1.505402
O	-2.485487	1.035181	-1.924098
O	-2.556109	-0.999445	-1.111538
C	-0.518654	1.170829	0.694302
N	-0.95721	2.109169	1.246584
Br	3.449423	0.0	0.0
