12

C	-0.452538	-0.132382	-1.433563
C	0.0	0.0	0.0
F	-1.811773	-0.279344	-1.538698
H	1.091759	0.0	0.0
H	0.044534	-0.939361	-1.973783
H	-0.368616	0.941171	0.41555
N	-0.114787	1.139439	-2.172059
O	0.70281	1.06663	-3.082187
O	-0.713441	2.147622	-1.803149
C	-0.503758	-1.124831	0.780679
N	-0.912101	-2.03084	1.406784
Br	3.431681	0.0	0.0
