12

C	-0.505004	-0.088958	-1.419798
C	0.0	0.0	0.0
F	-1.820834	-0.453158	-1.466434
H	1.091772	0.0	0.0
H	0.088733	-0.7899	-2.005788
H	-0.294761	-0.934343	0.489152
N	-0.376686	1.243218	-2.119352
O	-1.365905	1.969576	-2.134673
O	0.725695	1.483205	-2.595145
C	-0.568526	1.115005	0.746514
N	-1.044428	1.992374	1.36351
Br	3.458634	0.0	0.0
