12

C	-0.506954	-0.095268	-1.418401
C	0.0	0.0	0.0
F	-1.830371	-0.436198	-1.459814
H	1.091683	0.0	0.0
H	0.073418	-0.814765	-1.994254
H	-0.294764	-0.932675	0.492439
N	-0.364175	1.220523	-2.143691
O	-1.298105	2.011291	-2.054423
O	0.688164	1.387247	-2.748569
C	-0.561497	1.117373	0.747588
N	-1.019597	2.000409	1.369913
Br	3.449576	0.0	0.0
