12

C	-0.555657	0.071323	-1.406493
C	0.0	0.0	0.0
F	-0.129419	1.209509	-2.005985
H	1.092858	0.0	0.0
H	-1.64643	0.034548	-1.444337
H	-0.299885	0.930615	0.493579
N	-0.102175	-1.108186	-2.234965
O	0.791598	-0.939763	-3.048591
O	-0.709351	-2.151153	-2.001885
C	-0.53869	-1.114392	0.769667
N	-0.983062	-1.973906	1.433692
Br	3.483579	0.0	0.0
