12

C	-0.503512	-0.140663	-1.414605
C	0.0	0.0	0.0
F	-1.832348	-0.4682	-1.448117
H	1.091523	0.0	0.0
H	0.072205	-0.886338	-1.963128
H	-0.295303	-0.916537	0.521585
N	-0.344206	1.149815	-2.185541
O	-1.258663	1.963507	-2.11573
O	0.702681	1.270602	-2.814146
C	-0.562126	1.140185	0.711197
N	-1.018679	2.040617	1.30827
Br	3.443913	0.0	0.0
