16

C	-0.257388	-0.073905	-1.52382
C	0.0	0.0	0.0
Br	-2.153284	-0.552143	-1.893563
H	1.099319	0.0	0.0
C	-0.057646	1.242329	-2.141097
N	0.099646	2.297896	-2.63432
N	0.581005	-1.029723	-2.20604
H	0.392365	-1.955549	-1.83805
H	1.550216	-0.799859	-1.963442
C	-0.428491	-1.242246	0.778731
H	0.007121	-1.188196	1.778293
H	-0.033506	-2.141762	0.302349
H	-1.513774	-1.321845	0.859751
C	-0.545758	1.205333	0.604546
N	-0.985654	2.164631	1.122185
Br	3.408349	0.0	0.0
