12

C	-0.595008	0.059557	-1.398568
C	0.0	0.0	0.0
Br	-0.367267	1.881528	-2.082347
H	1.08811	0.0	0.0
H	-1.673334	-0.103049	-1.369798
H	-0.348756	0.83811	0.602726
C	-0.018667	-0.875028	-2.35721
N	0.390468	-1.597742	-3.187425
N	-0.467989	-1.226525	0.699813
O	-0.955783	-2.13437	0.020416
O	-0.333805	-1.250824	1.918439
Cl	3.255522	0.0	0.0
