12

C	-0.503464	0.024951	-1.434027
C	0.0	0.0	0.0
Br	0.019189	-1.642747	-2.30342
H	1.091379	0.0	0.0
H	-0.013158	0.825769	-1.985606
H	-0.390444	-0.843461	0.565975
C	-1.952606	0.164536	-1.529868
N	-3.120756	0.277296	-1.586847
N	-0.435952	1.235737	0.700512
O	-0.565815	2.25648	0.022574
O	-0.598357	1.167031	1.914988
Cl	3.265747	0.0	0.0
