12

C	-0.499541	0.112085	-1.426904
C	0.0	0.0	0.0
Br	0.055766	-1.378849	-2.553559
H	1.088234	0.0	0.0
H	0.015609	0.977404	-1.852232
H	-0.326153	0.878495	0.565485
C	-1.938223	0.320711	-1.553785
N	-3.081435	0.564429	-1.671178
N	-0.541308	-1.168449	0.742224
O	-0.09183	-1.344162	1.869132
O	-1.416441	-1.851633	0.209174
Cl	3.28359	0.0	0.0
