12

C	-0.499898	0.136758	-1.423885
C	0.0	0.0	0.0
Br	0.015484	-1.362885	-2.557307
H	1.088224	0.0	0.0
H	0.036651	0.991214	-1.844097
H	-0.327816	0.867695	0.581776
C	-1.932961	0.38357	-1.550769
N	-3.068539	0.659767	-1.671701
N	-0.545635	-1.182073	0.718647
O	-1.486392	-1.791699	0.212142
O	-0.037795	-1.437873	1.804484
Cl	3.291868	0.0	0.0
