12

C	-0.473329	-0.051705	-1.433173
C	0.0	0.0	0.0
Br	-2.425141	-0.288023	-1.545976
H	1.093614	0.0	0.0
H	-0.054044	-0.964448	-1.863166
H	-0.347196	-0.877121	0.54332
C	-0.090778	1.063483	-2.290861
N	0.207068	1.897159	-3.063672
N	-0.498725	1.175815	0.748301
O	-0.701141	2.217236	0.128962
O	-0.646219	1.031787	1.95871
Cl	3.229037	0.0	0.0
