20

C	-0.268651	-0.041453	-1.49822
C	0.0	0.0	0.0
F	-1.639435	-0.324708	-1.758169
H	1.099696	0.0	0.0
C	0.007266	1.284312	-2.18824
H	-0.677812	2.065703	-1.852655
H	-0.119549	1.160239	-3.269177
H	1.038525	1.57912	-1.975974
N	0.505404	-1.129187	-2.044636
H	1.436006	-1.081259	-1.619052
H	0.617594	-0.998245	-3.044347
C	-0.503231	-1.263356	0.68689
H	-0.099036	-1.312024	1.703099
H	-0.179987	-2.153157	0.14655
H	-1.597464	-1.274187	0.744178
C	-0.526522	1.247747	0.691805
H	0.005665	2.145866	0.369979
H	-0.376097	1.156648	1.77189
H	-1.599323	1.386333	0.510405
H	3.005402	0.0	0.0
