20

C	-0.417861	-0.018099	-1.467099
C	0.0	0.0	0.0
F	-0.204087	1.258415	-2.012622
H	1.097643	0.0	0.0
C	0.457614	-0.953777	-2.287303
H	0.247761	-1.997305	-2.038056
H	1.510144	-0.747705	-2.068184
H	0.250035	-0.801588	-3.352201
N	-1.853288	-0.229603	-1.620756
H	-2.060215	-0.227396	-2.616108
H	-2.080443	-1.153086	-1.270432
C	-0.441045	-1.265386	0.73309
H	-1.525671	-1.294879	0.897984
H	-0.135711	-2.175301	0.2079
H	0.047534	-1.292289	1.711077
C	-0.505501	1.242497	0.7191
H	-0.165282	1.224407	1.759495
H	-0.101084	2.142116	0.254129
H	-1.598973	1.299512	0.702135
H	3.105674	0.0	0.0
