20

C	-0.446611	-0.024118	-1.46241
C	0.0	0.0	0.0
F	-0.078674	1.20974	-2.019844
H	1.097177	0.0	0.0
C	0.274257	-1.09267	-2.257909
H	-0.085728	-2.092419	-2.000239
H	1.343304	-1.029929	-2.036439
H	0.088166	-0.917471	-3.319495
N	-1.883427	-0.110023	-1.701219
H	-2.204364	-1.0253	-1.409609
H	-2.345749	0.572997	-1.109402
C	-0.425744	-1.26208	0.744628
H	0.001589	-2.160408	0.292612
H	-0.04562	-1.216065	1.76912
H	-1.51668	-1.375438	0.79747
C	-0.479283	1.244651	0.737094
H	-0.219909	2.146792	0.182088
H	0.021401	1.297533	1.708046
H	-1.562946	1.239831	0.921297
H	3.09275	0.0	0.0
