12
Coordinates from ORCA-job run
  C   0.91868896195016     -0.75704057415682     -0.52819508681668
  C   -0.12675578723258     -0.04340650263356      0.31775869046273
  Br  2.52781165802224     -1.14595926468392      0.47831893021052
  H   -0.23709763364773     -0.58320645591678      1.26849025337481
  H   0.54324602436508     -1.71234327022015     -0.89596554990825
  H   1.19912702725629     -0.13033211541894     -1.37469799439917
  N   -1.35438872797815     -0.02165475552190     -0.48784736772562
  H   -2.06797479739552      0.49833397130414      0.01032135696144
  H   -1.70901891534438     -0.96161884487791     -0.63037280971145
  N   0.32018929839525      1.29073613645049      0.63635486141551
  H   0.21422325391512      1.87802948767473     -0.18353164909718
  H   -0.22705036230578      1.68846218800060      1.38836636523333
