12
Coordinates from ORCA-job run
  C   1.11008935595855     -0.68051115095246     -0.17381535851832
  C   -0.17471839170152      0.11422496223275     -0.35484384180040
  Br  1.02927510864756     -2.44179812483652     -0.97743129316140
  H   -0.40224111697787      0.16132746129183     -1.42372454972787
  H   1.32868511308800     -0.82620864903090      0.88750830377058
  H   1.93465101242652     -0.14732127230789     -0.64035835697791
  N   0.13318206038991      1.48302300875415      0.06876266656451
  H   0.25384067347852      1.50975305326949      1.07603758592332
  H   -0.64338905827557      2.09373635831669     -0.15742756052814
  N   -1.28241203303201     -0.56985905967978      0.28751977254655
  H   -2.15052382707831     -0.07720482501124      0.11902133523113
  H   -1.13643889692380     -0.61916176204613      1.28975129667795
