12
Coordinates from ORCA-job run
  C   0.93730969811725     -0.84847046618800     -0.30075589310425
  C   -0.23581649103963      0.11553811006489     -0.24307277143208
  Br  2.53133620167204     -0.02483117023024     -1.06416096547650
  H   -0.44204709971646      0.46045399174444     -1.26698460397650
  H   0.68456508821807     -1.69773273368133     -0.93031724639286
  H   1.20191577584292     -1.17887736902957      0.70408420479762
  N   0.06192775048105      1.19544176252127      0.69157576763709
  H   -0.67686880511894      1.88824738102755      0.65327673013430
  H   0.92710501183978      1.65790470567546      0.43528277930477
  N   -1.38744286453152     -0.65852041393415      0.18774979181266
  H   -1.35728552709668     -0.72412923576464      1.19969331924011
  H   -2.24569873866790     -0.18502456220567     -0.06537111254437
