12
Coordinates from ORCA-job run
  C   1.05134148316353     -0.70680875216919     -0.28981875753887
  C   -0.15085170184942      0.22131197929650     -0.23781194857702
  Br  0.64852900432913     -2.38613735583536     -1.19510172527701
  H   -0.47287344846723      0.41757090427647     -1.27112229017720
  H   1.85870964271921     -0.23239961104417     -0.84167940197024
  H   1.37250549472934     -0.96142174796689      0.72061721663056
  N   0.32207123043617      1.48118635454302      0.30954137836317
  H   -0.31355168318064      2.23191349495623      0.07028750852997
  H   0.33392397295544      1.39621533354193      1.32044703420715
  N   -1.18987246469298     -0.36857429266994      0.59940052931023
  H   -1.43279669490164     -1.29400005297268      0.26365833880442
  H   -2.02613483524091      0.20214374604407      0.55158211769485
