12
Coordinates from ORCA-job run
  C   1.05780536996580     -0.58243754815615     -0.13146844129496
  C   -0.28871113672667      0.09776165375904     -0.35334643854726
  Br  1.18575454584444     -2.33407749819844     -0.96092709547847
  H   -0.47996153028302      0.14578136985166     -1.43015912593635
  H   1.85927459042761      0.02104850487091     -0.55655790567436
  H   1.24391364062369     -0.71713789473111      0.93767100442069
  N   -0.27228237777513      1.48186640819696      0.13089149519025
  H   0.01680245201624      1.50781657466522      1.10364645594074
  H   0.37886721012739      2.04696523194756     -0.40377757773968
  N   -1.34252831245194     -0.68101154959925      0.25034635810570
  H   -1.15140488462486     -0.82683677564501      1.23576016824723
  H   -2.20852956714356     -0.16073847696138      0.17792110276647
