14
Coordinates from ORCA-job run
  C   0.87878039889990      0.38371325056025     -0.72100704904824
  C   -0.13599222126129      0.05769657304034      0.37492821072995
  F   0.76722201584673      1.71000517753311     -1.11015230684814
  H   0.15964538960389      0.62510146376976      1.26363637801720
  H   0.68291996720425     -0.24050787804758     -1.59929664928252
  C   2.25117828642479      0.14183777024238     -0.25408353782057
  N   3.34997647206018     -0.01250185074748      0.12686649923600
  N   0.02365101656777     -1.36486959813053      0.65499281564011
  H   -0.08964784215812     -1.56338389854356      1.63853102704407
  H   -0.65757009790566     -1.91003477011929      0.14164092951684
  C   -1.53946958858066      0.47146840633487     -0.04859365639171
  H   -1.59652779141380      1.53899557950025     -0.26485534243093
  H   -1.84003812758954     -0.07483270642438     -0.94901683246862
  H   -2.25212787769844      0.23731248103188      0.74540951410656
