14
Coordinates from ORCA-job run
  C   0.85933460189402      0.47454197749532     -0.67586509223809
  C   -0.18795583665414      0.06084334403955      0.35550095613825
  F   0.83686318596704      1.84772338532354     -0.85619120045912
  H   0.02793023292768      0.62658061523120      1.27476710367233
  H   0.63615734519275     -0.00622734363257     -1.63225835488559
  C   2.20504678984011      0.07659198904244     -0.23389962778650
  N   3.25625187110736     -0.26016242362232      0.16455548228687
  N   -0.06858827517744     -1.38493017192822      0.50672046335690
  H   0.70361139926517     -1.62215495021517      1.11835427742077
  H   -0.91301111121534     -1.76330878040022      0.91664655630457
  C   -1.57617152599522      0.42360543913296     -0.14308329601597
  H   -1.63834189145606      1.48376748240027     -0.38886468991263
  H   -2.32321317752978      0.20889215211171      0.62538810646332
  H   -1.81691360816615     -0.16576271497848     -1.03177068434512
