14
Coordinates from ORCA-job run
  C   1.22487145217712      0.02157547462535     -0.19684164804915
  C   -0.12471054636376      0.18316755925890      0.49253787484243
  F   1.30618566748326     -1.25526548792205     -0.74137830631385
  H   -0.13542449373942      1.19626141457099      0.91176470764836
  H   2.02331316975121      0.11052248223965      0.54347473556135
  C   1.42036771111482      1.00695739783551     -1.26946928460043
  N   1.55879963008455      1.81785007847935     -2.10619975857652
  N   -0.12536031359314     -0.75342238095076      1.61257359888910
  H   -0.94576357822833     -0.60026748751362      2.18625567381200
  H   -0.17904342069585     -1.70020019720797      1.25391776312293
  C   -1.28326294389597      0.02629134900677     -0.49083131048810
  H   -2.23285586126941      0.12431247833005      0.04002729740203
  H   -1.25705037547025      0.78205974005369     -1.27993805212563
  H   -1.25206609735482     -0.96084242080585     -0.95689329112452
