14
Coordinates from ORCA-job run
  C   0.91019572146472      0.45873691595349     -0.63291391290267
  C   -0.15552840170867      0.01842988977973      0.37091677099623
  F   0.80350307227288      1.81631246763248     -0.89458915633856
  H   0.08899163399837      0.49358864552238      1.32674802306966
  H   0.76691168809961     -0.07655650049586     -1.57748383325778
  C   2.25932906129027      0.18088910542432     -0.12068304869541
  N   3.33847280780654     -0.00284669987376      0.30123516636689
  N   0.00465172765733     -1.42457733542876      0.51285821819566
  H   -0.15534793231541     -1.72282472619161      1.46431147777308
  H   -0.64528511492229     -1.91792684602222     -0.08639140226168
  C   -1.54005051170505      0.46575555936340     -0.07952319901041
  H   -1.59717755059118      1.54934521205421     -0.19010920702722
  H   -2.28888758853453      0.14917764083277      0.64988619110268
  H   -1.78977861281258      0.01149667144942     -1.04426208801045
