14
Coordinates from ORCA-job run
  C   1.17762993671313      0.07305356879319     -0.35097892790974
  C   -0.12142721184054     -0.01175061955563      0.45434082719583
  F   1.17673023294393     -0.84693308801618     -1.37899544694327
  H   -0.14187301800212      0.88033874158538      1.10112441817306
  H   2.03410878692276     -0.15559652733548      0.29122227017181
  C   1.35106867279932      1.41986795563516     -0.92169623975049
  N   1.46468951790831      2.50565136602498     -1.35187536778449
  N   -0.09732390684700     -1.26356897018022      1.20234991354906
  H   0.42581032156440     -1.15918264494374      2.06319645505075
  H   -1.03836475894422     -1.54252348915095      1.44798559455225
  C   -1.32883263968106      0.02104425896647     -0.46968578642868
  H   -1.33492361553366     -0.87086768472507     -1.09683934817127
  H   -1.31805237484562      0.90433648260686     -1.11090645406342
  H   -2.24923994315762      0.04413065029523      0.11875809235859
