17

C	-0.367249	0.07018	-1.473493
C	0.0	0.0	0.0
F	-0.040169	1.309789	-1.958272
H	1.095532	0.0	0.0
C	0.305073	-0.997826	-2.288219
H	-0.035003	-1.978668	-1.958714
H	1.379753	-0.913432	-2.109398
H	0.076226	-0.844942	-3.342807
N	-1.883442	-0.013754	-1.683739
O	-2.273137	0.094812	-2.842801
O	-2.61048	-0.16739	-0.703341
N	-0.394919	-1.278503	0.57567
H	-1.305707	-1.213494	1.008246
H	0.298476	-1.544384	1.26306
C	-0.484599	1.17904	0.729245
N	-0.926226	2.082969	1.336085
Cl	3.282621	0.0	0.0
