17

C	-0.376326	0.020756	-1.475238
C	0.0	0.0	0.0
F	0.160826	1.137426	-2.040404
H	1.097369	0.0	0.0
C	0.069426	-1.209818	-2.220373
H	-0.155301	-1.085019	-3.282073
H	1.148756	-1.304816	-2.073794
H	-0.42857	-2.090329	-1.816192
N	-1.892317	0.173305	-1.652586
O	-2.604893	-0.472046	-0.885599
O	-2.29228	0.883878	-2.564592
N	-0.38775	-1.235251	0.663124
H	-1.34761	-1.19713	0.972396
H	0.227235	-1.37005	1.453593
C	-0.490151	1.22321	0.657903
N	-0.905283	2.159257	1.234863
Cl	3.271956	0.0	0.0
