17

C	-0.487919	0.120384	-1.442825
C	0.0	0.0	0.0
F	-1.825847	0.440411	-1.461252
H	1.092866	0.0	0.0
C	0.301319	1.107624	-2.260323
H	0.140882	2.106379	-1.848403
H	-0.042663	1.091949	-3.297467
H	1.362732	0.861942	-2.197086
N	-0.381858	-1.260706	-2.068546
O	-1.421312	-1.855212	-2.324577
O	0.756651	-1.662347	-2.266968
N	-0.464968	-1.230268	0.618412
H	-1.361081	-1.105917	1.070228
H	0.220171	-1.527123	1.301302
C	-0.427711	1.213466	0.717404
N	-0.796719	2.143679	1.333842
Cl	3.286319	0.0	0.0
