17

C	-0.48498	0.114898	-1.444803
C	0.0	0.0	0.0
F	-1.816795	0.454251	-1.469327
H	1.092829	0.0	0.0
C	0.321683	1.081388	-2.269724
H	1.377403	0.815247	-2.206465
H	0.182815	2.084712	-1.863661
H	-0.023645	1.067036	-3.306046
N	-0.394535	-1.272497	-2.056968
O	-1.439359	-1.844757	-2.340663
O	0.73967	-1.700808	-2.21809
N	-0.470128	-1.226832	0.623163
H	-1.353817	-1.093022	1.095309
H	0.224526	-1.535856	1.289651
C	-0.425622	1.216131	0.712002
N	-0.794935	2.152338	1.318697
Cl	3.288882	0.0	0.0
