18

C	-0.480147	-0.018071	-1.467489
C	0.0	0.0	0.0
Cl	0.093293	1.516966	-2.218682
H	1.094708	0.0	0.0
C	0.188924	-1.166269	-2.20487
H	1.272509	-1.101955	-2.07777
H	-0.159211	-2.121984	-1.800409
H	-0.05687	-1.127084	-3.268865
C	-1.994354	-0.037229	-1.569612
H	-2.384581	-0.970332	-1.151905
H	-2.307291	0.036453	-2.613788
H	-2.406907	0.806175	-1.014285
C	-0.445961	-1.237156	0.647848
N	-0.865153	-2.204554	1.168096
N	-0.500603	1.170908	0.73267
H	-0.993578	0.890626	1.569024
H	0.304409	1.717318	1.0133
Cl	3.34714	0.0	0.0
