13
Coordinates from ORCA-job run
  C   -0.82018437570698     -0.03578691464146     -0.14353727020234
  C   0.71130218824147     -0.15108749595795     -0.27009748081493
  Br  -1.66189376628638     -1.07757251510288     -1.62732901599462
  H   0.96936567625775     -1.21408739041930     -0.18089523458128
  H   -1.13203776523752      0.99445959175093     -0.32097856379359
  N   -1.22530911717172     -0.45216299344022      1.15183850029829
  H   -2.19221882648465     -0.21830293028227      1.33472081217720
  H   -1.10908994252476     -1.45221675473046      1.26798576917581
  N   1.42840826848862      0.58893359020531      0.75746126042102
  H   1.34945472193943      1.58501230265511      0.58560086887623
  H   0.99006314534359      0.39091639455012      1.64972378912566
  C   1.16066947118141      0.30828850852288     -1.58833394166463
  N   1.53147032195974      0.73360660689020     -2.61715949302283
