13
Coordinates from ORCA-job run
  C   -0.90147600997000     -0.36663757551286     -0.26891745817995
  C   0.60096470676831     -0.14253627770787     -0.46986667226552
  Br  -1.06103369061448     -2.32873418748016      0.34745254644022
  H   0.97933280449285     -0.93098690394530     -1.13329965154294
  H   -1.43548157462076     -0.39961914362599     -1.21698810524813
  N   -1.42815848493396      0.57452270385961      0.60379108633424
  H   -2.41550079038621      0.47623941353029      0.78548078935195
  H   -0.87876657892161      0.65582730644775      1.44936626273095
  N   1.25227324644582     -0.09780446676357      0.83724756263797
  H   1.34588130280063     -1.04481610691296      1.18591682850138
  H   2.17600848774291      0.30853860810218      0.75941833321872
  C   0.79161247614658      1.14393477072251     -1.15350839636747
  N   0.97434410504992      2.15207185928637     -1.72609312561142
