13
Coordinates from ORCA-job run
  C   -0.90625758442166     -0.28015016498635     -0.34615683429914
  C   0.61825535848469     -0.15824800355677     -0.44154066170060
  Br  -1.24593366367859     -2.25833353780722      0.12684670180816
  H   0.98125155321069     -0.93049853671362     -1.13206314523837
  H   -1.37862630606182     -0.21278839883383     -1.32465493438349
  N   -1.41906892798469      0.64240741295257      0.55442299432338
  H   -0.92156438999831      0.62842137106362      1.43512772780964
  H   -2.42064769260989      0.60871111130108      0.66939309621298
  N   1.18541778292609     -0.24435419411890      0.90226363880450
  H   1.18952143441976     -1.21572136060160      1.19138762869469
  H   2.13851865118805      0.09636346204656      0.90749197820848
  C   0.94417757227512      1.15004195194243     -1.02519364124595
  N   1.23495621225057      2.17514888731204     -1.51732454899430
