13

C	-0.508752	0.023448	-1.434181
C	0.0	0.0	0.0
Cl	-0.149925	-1.533932	-2.257128
H	1.092672	0.0	0.0
H	0.084319	0.76896	-1.968376
H	-0.279631	0.95533	0.464936
C	-1.994343	0.302891	-1.561949
H	-2.5696	-0.474644	-1.05394
H	-2.299221	0.331678	-2.610965
H	-2.227811	1.268459	-1.100511
C	-0.580573	-1.071365	0.790938
N	-1.066034	-1.925527	1.436444
H	2.804522	0.0	0.0
