18
Coordinates from ORCA-job run
  C   0.86856174600094     -0.23681182449973     -0.24445120718209
  C   -0.45617914183613      0.24873917173646      0.38274310895103
  Cl  0.81723948113323     -2.01921470778902     -0.53307412309217
  H   -0.28607595399782      1.31789109592249      0.57326678406886
  C   1.96181721581565      0.00962744487845      0.70073966530947
  N   2.82768539684690      0.26067095519748      1.45438774410503
  C   1.19571413104249      0.44154193098637     -1.57133216499595
  H   1.18604178804937      1.52714099470711     -1.44093188684897
  H   0.46356444115598      0.16181034840489     -2.32798109709700
  H   2.18357684359433      0.13593670498682     -1.91785349482939
  C   -0.75033766153206     -0.42640222293450      1.72009965726391
  H   -1.61701985303733      0.04852147370076      2.18590355794021
  H   0.08952898291635     -0.34322520387978      2.41328202375713
  H   -0.97960864916333     -1.48468188102235      1.58122938781970
  C   -1.64063823641493      0.11506224104140     -0.57096061918855
  H   -1.78559627404928     -0.92490827891397     -0.87166473505694
  H   -1.52723713740732      0.72526942930209     -1.46833406523600
  H   -2.55003711911705      0.44603232817502     -0.06406853568828
