18
Coordinates from ORCA-job run
  C   0.88545925535280     -0.15674126779366     -0.24978793280039
  C   -0.47457024884155      0.21691459222972      0.37980170171597
  Cl  1.01768303779199     -1.94605326998300     -0.45622501853431
  H   -0.41424810073443      1.30573009151872      0.51836958935724
  C   1.95890102849637      0.24801101021324      0.66301694334757
  N   2.80479259804102      0.62446547755105      1.38648217958599
  C   1.11998072482638      0.48902759306317     -1.61220422024890
  H   0.99463500540339      1.57224703743393     -1.53081041363031
  H   0.41227525892855      0.09662839509537     -2.34161781547626
  H   2.13055744105692      0.27523318710144     -1.96214433339891
  C   -0.67738195074435     -0.42206063495418      1.75129311373989
  H   0.15737583594065     -0.21728537858342      2.42520884607148
  H   -0.79381780656083     -1.50409181427298      1.66457974531394
  H   -1.58408667757082     -0.02035945727554      2.20993020485844
  C   -1.65128880454881     -0.08324263442948     -0.54501654117468
  H   -1.68994691747175     -1.14514864563480     -0.79756653690683
  H   -2.58340995429952      0.17333874730488     -0.03636149696239
  H   -1.61490972506600      0.49438697141554     -1.46994801485756
