18
Coordinates from ORCA-job run
  C   0.86631759643991     -0.46986931931998     -0.32929408417794
  C   -0.49719382624239     -0.50850253351595      0.39723657806234
  Cl  1.01671271769977     -1.94515651321536     -1.36342376294692
  H   -0.54950994530247     -1.49508021497780      0.87230639540356
  C   1.94912567511772     -0.54838837769115      0.65482411319838
  N   2.81299501566317     -0.57364071084816      1.45110746774186
  C   1.07396326596576      0.74976896295173     -1.22075468769966
  H   2.06433678985016      0.71409221529026     -1.67582711822169
  H   0.99433441327036      1.66620587347018     -0.63225609297806
  H   0.32869505372688      0.76338333392759     -2.01583638201771
  C   -1.67298425024681     -0.37111750251357     -0.56692106544985
  H   -2.60250290719611     -0.58536446665238     -0.03418381244803
  H   -1.74858586455251      0.64632577607087     -0.95840739558600
  H   -1.60189179489599     -1.06530619800875     -1.40529843966607
  C   -0.57906899577204      0.55385498276702      1.49455891571235
  H   0.22162295969947      0.45314802308536      2.22958181536957
  H   -1.53032307264531      0.45133474693865      2.02247663732645
  H   -0.54504283057957      1.56431192224144      1.07911091837738
