14

C	0.0	0.0	0.0
C	-0.558285	0.12259	-1.427274
Br	1.949939	0.0	0.0
H	-1.644892	-0.042701	-1.289748
H	-0.329953	-0.939109	0.445485
C	-0.406585	1.113916	0.852814
N	-0.629027	2.005209	1.585438
C	-0.023588	-0.94124	-2.27229
N	0.388939	-1.772259	-2.993277
C	-0.343182	1.496994	-2.053085
H	0.714646	1.766582	-2.087388
H	-0.892752	2.239481	-1.472475
H	-0.73856	1.502452	-3.070559
Br	-3.5891	0.0	0.0
