14

C	0.0	0.0	0.0
C	-0.566451	0.148566	-1.41972
Br	1.949981	0.0	0.0
H	-1.65725	0.015142	-1.269648
H	-0.325746	-0.947955	0.429919
C	-0.406501	1.098692	0.87324
N	-0.615704	1.994002	1.604807
C	-0.077107	-0.932884	-2.269435
N	0.30317	-1.781848	-2.98719
C	-0.312518	1.516205	-2.047006
H	0.75509	1.732915	-2.130822
H	-0.757694	1.547656	-3.043608
H	-0.794973	2.282448	-1.437458
Br	-3.605248	0.0	0.0
