14

C	0.0	0.0	0.0
C	-0.40075	-0.181859	-1.506837
Br	1.952648	0.0	0.0
H	0.5254	-0.079788	-2.080533
H	-0.350573	-0.833917	0.606027
C	-0.397955	1.270458	0.597987
N	-0.548725	2.325166	1.095196
C	-1.241737	0.883273	-2.061494
N	-1.711682	1.748146	-2.705463
C	-0.932785	-1.589875	-1.771559
H	-1.115495	-1.720118	-2.840893
H	-1.862271	-1.733336	-1.223673
H	-0.174523	-2.316917	-1.460371
Br	-3.367002	0.0	0.0
