14

C	0.0	0.0	0.0
C	-0.397485	-0.470536	-1.447246
Br	1.952515	0.0	0.0
H	0.529413	-0.468388	-2.027988
H	-0.352688	-0.701669	0.753955
C	-0.401894	1.361417	0.330307
N	-0.55797	2.495787	0.5965
C	-1.245363	0.464277	-2.194029
N	-1.699303	1.204055	-2.986924
C	-0.913741	-1.908253	-1.439722
H	-1.843497	-1.958319	-0.874595
H	-1.09562	-2.242195	-2.464588
H	-0.153879	-2.557834	-0.992683
Br	-3.349526	0.0	0.0
