14

C	0.0	0.0	0.0
C	-0.396235	-0.132029	-1.514785
Br	1.940988	0.0	0.0
H	0.523897	0.03782	-2.080592
H	-0.369235	-0.842972	0.580837
C	-0.399142	1.26375	0.615485
N	-0.548312	2.324653	1.100039
C	-1.286292	0.912415	-2.035233
N	-1.747237	1.75667	-2.713144
C	-0.870251	-1.547403	-1.83599
H	-1.032256	-1.648802	-2.912686
H	-0.098409	-2.262414	-1.531998
H	-1.803689	-1.744559	-1.310479
Br	-3.311918	0.0	0.0
