14

C	0.0	0.0	0.0
C	-0.371776	-0.216284	-1.516401
Br	1.958142	0.0	0.0
H	0.560657	-0.084423	-2.073803
H	-0.366389	-0.815099	0.620289
C	-0.3935	1.294781	0.541969
N	-0.500147	2.382311	0.975152
C	-1.239757	0.807506	-2.110486
N	-1.702641	1.641747	-2.798832
C	-0.852234	-1.643286	-1.771725
H	-0.105624	-2.348236	-1.393403
H	-1.809027	-1.795879	-1.274404
H	-0.968395	-1.807714	-2.845907
Br	-3.262927	0.0	0.0
