19

C	-0.348152	0.003203	-1.500444
C	0.0	0.0	0.0
Cl	-2.151586	0.150275	-1.722584
H	1.092217	0.0	0.0
C	0.300441	1.231093	-2.120166
H	0.099649	1.25633	-3.193813
H	-0.085466	2.149176	-1.674099
H	1.380429	1.174917	-1.946504
C	0.121877	-1.256368	-2.206357
H	1.187646	-1.389261	-1.997391
H	-0.413471	-2.140623	-1.863115
H	-0.031871	-1.150383	-3.283065
N	-0.495827	-1.278178	0.624338
O	-1.595241	-1.249798	1.175338
O	0.20978	-2.279046	0.507783
N	-0.45618	1.099904	0.781997
H	0.249146	1.821155	0.804823
H	-1.350486	1.457482	0.477436
Br	3.500812	0.0	0.0
