19

C	-0.533467	0.056063	-1.444387
C	0.0	0.0	0.0
Cl	-0.221931	-1.522968	-2.262955
H	1.090925	0.0	0.0
C	-2.027775	0.321264	-1.522887
H	-2.599432	-0.458573	-1.018912
H	-2.249032	1.285514	-1.060477
H	-2.334557	0.358688	-2.570682
C	0.27445	1.116803	-2.175748
H	1.339955	0.889685	-2.105095
H	-0.026042	1.157033	-3.22589
H	0.093324	2.08531	-1.706158
N	-0.477088	-1.264675	0.690965
O	0.271128	-2.232123	0.734989
O	-1.619718	-1.233639	1.168595
N	-0.430488	1.166822	0.719744
H	0.247987	1.365051	1.444883
H	-1.338214	1.002843	1.138096
Br	3.531936	0.0	0.0
