19

C	-0.346014	0.077232	-1.498953
C	0.0	0.0	0.0
Cl	-2.148621	0.228249	-1.715184
H	1.094657	0.0	0.0
C	0.297628	1.337769	-2.055169
H	-0.095892	2.2305	-1.567665
H	0.102827	1.41411	-3.127131
H	1.376571	1.279085	-1.878922
C	0.130668	-1.141791	-2.268041
H	-0.02531	-0.982735	-3.337665
H	1.197049	-1.277063	-2.06728
H	-0.396907	-2.046143	-1.968943
N	-0.49608	-1.307754	0.559916
O	-1.593103	-1.306441	1.115799
O	0.207873	-2.302289	0.390271
N	-0.457209	1.060681	0.833416
H	-1.346842	1.438656	0.539978
H	0.251362	1.776354	0.898748
Br	3.498095	0.0	0.0
