19

C	-0.415853	-0.098338	-1.471035
C	0.0	0.0	0.0
Cl	-2.237427	-0.113245	-1.567601
H	1.101485	0.0	0.0
C	0.087675	1.153398	-2.170096
H	-0.336912	2.045614	-1.715523
H	-0.171774	1.113925	-3.231068
H	1.175638	1.18705	-2.0586
C	0.110432	-1.338514	-2.172185
H	-0.341347	-2.252081	-1.792611
H	-0.099756	-1.259499	-3.241608
H	1.190951	-1.39031	-2.011941
N	-0.428297	-1.253066	0.761999
O	-1.322606	-1.134545	1.602998
O	0.14563	-2.306946	0.49906
N	-0.470669	1.186529	0.624587
H	0.102131	1.390392	1.433186
H	-1.434457	1.076023	0.912836
Br	3.476908	0.0	0.0
