19

C	-0.410541	-0.19403	-1.462097
C	0.0	0.0	0.0
Cl	-2.232256	-0.220112	-1.564924
H	1.105073	0.0	0.0
C	0.09056	1.012126	-2.239662
H	-0.346023	1.928844	-1.849825
H	1.177366	1.063579	-2.122631
H	-0.15854	0.90085	-3.29776
C	0.120107	-1.477115	-2.076837
H	-0.082754	-1.467409	-3.150518
H	-0.338295	-2.363188	-1.641083
H	1.199691	-1.521981	-1.905671
N	-0.423521	-1.205075	0.837374
O	0.175526	-2.262057	0.661873
O	-1.33623	-1.045502	1.651208
N	-0.477709	1.220892	0.553027
H	-1.436346	1.110771	0.86241
H	0.096776	1.464831	1.349553
Br	3.476938	0.0	0.0
