19

C	-0.543896	0.081264	-1.439763
C	0.0	0.0	0.0
Cl	-0.191983	-1.4587	-2.308775
H	1.094983	0.0	0.0
C	-2.048952	0.302549	-1.501263
H	-2.299724	1.23998	-0.998287
H	-2.593884	-0.51656	-1.028063
H	-2.364197	0.372773	-2.544264
C	0.226412	1.190215	-2.141306
H	0.012853	2.139173	-1.645787
H	1.300127	0.995966	-2.077302
H	-0.07879	1.2486	-3.189778
N	-0.471084	-1.279755	0.668792
O	-1.597796	-1.254253	1.184035
O	0.267337	-2.254864	0.656612
N	-0.431293	1.152787	0.741774
H	0.255953	1.353763	1.458285
H	-1.329243	0.971669	1.173631
Br	3.52626	0.0	0.0
