19

C	-0.561685	0.013878	-1.433661
C	0.0	0.0	0.0
Cl	-0.178	-1.543438	-2.25987
H	1.096037	0.0	0.0
C	-2.072997	0.185965	-1.472364
H	-2.34426	1.130666	-0.996929
H	-2.580495	-0.631135	-0.95946
H	-2.410462	0.207803	-2.511152
C	0.160608	1.122315	-2.186865
H	-0.153602	1.126318	-3.23352
H	1.240687	0.968726	-2.129023
H	-0.083571	2.081364	-1.726729
N	-0.461394	-1.251221	0.73028
O	0.254404	-2.243436	0.700771
O	-1.558797	-1.188777	1.304235
N	-0.426025	1.181467	0.69736
H	0.276033	1.4237	1.384926
H	-1.310444	1.011722	1.16021
Br	3.518819	0.0	0.0
