15

C	-0.474166	-0.038173	-1.432831
C	0.0	0.0	0.0
Cl	0.234096	1.42141	-2.305468
H	1.087924	0.0	0.0
H	0.041721	-0.87646	-1.895385
N	-1.879096	-0.17144	-1.573208
H	-2.331902	0.640111	-1.172861
H	-2.134768	-0.262523	-2.547815
N	-0.365838	-1.254223	0.660299
O	-0.899212	-1.245338	1.772788
O	-0.035492	-2.27261	0.041655
N	-0.470546	1.134088	0.782846
O	-1.364281	1.868447	0.324933
O	0.116292	1.332538	1.849697
H	2.414258	0.0	0.0
