15

C	-0.41753	0.017612	-1.443096
C	0.0	0.0	0.0
Cl	-2.240535	0.504672	-1.591079
H	1.08954	0.0	0.0
H	0.08367	0.871406	-1.892483
N	-0.10019	-1.163112	-2.127092
H	-0.250083	-1.066987	-3.120336
H	-0.610369	-1.948378	-1.748252
N	-0.42618	-1.137197	0.780732
O	0.05786	-1.225367	1.915231
O	-1.136822	-2.01601	0.252797
N	-0.340466	1.26877	0.652765
O	0.046224	2.265916	0.034815
O	-0.922951	1.290241	1.736195
H	2.372416	0.0	0.0
