15

C	-0.418354	0.080086	-1.440446
C	0.0	0.0	0.0
Cl	-2.258059	0.511837	-1.55071
H	1.090017	0.0	0.0
H	0.048051	0.974701	-1.843029
N	-0.06325	-1.04747	-2.189674
H	-0.201999	-0.896128	-3.177273
H	-0.548721	-1.870785	-1.863758
N	-0.412323	-1.177386	0.727883
O	0.035063	-1.292131	1.875097
O	-1.06307	-2.065103	0.13895
N	-0.351281	1.239938	0.700206
O	0.029028	2.262223	0.121167
O	-0.935779	1.219152	1.783117
H	2.363911	0.0	0.0
