12
Coordinates from ORCA-job run
  C   -0.65356766653475     -0.15445831649513     -0.16705139869597
  C   0.50145246691782     -0.28487773160353      0.49907458348549
  H   0.53838804367031     -1.07113136487100      1.24908417496847
  N   -1.79972025526797     -1.04558964851991      0.13958520942710
  O   -2.84582650644607     -0.79905098042797     -0.45248990960236
  O   -1.61949356674389     -1.94255986177427      0.95166347268731
  C   -0.89981504968199      0.81483750243386     -1.18591131681985
  N   -1.03299895632734      1.63382467484461     -2.01927123602132
  C   1.71005365427075      0.55701320660765      0.27792874677092
  H   2.55735389078799     -0.07769787980368      0.00315794179447
  H   1.56112277001094      1.30324091767823     -0.50264729105127
  H   1.98405117534419      1.06544948193114      1.20687702305700
