12
Coordinates from ORCA-job run
  C   -0.70407452940325      0.38136018506517     -0.12924087966930
  C   0.62821508536978      0.54451816656661     -0.18291541680196
  H   0.95136314116412      1.52305640145715     -0.53281090258521
  N   -1.33535132276072     -0.88268583083120      0.29585795400819
  O   -0.73897842589155     -1.55659785230696      1.13038602263683
  O   -2.40911409703935     -1.15759826364640     -0.23114286118742
  C   -1.63285551754893      1.39280076212417     -0.52429425435465
  N   -2.36590203827297      2.25487852317034     -0.84282947093942
  C   1.69192524588389     -0.44125615915655      0.17390295952695
  H   2.60599807241917     -0.21214903450930     -0.37467546824505
  H   1.91286540655658     -0.37730456877416      1.24373671198421
  H   1.39390897952324     -1.46902232915887     -0.02597439437316
