12
Coordinates from ORCA-job run
  C   -0.68292280955019     -0.09481708136088      0.05802305587050
  C   0.58013578221776     -0.44306661635520     -0.22132536712546
  H   0.73302796621779     -1.46008313579869     -0.57350019441900
  N   -1.78567266911815     -1.07272907108122     -0.11591030130807
  O   -2.91053253806095     -0.66972439757433      0.16403754908136
  O   -1.49487677954392     -2.19037542037520     -0.51918444844254
  C   -1.08700226375521      1.18998238958770      0.53172330931110
  N   -1.34988935051265      2.26883180069358      0.91886738835936
  C   1.76017476816579      0.45488214760007     -0.08213685831417
  H   2.48363638758016      0.01209672609909      0.60837484429490
  H   2.26494897226456      0.55618113269440     -1.04723381717173
  H   1.48897253409501      1.44682152587069      0.27926483986375
