12
Coordinates from ORCA-job run
  C   -0.67700766116324     -0.10497724368149     -0.09703875426120
  C   0.58440851487581     -0.44994999604947      0.19380783034120
  H   0.75197505457676     -1.49308054134697      0.45014941170310
  N   -1.76100789434485     -1.11757993570297     -0.04725893018840
  O   -1.44517255263426     -2.27585306003938      0.18760090247103
  O   -2.89714025740218     -0.69867046506747     -0.24582708377072
  C   -1.09915347044089      1.21141294159658     -0.45364067971325
  N   -1.37755641400851      2.31641425052432     -0.74402507387674
  C   1.74428659305637      0.48416924855841      0.18614048003535
  H   1.46051522190285      1.49950236848824     -0.09115527764366
  H   2.21051969633737      0.50470843850151      1.17537940803610
  H   2.50433316924475      0.12590399421868     -0.51413223313280
