12
Coordinates from ORCA-job run
  C   -0.68499358029269     -0.07895900715027     -0.05141084952312
  C   0.53292951672419     -0.27800913297405      0.46975749380922
  H   0.58778174712139     -0.94821259126215      1.32401853824387
  N   -1.86818585225301     -0.76268020537223      0.52757550614557
  O   -1.69706633534454     -1.44268288058084      1.52980335866723
  O   -2.93170677841779     -0.58492953527104     -0.05855321659748
  C   -0.96453335804464      0.76190569893803     -1.17065597015685
  N   -1.12711098418197      1.47510227227257     -2.09146987730726
  C   1.78607939210979      0.34996154825559     -0.03365942207901
  H   2.50000516854136     -0.42634825009308     -0.32359654208649
  H   2.25689052676646      0.92938547403563      0.76571803062434
  H   1.61091053727143      1.00446660920183     -0.88752704974002
