12
Coordinates from ORCA-job run
  C   -0.68556183439576      0.43113043777568     -0.04440036732411
  C   0.65045306201874      0.53154679117751     -0.14141308459292
  H   1.01664634078994      1.53713296216330     -0.33904527990635
  N   -1.36898822906961     -0.84403120518615      0.24586106341624
  O   -0.84606319866020     -1.87121492796946     -0.17583320871807
  O   -2.40725309715944     -0.76797274768861      0.89581712391703
  C   -1.56560466621591      1.55076173582355     -0.16090959196973
  N   -2.25886280455116      2.49275460252101     -0.27929124616869
  C   1.66681476407448     -0.55498794308260     -0.01174344750269
  H   2.62060124690790     -0.13236897637745      0.30536851845588
  H   1.36150001379369     -1.33240217213845      0.68659792852880
  H   1.81631840246732     -1.04034855701834     -0.98100840813540
