12
Coordinates from ORCA-job run
  C   -0.70785690762469      0.39071265059289      0.03355717688843
  C   0.59919247041191      0.46908548134423      0.33414162276576
  H   0.88634777295694      1.38384319936161      0.84977936891846
  N   -1.32233953909250     -0.77587041764256     -0.62832093754313
  O   -0.65588883636424     -1.37563159712729     -1.46655919961164
  O   -2.46434653899059     -1.05315331179914     -0.27496858225197
  C   -1.64104231738329      1.40887583333764      0.40372325369692
  N   -2.35693464832038      2.28355571109078      0.72793525689344
  C   1.68956901353178     -0.51038282160045      0.05841540662535
  H   1.32873023122153     -1.46751166697925     -0.30815134294742
  H   2.28105025235395     -0.65966844063950      0.96654932757489
  H   2.36451904729957     -0.09085461993895     -0.69510135100909
