12
Coordinates from ORCA-job run
  C   -0.67963424613433     -0.07477856095329     -0.10233977572067
  C   0.56521744576026     -0.46987874285122      0.19706870151470
  H   0.68390196983386     -1.52002585403021      0.45046041073546
  N   -1.79595318336294     -1.05364282076413     -0.08633326722967
  O   -2.89159020840809     -0.62385240832739     -0.43404263595344
  O   -1.54394081886757     -2.19877634389953      0.26172454351378
  C   -1.05341184745289      1.25950426399649     -0.44560564610386
  N   -1.29748324860460      2.38168530687403     -0.69892222146985
  C   1.76146780448979      0.41708579884985      0.20828115260533
  H   1.51526853106996      1.45216902583904     -0.02917754972634
  H   2.49941842684572      0.05383240291891     -0.51304066037559
  H   2.23773937483082      0.37767793234745      1.19292694821015
