12
Coordinates from ORCA-job run
  C   -0.69924737681004      0.40177001951250      0.01189869134652
  C   0.59414441600179      0.46333612496426      0.36658726593385
  H   0.87021579173934      1.37219888399170      0.89930726587046
  N   -1.29664497930756     -0.75182111594977     -0.68919654038149
  O   -2.45986973601117     -1.01458598528753     -0.39751253191443
  O   -0.59258571023494     -1.36178894619791     -1.48891906194505
  C   -1.64376749769081      1.42346719811530      0.34036483830212
  N   -2.40662309704738      2.26929010055538      0.63028959601796
  C   1.68497946540322     -0.52579690312539      0.12985633109127
  H   2.37319418657140     -0.12248857032165     -0.62031082460002
  H   1.32336159008026     -1.48347759144594     -0.23380884507153
  H   2.25384294730589     -0.66910321481095      1.05144381535035
