16

C	-0.053717	0.085789	0.008167
C	-0.61424	0.226729	-1.394733
Cl	1.772535	-0.0407	-0.006896
H	-0.643635	-0.796328	-1.777855
H	-1.659272	0.522833	-1.267383
N	-0.253475	1.410231	0.829438
O	-0.130437	1.308023	2.045618
O	-0.517024	2.448352	0.231801
N	-0.599322	-1.004307	0.669891
H	-0.412873	-0.961861	1.663482
H	-1.615034	-1.067405	0.485796
C	0.118604	1.12755	-2.380138
H	-0.449997	1.160978	-3.313463
H	0.214159	2.143972	-2.004131
H	1.113815	0.742129	-2.607785
Cl	-3.719178	-0.8877	0.000423
