15

C	0.0	0.0	0.0
C	-0.282592	0.022115	-1.531401
Cl	1.794702	0.0	0.0
H	0.248774	-0.864904	-1.896921
H	-1.348702	-0.142725	-1.655467
N	-0.373211	1.232863	0.795115
O	-0.375689	2.318224	0.216109
O	-0.448451	1.087177	2.012805
C	-0.67995	-1.144366	0.601076
N	-0.677056	-2.245229	1.056287
C	0.146561	1.234723	-2.352554
H	-0.501001	2.086944	-2.162461
H	0.070551	0.969729	-3.412682
H	1.175471	1.535623	-2.156503
H	-2.121563	0.0	0.0
