15

C	0.0	0.0	0.0
C	-0.317636	0.073928	-1.514331
Cl	1.77747	0.0	0.0
H	0.37947	0.784301	-1.961165
H	-1.325836	0.458389	-1.627467
N	-0.369091	1.311559	0.683243
O	-0.391472	2.32112	-0.019431
O	-0.43116	1.300136	1.908985
C	-0.701766	-1.080841	0.680201
N	-0.696867	-2.130092	1.246409
C	-0.201331	-1.298446	-2.161861
H	-0.370376	-1.216533	-3.240156
H	0.784797	-1.741659	-2.004716
H	-0.950496	-1.974974	-1.74519
H	-2.142801	0.0	0.0
