15

C	0.0	0.0	0.0
C	-0.329329	0.149763	-1.507371
Cl	1.762822	0.0	0.0
H	0.391803	0.84934	-1.932703
H	-1.322225	0.577257	-1.596294
N	-0.37123	1.279924	0.74594
O	-0.390778	2.321523	0.092397
O	-0.439144	1.209713	1.968933
C	-0.712794	-1.107998	0.62698
N	-0.701208	-2.181333	1.146872
C	-0.272419	-1.200023	-2.207384
H	-1.07129	-1.844107	-1.834982
H	0.68065	-1.707111	-2.040005
H	-0.405179	-1.068444	-3.285955
H	-2.151829	0.0	0.0
