15
Coordinates from ORCA-job run
  C   1.00387381449533      0.27011148718372     -0.29834563497215
  C   -0.35269794780398     -0.04825562151128      0.39314376429416
  Cl  0.72767467181741      1.19264414106600     -1.81535401584230
  H   -0.06816588548459     -0.56270920442620      1.31901652003089
  C   1.82780488104627      1.08464813977395      0.59650658062160
  N   2.49262139421555      1.70132990160878      1.34316246028869
  C   1.71711746290566     -0.96499447786201     -0.63088649315940
  N   2.25333675930670     -1.98287476914874     -0.87025946564683
  C   -1.22204461047906     -0.97720611755701     -0.44712318985265
  H   -1.51325662138595     -0.49450625459123     -1.38241605559342
  H   -0.71931906858491     -1.91772483148259     -0.68296158482056
  H   -2.13047553284793     -1.20815484900270      0.11333165326728
  N   -0.95557833110992      1.21749838990306      0.75966845696929
  H   -1.53973690054311      1.57013225485022      0.01180579695760
  H   -1.52215408554748      1.11806181119604      1.59071120745782
