15
Coordinates from ORCA-job run
  C   1.09124766572895      0.16210331380397      0.19389588445033
  C   -0.40845875052228     -0.07774136213684      0.51005638449237
  Cl  1.87468012244428      0.95403725660106      1.60538999520223
  H   -0.41387248757139     -0.72165126853769      1.40282641696682
  C   1.77606276801532     -1.11045286907992     -0.04315130766946
  N   2.28307539309927     -2.15409102904967     -0.22891748939577
  C   1.23386518385235      1.03052598232127     -0.97538672566215
  N   1.35289999851929      1.68643988820815     -1.94274826278502
  C   -1.08498792221246     -0.79750510321141     -0.64705428744181
  H   -0.59150413974386     -1.74043151789487     -0.88650108086786
  H   -2.11867340889704     -1.02423990741606     -0.37331938766029
  H   -1.09620818763441     -0.16047981870448     -1.53463074449141
  N   -1.02357454911553      1.21876647993492      0.70890116448753
  H   -0.85005514782858      1.57475734186708      1.63962249884556
  H   -2.02349653813391      1.15996261329450      0.56901694152892
