15
Coordinates from ORCA-job run
  C   1.10059811694815     -0.18492950912690     -0.06532119959673
  C   -0.38644771488498     -0.28410130209665      0.39019674637627
  Cl  1.75415924143639     -1.81910166476571     -0.41689786852416
  H   -0.38656367022855     -1.02371842404412      1.20350559891662
  C   1.21019727514312      0.64578058441957     -1.26427060791264
  N   1.26760967429963      1.28597999719388     -2.24757918213422
  C   1.88934633190466      0.39486041670277      1.02376092243069
  N   2.47156717150430      0.83955954593643      1.94240286109776
  C   -1.28552331918563     -0.75621326423498     -0.73884073676380
  H   -0.93683472238948     -1.69238280188098     -1.17365383587610
  H   -1.33305561750740      0.00258979904257     -1.52362801738438
  H   -2.29368468497924     -0.91839988000273     -0.35023997070769
  N   -0.76021274793927      1.05147429243705      0.81125721370813
  H   -1.73223147381679      1.24725942214579      0.61692672596522
  H   -0.57892386030491      1.21034278827401      1.79338135040503
