15
Coordinates from ORCA-job run
  C   1.08609601895086      0.18673921023892      0.20864491196635
  C   -0.41304713416061     -0.08409227174561      0.50363349184667
  Cl  1.82999082963382      1.00509374711384      1.62652251814942
  H   -0.41731089064746     -0.72460539445795      1.39889695302695
  C   1.80110199844691     -1.07286331523409     -0.00708119810272
  N   2.33100045616306     -2.10873641545912     -0.17172833756859
  C   1.22670477512241      1.05053404225526     -0.96411813952463
  N   1.33178618080580      1.70818384145672     -1.93196767737347
  C   -1.05628241293321     -0.82304480199640     -0.66034619486694
  H   -0.53965642943270     -1.75646854761103     -0.88767109339133
  H   -1.06701064063446     -0.19045493529306     -1.55097601318348
  H   -2.08905918120550     -1.07005992102577     -0.40159179734226
  N   -1.05924558918520      1.19918639494373      0.68821518969604
  H   -0.90908638304338      1.56156841669126      1.62046029134975
  H   -2.05498159788036      1.11901995012328      0.53110709531825
