15
Coordinates from ORCA-job run
  C   1.05196804313503      0.15045082247839      0.22430877203254
  C   -0.45988970348747     -0.14213598941108      0.54750511647729
  Cl  1.82422446187882      0.91415209874181      1.65476983549536
  H   -0.43329025400540     -0.78250417565998      1.43623810982761
  C   1.77431588562998     -1.08406567772973     -0.07562459540716
  N   2.31514097318532     -2.10178328322006     -0.30774413201368
  C   1.13446503562825      1.07692682724135     -0.90368891388475
  N   1.12692983457240      1.82179715937753     -1.81306146925689
  C   -1.10572292245184     -0.88673169767361     -0.61175430400362
  H   -2.13782081172834     -1.10929113491941     -0.33934295929534
  H   -0.59260164682627     -1.82210776659315     -0.83871520008604
  H   -1.11905522698647     -0.26848342608382     -1.51426810496686
  N   -1.22595020919457      1.03421062526029      0.85813974371068
  H   -1.31835679029351      1.64212752804983      0.05276749418551
  H   -0.83535666905597      1.55743809014162      1.63047060718537
