15
Coordinates from ORCA-job run
  C   1.13214550187433      0.17677983695632      0.17063285950753
  C   -0.35660067113781     -0.07697860316621      0.56609976092412
  Cl  2.00468575781488      0.89944272517211      1.55361399575271
  H   -0.30490083463605     -0.66879306928655      1.48582099402416
  C   1.80260905560128     -1.07523802174451     -0.18606417081336
  N   2.30427410292368     -2.10309727383796     -0.45734755631760
  C   1.17179682705875      1.10426965805710     -0.96112629874563
  N   1.13322637908753      1.83281942418640     -1.88255894110116
  C   -1.07830583083322     -0.86372561311533     -0.52354665788455
  H   -0.61089026205556     -1.82891312612302     -0.72640996466850
  H   -2.10726156435094     -1.04196596769751     -0.20424898175466
  H   -1.10779527741606     -0.28997619740224     -1.45496310367758
  N   -0.95187376764941      1.20935185642650      0.85908830553370
  H   -1.53554653086810      1.17578707279043      1.68158711292115
  H   -1.49756288541329      1.55023729878438      0.07842264629968
