15
Coordinates from ORCA-job run
  C   1.09804820176771      0.04653094950040      0.20316097236278
  C   -0.44442306232027      0.06937335032812      0.42392339612109
  Cl  1.87831662125045     -1.06497101492294      1.37711699913447
  H   -0.57558859591717      0.27834488973920      1.49525759466083
  C   1.41080723256723     -0.39290283952671     -1.15639691438149
  N   1.63631477937919     -0.78183648305091     -2.24171675459099
  C   1.62665656704980      1.39258786966612      0.43270033132247
  N   1.99289098619660      2.48661727674389      0.65550517598025
  C   -1.07770925339210     -1.26634008396491      0.07617325933839
  H   -0.99963276450863     -1.45130233855375     -0.99796883896060
  H   -0.60895149871681     -2.09122665929130      0.61182452010297
  H   -2.13548047141270     -1.24364188990819      0.34905862890161
  N   -0.95220447785579      1.11260389889942     -0.44451259944102
  H   -1.87338237449048      0.89206988532692     -0.79616216346800
  H   -0.97666188959703      2.01509318901461      0.01103639291725
