15
Coordinates from ORCA-job run
  C   1.08986250758486      0.17350304463942      0.19458001981149
  C   -0.40898333595761     -0.07698332677850      0.50776962544068
  Cl  1.86076006826913      0.98686071858453      1.60124537797623
  H   -0.41114711027375     -0.71524739258020      1.40470332048438
  C   1.78570290328231     -1.09623742268835     -0.02370209392997
  N   2.29974449627688     -2.14072796228747     -0.18473920064203
  C   1.22869065419890      1.03102214071410     -0.98272328062610
  N   1.33609239609852      1.67992727572005     -1.95612936904683
  C   -1.07517551942861     -0.81042753048863     -0.64679750637599
  H   -1.08816460102451     -0.17970408824406     -1.53867783421365
  H   -2.10801954020737     -1.04344750383820     -0.37558936691464
  H   -0.57337379279510     -1.75106932995156     -0.87757583761015
  N   -1.03652091730220      1.21508179124986      0.69552830477825
  H   -2.03613879495164      1.14490717446093      0.55864061192761
  H   -0.86432941376981      1.58154241148804      1.62246722894072
