15
Coordinates from ORCA-job run
  C   0.90949132436109      0.24926207223996     -0.39314330938847
  C   -0.38035261903449     -0.09333859888435      0.44721413914984
  Cl  0.45809596705742      0.99761249141347     -1.96082186852260
  H   0.01808783194969     -0.54300483490905      1.36514645027992
  C   1.71286100162357      1.21197225502172      0.36051509997467
  N   2.30385902577517      1.97673157223004      1.02949599843555
  C   1.69378529043608     -0.95644187389778     -0.65193971829611
  N   2.28610514698024     -1.95755847743725     -0.82201669449303
  C   -1.25121937986900     -1.11181354048905     -0.27017517182903
  H   -1.68198774525177     -0.68665796296579     -1.17890782424160
  H   -2.06814233254814     -1.38744386909949      0.39701044750235
  H   -0.69421158770194     -2.01154204109031     -0.53676287922749
  N   -1.15436726356610      1.05902112894204      0.82026597822172
  H   -0.62859673408001      1.71393616440244      1.38557292059538
  H   -1.52440792613181      1.53726551452343      0.00854643183890
