15
Coordinates from ORCA-job run
  C   1.04933698214540      0.16623863849922      0.22371796726869
  C   -0.45907121691251     -0.14366613302176      0.54762210355416
  Cl  1.81031244967910      0.95003613946798      1.64951569413591
  H   -0.42480863088484     -0.77743740217376      1.44077012737527
  C   1.78740929311970     -1.06130094889379     -0.06611005550836
  N   2.33366942498329     -2.07949673033900     -0.28196656796390
  C   1.12180544610430      1.08609944470550     -0.91044207636050
  N   1.11745334985459      1.82007626797410     -1.82831882036080
  C   -1.09385509600945     -0.90402702390707     -0.60750363612304
  H   -0.56910745886866     -1.83469899085952     -0.82691198885437
  H   -1.11288694665910     -0.29228438281521     -1.51435224352355
  H   -2.12379897702368     -1.13684975743528     -0.33551337823260
  N   -1.23998675893511      1.02500538969399      0.84955124481043
  H   -1.33834515159650      1.62731298793391      0.04072584784531
  H   -0.85812670899652      1.55699250117075      1.62021578193730
