15
Coordinates from ORCA-job run
  C   0.94617602771700      0.25161074911928     -0.28433846649831
  C   -0.43871477801571     -0.06726109144309      0.39830266746928
  Cl  0.70084247295793      0.82132069531313     -1.96855369585528
  H   -0.16207006632058     -0.40629366986292      1.40435323162834
  C   1.60348948188548      1.31969474315379      0.46918216344256
  N   2.09132036322811      2.17369757950855      1.11274416829168
  C   1.79838283472934     -0.93588459735098     -0.30571613888380
  N   2.43821527274653     -1.92196449388092     -0.28998827307580
  C   -1.16526677196454     -1.18965980410494     -0.32444011397360
  H   -0.54762662738958     -2.08455376845664     -0.41653927781748
  H   -1.47462337548161     -0.87541884154029     -1.32326824190844
  H   -2.06027302674110     -1.43590091510440      0.24721562588289
  N   -1.29415555062998      1.07963429374529      0.53948957406871
  H   -0.87555479468678      1.80900311898830      1.10311594814560
  H   -1.55814146203455      1.45997600191588     -0.36055917091635
