15
Coordinates from ORCA-job run
  C   0.96421744737547      0.23275724153832     -0.24604447194967
  C   -0.45076553210711     -0.06920802856831      0.38147764851157
  Cl  0.78841184089777      0.87253598972990     -1.91378308466109
  H   -0.21612250169791     -0.45338633527897      1.38192967325487
  C   1.62554186128011      1.25235820440948      0.56840110313327
  N   2.08410908115394      2.07659307477822      1.26977580614828
  C   1.78141593654912     -0.97819770202999     -0.28741775058649
  N   2.39498511862156     -1.98083847296889     -0.29065466583391
  C   -1.18520295904156     -1.14233290924293     -0.40556682833971
  H   -1.45443927150947     -0.78202062155674     -1.40046490656002
  H   -0.59020567362646     -2.05073836812258     -0.51343799232974
  H   -2.10404097590361     -1.38385260754223      0.12910039966583
  N   -1.27775283505483      1.09593190472845      0.53906077438676
  H   -1.50216226896268      1.51619534336708     -0.35400891464569
  H   -0.85698926797431      1.79220328675919      1.14163320980573
