15
Coordinates from ORCA-job run
  C   1.10124137338183      0.07467340961275      0.17665311242772
  C   -0.43593358670567      0.06867855996976      0.43259875375286
  Cl  1.93303372734919     -0.99397985595532      1.35473303926612
  H   -0.54747725922903      0.29814820732870      1.50192816243715
  C   1.39248930727309     -0.38657380800449     -1.18048126988234
  N   1.60281037484372     -0.79384637975036     -2.26211753357578
  C   1.60438597168962      1.43680251667951      0.36587793054909
  N   1.95074420727936      2.54313103947942      0.55761991813053
  C   -1.04707943265609     -1.28770246502747      0.12787007286110
  H   -2.09815768350431     -1.28277295144971      0.42627930835154
  H   -0.54685326955585     -2.09082881321060      0.66812257757047
  H   -0.99076468137486     -1.49298296104753     -0.94395304422914
  N   -0.98635931104338      1.08153370318985     -0.44599114779169
  H   -1.90980934387106      0.83282928406255     -0.77194520820372
  H   -1.02127039387657      1.99289051412292     -0.00919467166388
