15
Coordinates from ORCA-job run
  C   1.09771258584273      0.06032526515766      0.19303853391416
  C   -0.44225662162841      0.07264106373138      0.42810033278002
  Cl  1.89935148415221     -1.02277416003127      1.37890075325999
  H   -0.56571444374248      0.29802872236472      1.49705361452936
  C   1.40195513983114     -0.39966092109942     -1.16156895919106
  N   1.62026367405507     -0.80849398493891     -2.24102140017081
  C   1.61762441180383      1.41480582068637      0.39288609740243
  N   1.99690847267609      2.51168691659636      0.57607571816125
  C   -1.06691920040347     -1.27420882978896      0.10881311322057
  H   -0.58426365194096     -2.08617199755123      0.65184905587646
  H   -0.99918274227765     -1.47534247557219     -0.96313722927257
  H   -2.12168106058575     -1.25713317329544      0.39343968074662
  N   -0.96810352942344      1.09675441228002     -0.45262178118083
  H   -0.99653749582557      2.00642092630962     -0.01172216015804
  H   -1.89115702253335      0.86212241515128     -0.79008536991756
