16

C	0.0	0.0	0.0
C	-0.563849	0.180552	-1.415195
Br	2.026784	0.0	0.0
H	-1.658419	0.129703	-1.217241
C	-0.322791	1.161533	0.835182
N	-0.506148	2.088507	1.533291
N	-0.491592	-1.166949	0.576381
H	-0.344064	-2.004533	0.034257
H	-0.304694	-1.282318	1.558745
C	-0.181285	-0.965531	-2.233838
N	0.125436	-1.8879	-2.89438
C	-0.199598	1.499748	-2.087078
H	-0.694485	1.556702	-3.058872
H	0.878344	1.594367	-2.230723
H	-0.56015	2.329914	-1.47688
Cl	-3.621093	0.0	0.0
