16

C	0.0	0.0	0.0
C	-0.32508	0.253328	-1.507946
Br	2.02074	0.0	0.0
H	0.09118	-0.61664	-2.034942
C	-0.337861	1.174714	0.807322
N	-0.57835	2.13317	1.443637
N	-0.569956	-1.170844	0.551007
H	-0.616869	-1.909864	-0.14014
H	-1.510453	-0.976032	0.895728
C	0.365153	1.437115	-2.027199
N	0.836844	2.39595	-2.515921
C	-1.819262	0.382044	-1.788374
H	-1.971728	0.496929	-2.864708
H	-2.249801	1.240914	-1.276387
H	-2.386039	-0.476897	-1.438366
Cl	-4.476974	0.0	0.0
