18
Coordinates from ORCA-job run
  C   0.82198542200198      0.49637466182488      0.18973831565508
  C   -0.64750653276768      0.31938164179580     -0.14800521300514
  F   1.05505548198713      1.76011317364381      0.65769687666379
  H   -0.87485665350886      1.14041036882200     -0.83535056264545
  N   1.60312907555123      0.47614335219093     -1.16485611870662
  O   1.34661753119043      1.37269888689041     -1.95886108753328
  O   2.38418708034510     -0.45498764704506     -1.34778389409541
  N   1.32773583432459     -0.42184662176290      1.11970357517417
  H   2.31232722967744     -0.25635480716830      1.28888029477423
  H   1.20868324727301     -1.37247731686366      0.79987355519530
  C   -1.49462620368020      0.46722829356137      1.11222565033312
  H   -2.55461185971643      0.46215934288266      0.84685672708377
  H   -1.27478047866120      1.40471731467273      1.62444591210612
  H   -1.30596841567313     -0.35230707261954      1.80745114582123
  C   -0.91161570626316     -1.00465273953701     -0.86200952223159
  H   -1.96288645770702     -1.05687878284754     -1.15267270222238
  H   -0.71824851114933     -1.86055611224457     -0.20876132135082
  H   -0.31462008322389     -1.11816593619602     -1.76957163101611
