18
Coordinates from ORCA-job run
  C   0.79504568574171      0.42110344444707      0.01532902680691
  C   -0.52141039427598     -0.31533263095222      0.21383405826376
  F   0.60002659538389      1.61315534914646     -0.60473436783842
  H   -0.27863140708457     -1.23514332551624      0.75809248020306
  N   1.63840536812206     -0.41985048451591     -0.97990117226335
  O   1.82443793262815     -0.00243731326653     -2.11411631653746
  O   2.03742414371421     -1.48761066280264     -0.51817211346674
  N   1.50431668424315      0.65145497151912      1.21542852372741
  H   2.33712775513021      1.20126453569615      1.03893458600818
  H   1.75952587427037     -0.22669540155338      1.64730356112367
  C   -1.15413317112680     -0.68538346214057     -1.12651306533503
  H   -0.56656608514812     -1.42751433732323     -1.67055436517489
  H   -1.26392613228626      0.19811277490465     -1.75925379074742
  H   -2.14643044602828     -1.10874071952113     -0.95867558595034
  C   -1.46018549820887      0.54552071474885      1.05661546919975
  H   -2.37213342591608     -0.01335417393097      1.27845753888511
  H   -1.74033481014338      1.44921321740184      0.51135537450845
  H   -0.99355866901542      0.84223750365866      1.99557015858735
