18
Coordinates from ORCA-job run
  C   0.90777042618349      0.18347753225404      0.21958481623150
  C   -0.49413386690895     -0.22292048567982     -0.23530634151072
  F   0.84349816645077      0.67777243393827      1.48243421748152
  H   -0.37569161582641     -0.61388585710363     -1.25195601569411
  N   1.36483202403877      1.31843574734100     -0.69326687121052
  O   1.58751388968379      0.97576008847420     -1.85193056269701
  O   1.44139693848877      2.44743539398515     -0.23482697538477
  N   1.96219741365620     -0.77523532988744      0.18237630935854
  H   1.79994862651693     -1.49739754996071      0.87117448319873
  H   2.04200702339703     -1.18080744329892     -0.74053717432910
  C   -1.43558228054103      0.98020140924757     -0.27173861364330
  H   -1.12569734262788      1.71958584382757     -1.01294037833970
  H   -2.44444584157054      0.65466030079430     -0.53444554535277
  H   -1.47678325800043      1.46968514910031      0.70340090725947
  C   -1.03702483486590     -1.32429758237469      0.67203314841324
  H   -1.14279006258344     -0.96384018656046      1.69741536838225
  H   -0.39526583729289     -2.20818278515573      0.67762235334104
  H   -2.02174956819829     -1.64044667894099      0.32190687449574
