18
Coordinates from ORCA-job run
  C   0.84570568465566      0.20120455533131      0.12270671712760
  C   -0.54982176760992     -0.20869207676769     -0.31229882712851
  F   0.75929796227613      0.90013793742806      1.32283230602738
  H   -0.46495884384008     -0.51389318963873     -1.35761818053226
  N   1.47551913987320      1.21624877431525     -0.84131282265863
  O   2.50279130493919      1.74889715256145     -0.43440854004741
  O   0.95362117561214      1.39234808023323     -1.93591202536467
  N   1.78000966719985     -0.84722223438018      0.17627294359626
  H   2.68077427136982     -0.49271872802266      0.47742488555564
  H   1.47397727626566     -1.57825585620177      0.80271282905876
  C   -1.53344496290081      0.95497907486489     -0.20023726545667
  H   -1.67968194839594      1.23963160653445      0.84293006383801
  H   -1.19757247441868      1.82935294057000     -0.75732518078852
  H   -2.49954802894506      0.65224115086984     -0.61014293142296
  C   -1.03167762050783     -1.39843657935246      0.52047345787388
  H   -0.95948552795160     -1.18256361887984      1.58998351666174
  H   -2.08053857139052     -1.60071418238306      0.29486240929500
  H   -0.47496673623121     -2.31154480708209      0.29905664436535
