18
Coordinates from ORCA-job run
  C   0.90600239879021      0.24878869046884      0.31482998300280
  C   -0.55195777399875     -0.17567151314713      0.45075530251663
  F   1.15662695531724      1.18627137815035      1.30183215507317
  H   -0.62445228618138     -0.43526601417419      1.51612972532282
  N   1.16127292567510      1.00372191351027     -0.99762689150199
  O   0.72108011179645      0.47793365335573     -2.01292110523184
  O   1.80360488479818      2.04505017405441     -0.93929630160609
  N   1.82694335395321     -0.81332464378960      0.33773817213132
  H   1.62780908399890     -1.44543941519872      1.10207223902357
  H   2.77519279778850     -0.46526036537502      0.42197768739527
  C   -0.94850001118546     -1.40081322374629     -0.36845091475919
  H   -0.27737832109665     -2.24369116504432     -0.19890483700778
  H   -1.95831949439399     -1.70673942131049     -0.08223831151684
  H   -0.94106093882112     -1.17726379286369     -1.43366894341774
  C   -1.48575238513608      1.00670155431057      0.19566368967089
  H   -1.51586988060697      1.25160166726891     -0.86847422846446
  H   -1.17496530227408      1.89237749386912      0.75202621361046
  H   -2.50027611842332      0.74902302966125      0.50655636575902
