12

C	-0.235753	-0.054598	-1.472114
C	0.0	0.0	0.0
Br	-2.119645	-0.031892	-2.069709
H	1.095855	0.0	0.0
H	0.217002	-0.928236	-1.933052
H	-0.372698	0.932188	0.425833
N	0.415159	1.130623	-2.134893
O	1.02827	0.906585	-3.174056
O	0.260174	2.22701	-1.611844
C	-0.543095	-1.154081	0.673734
N	-0.971375	-2.102223	1.221985
F	2.497796	0.0	0.0
