12

C	-0.267278	-0.088533	-1.463812
C	0.0	0.0	0.0
Br	-2.165008	-0.019077	-2.015054
H	1.098165	0.0	0.0
H	0.141716	-0.9899	-1.911691
H	-0.362094	0.943388	0.410306
N	0.404108	1.055117	-2.176384
O	0.987908	0.7796	-3.220434
O	0.29218	2.171264	-1.685593
C	-0.53931	-1.134141	0.710629
N	-0.955768	-2.065298	1.295912
F	2.496432	0.0	0.0
