11
Coordinates from ORCA-job run
  C   -0.71743419395369     -0.90602704688728     -0.03928384975594
  C   0.11660327623262      0.15996768374327      0.00883901607382
  H   -0.31460614080963     -1.89610843207732     -0.23402137342395
  C   -2.12606666610234     -0.80396978475304      0.15557971181413
  N   -3.29097387098268     -0.74301664876221      0.31330208882143
  C   -0.40800032252859      1.46975881641386      0.26585502284914
  N   -0.79347084108913      2.56234463302991      0.47504108884696
  C   1.59966367569349      0.05319491197772     -0.19742379908550
  H   1.89077644930115     -0.98105521082983     -0.38523904380693
  H   2.13286016742207      0.41752718254201      0.68427244079470
  H   1.90964846681673      0.66838389560291     -1.04592130312785
