11
Coordinates from ORCA-job run
  C   -1.10892539054363     -0.37419578729439      0.42745931354669
  C   -0.01643267143324      0.40469091469803      0.23478487054303
  H   -1.91739456364451     -0.04529762866950      1.07354004999740
  C   -1.24805133465877     -1.64747296936858     -0.20000070385435
  N   -1.37127199181293     -2.69861010572711     -0.71547533794271
  C   0.03043501593796      1.66909713178183      0.91068244143790
  N   0.09761385217709      2.71273784887604      1.45080769233984
  C   1.15653741228294      0.05416949735220     -0.63244548772710
  H   1.02288098522153     -0.92353745823543     -1.09608201719354
  H   1.28129957892751      0.80610474816556     -1.41586628700414
  H   2.07330910754605      0.04431380842134     -0.03740453414301
