11
Coordinates from ORCA-job run
  C   -1.20057140825012     -0.22080808528813      0.25391837798275
  C   -0.03773074628735      0.45705425670019      0.09383065381310
  H   -2.10317302132054      0.29329545242248      0.57046563972979
  C   -1.29373764708466     -1.62408699234965      0.01689838904683
  N   -1.37697728455717     -2.78203541561731     -0.17767234163035
  C   -0.04404156896562      1.86749460247488      0.35597928293511
  N   -0.01552345854254      3.02576296878299      0.56338805695973
  C   1.26603377281344     -0.14695849963411     -0.33782619656266
  H   1.16301928379940     -1.21829333965547     -0.51222034536959
  H   1.61502570920167      0.33164252583066     -1.25637136945111
  H   2.02767636919347      0.01793252633346      0.42860985254640
