11
Coordinates from ORCA-job run
  C   -0.75563282145406     -0.86808100460712     -0.10641600039454
  C   0.12500624865408      0.15232163629328      0.02483132249812
  H   -0.51020494331901     -1.71167067278233     -0.74552898407027
  C   -2.01788608392050     -0.90058265712994      0.55573489928382
  N   -3.06634863891092     -0.94979959376398      1.08850430023507
  C   -0.19232336048957      1.26980379394279      0.86590739480448
  N   -0.40840084401457      2.20607047210347      1.54627672076429
  C   1.45192713847096      0.18771493262964     -0.67630574362714
  H   1.59122824349404     -0.70545355277040     -1.28660824986953
  H   2.26439899129992      0.25000122826020      0.05190325469860
  H   1.51823607018962      1.06967541782439     -1.31829891432290
