11
Coordinates from ORCA-job run
  C   -0.76808976740654     -0.85513945797379     -0.12214206585592
  C   0.12653497553198      0.15095610695931      0.02502153192822
  H   -0.55056627731894     -1.67406316698321     -0.80211938707098
  C   -2.00752585586313     -0.90633899577932      0.58062939486245
  N   -3.03493619476690     -0.97184449948695      1.15156710255703
  C   -0.15475809065352      1.23385286485318      0.92191247346364
  N   -0.34605324402175      2.14462393958452      1.64306789417765
  C   1.43308794315011      0.20373013078998     -0.71208417236516
  H   2.26621807545906      0.23238192900834     -0.00540187803545
  H   1.54783477423138     -0.66689642652766     -1.35911206884092
  H   1.48825366165825      1.10873757555560     -1.32233882482055
