11
Coordinates from ORCA-job run
  C   -1.09800817469431     -0.36745410682095      0.46186565875432
  C   -0.02327764207403      0.41853405340016      0.20788696604782
  H   -1.90716749569136     -0.01278700132490      1.09330676015909
  C   -1.21732302740704     -1.68058211477756     -0.08150005272748
  N   -1.32190195464329     -2.76472557885902     -0.52802196081877
  C   0.00369274259504      1.72574116975128      0.79837493066362
  N   0.05552276926640      2.80358314870038      1.26864424879287
  C   1.15006065257242      0.03466232421662     -0.64470989238428
  H   1.25662202273820      0.73711673612390     -1.47524395632404
  H   1.03133127602820     -0.97300158491062     -1.04382023293596
  H   2.07044883130978      0.07891295450072     -0.05678246922720
