11
Coordinates from ORCA-job run
  C   -1.22168566959773     -0.19207757283762      0.15632573635773
  C   -0.02497273368434      0.44434998491650      0.14433182507483
  H   -2.12083471360477      0.32501028628200      0.47793181706191
  C   -1.35648930535597     -1.55270804382061     -0.24914574561627
  N   -1.47408288879040     -2.67541261582040     -0.58298711477893
  C   0.00838603877981      1.81382660085317      0.57030148364488
  N   0.06943233739983      2.93780121423169      0.91457312235448
  C   1.27811020666157     -0.16680500969453     -0.27932781760598
  H   1.99655150318533     -0.12613324328477      0.54336835887530
  H   1.70212961300312      0.39644804226892     -1.11457181198567
  H   1.14345561200357     -1.20529964309435     -0.58279985338228
