11
Coordinates from ORCA-job run
  C   -1.24096930948210     -0.09917243762975     -0.07542012192262
  C   -0.00065884049995      0.44196179139527     -0.15396831278181
  H   -2.11677984426498      0.47836093340069     -0.35585039177596
  C   -1.45253954388929     -1.43691505988527      0.37144335209758
  N   -1.63195422053325     -2.54059836213310      0.73938021316770
  C   0.11026471309476      1.79565236071185     -0.61612703218744
  N   0.23750462769909      2.90448219174083     -0.99014277404931
  C   1.27619503833737     -0.25993512038322      0.20382656079550
  H   1.08178524785324     -1.27843239806746      0.54071363266687
  H   1.94181171182341     -0.29179556607416     -0.66259019225480
  H   1.79434041986168      0.28539166692432      0.99673506624429
