11
Coordinates from ORCA-job run
  C   -0.76610381306784     -0.81962148840694     -0.27858014735349
  C   0.12504535880199      0.14529302673365      0.05163976013384
  H   -0.52204595687333     -1.53214206990100     -1.06156760015047
  C   -2.03257447219693     -0.96426016011002      0.35995425846264
  N   -3.08188309656749     -1.10566809156938      0.87421177648244
  C   -0.18883654363589      1.08776624292713      1.08593219650059
  N   -0.40362728354497      1.87982505511223      1.92999842543300
  C   1.46091758863249      0.29344584058291     -0.61676785539759
  H   1.54521544908212      1.27828400470157     -1.08301938579431
  H   1.59837768936494     -0.47273415933645     -1.38082166832178
  H   2.26451508000491      0.20881179926630      0.11902024000512
