11
Coordinates from ORCA-job run
  C   -1.08164135716414     -0.40160460208653      0.46875698165495
  C   -0.00987902770040      0.39803712949909      0.24648808184464
  H   -1.86119816777619     -0.10362216723612      1.16347261873181
  C   -1.23576214978694     -1.65719893420193     -0.18973284126385
  N   -1.36919065211211     -2.69567887134773     -0.72757531738705
  C   0.05445830988743      1.64170966692187      0.95849503016993
  N   0.13457844453390      2.66808928946731      1.52930090235014
  C   1.12321054108884      0.08907212269001     -0.68714424465583
  H   0.97731721566613     -0.87572151053246     -1.17371674860544
  H   1.20244174689613      0.86565210947115     -1.45215479078866
  H   2.06766509646736      0.07126576735533     -0.13718967205063
