11
Coordinates from ORCA-job run
  C   -1.08558018929803     -0.41175208743945      0.45424442297200
  C   0.00527629576872      0.37392077749960      0.28114336345051
  H   -1.84540443545888     -0.15264278445113      1.18539033421815
  C   -1.28685974069053     -1.60076667502494     -0.30731988490159
  N   -1.45850502078129     -2.58345315883165     -0.93228041278376
  C   0.11819422391559      1.55043500411992      1.09432907885058
  N   0.24078389860680      2.52328884680585      1.74550785922976
  C   1.11352105600513      0.11665351644799     -0.69683778956135
  H   0.93260717287272     -0.79734451383493     -1.26306006278311
  H   2.06634350649616      0.02634297804384     -0.16894862780099
  H   1.20162323256360      0.95531809666491     -1.39216828089018
