11
Coordinates from ORCA-job run
  C   -0.76076121129256     -0.87015373545337      0.03757378649214
  C   0.12424180047113      0.15404207573369     -0.00591819616756
  H   -0.39897713064000     -1.89451430562882      0.04440240846675
  C   -2.17325912653518     -0.68034895559693      0.07573577402717
  N   -3.34260631825674     -0.54891792764338      0.10687959804659
  C   -0.34673552988793      1.50861781914340     -0.01633363452911
  N   -0.68671836961819      2.63575432154703     -0.02700473246261
  C   1.61143810632060     -0.04530313489490     -0.04584246343172
  H   1.86067060738062     -1.10716806389840     -0.03431716281615
  H   2.02987370973478      0.40726693951970     -0.94840461344884
  H   2.08283346232346      0.43872496717199      0.81322923582335
