17
Coordinates from ORCA-job run
  C   0.68640062056806      0.15982354873046      0.22419612576589
  C   -0.80293392825667     -0.19992744668720      0.38338897562353
  Cl  1.16532998818960      0.58582273002564      2.00285352062415
  H   -0.89557834410643     -1.06100824074711      1.05239687969615
  N   0.78394604349406      1.24330158895259     -0.65281571110088
  H   1.72756553286213      1.58808555446029     -0.75977478650144
  H   0.13657488083988      1.98010193624081     -0.39856717494012
  C   1.60558612720894     -0.97883006026977     -0.16181901488127
  H   2.64153337857291     -0.64613724092654     -0.06922001554077
  H   1.41699621746628     -1.27417775023834     -1.19306031813082
  H   1.46302213695987     -1.83883681068185      0.49193250101583
  N   -1.31250610746947     -0.70416701324794     -0.94857425955794
  O   -2.03671232554451      0.02566041870546     -1.61659242858344
  O   -0.95142275873978     -1.83631386164076     -1.25801137715467
  N   -1.55686327594698      0.97217145751786      0.75091117892229
  H   -1.56919145751734      1.06792478696545      1.75699516044473
  H   -2.50174672858057      0.91650640284094      0.39576074429878
