17
Coordinates from ORCA-job run
  C   0.61470798491455      0.35386499232143      0.01894780394323
  C   -0.75487813052606     -0.34599400266562      0.00721843020670
  Cl  0.50921038529975      1.84997995787875      1.03079783183729
  H   -0.63268298499637     -1.30039041553795     -0.51208118647081
  N   0.94182482961754      0.77724276559490     -1.31487437597909
  H   0.79161583179068      0.03606337897703     -1.98887817614749
  H   1.90192682712934      1.09412750806392     -1.36008943846745
  C   1.63280517810859     -0.56105801477963      0.68717190577703
  H   2.59944706985147     -0.05509002932185      0.73388401524634
  H   1.74420876097814     -1.46935051936693      0.08680316106822
  H   1.32063983238461     -0.83285858653653      1.69433326185370
  N   -1.70119134876347      0.42590666502609     -0.91479153189625
  O   -1.71432185417144      0.08494208336787     -2.09544012050184
  O   -2.38286514063040      1.30952584596310     -0.40693438962890
  N   -1.27117639857144     -0.55609523961672      1.30768440588002
  H   -2.09778896594464     -1.13813757165948      1.28196185531545
  H   -1.49948187647084      0.32832118229162      1.74428654796386
