17
Coordinates from ORCA-job run
  C   0.63095649553572      0.20619422153400      0.32771685292622
  C   -0.90137543112444      0.07896295800841      0.27892522705555
  Cl  1.13175540406192     -0.28471472365737      2.02059166591973
  H   -1.32421515616418      0.68884630101603      1.08675910759607
  N   0.91600657369110      1.58350243387931      0.06448883612492
  H   0.58083778931740      2.17646967204114      0.81567668668077
  H   1.91300673915998      1.72952811559811     -0.03651043883437
  C   1.38247211771220     -0.67362325704712     -0.65108624677852
  H   2.45098522478749     -0.45955744888605     -0.56920222518005
  H   1.04237161341152     -0.46496393192419     -1.66544627539051
  H   1.22081484910236     -1.72611034823771     -0.43853769097476
  N   -1.36021508743922     -1.31535275689395      0.65390463560954
  O   -2.03050767022867     -1.40186637587887      1.68189708014822
  O   -1.06307834698739     -2.24211955490334     -0.09050994934719
  N   -1.36233759440805      0.36657246599128     -1.04560349944741
  H   -0.86804352116965      1.18355732278958     -1.38337650330642
  H   -2.35743399925810      0.55267490657075     -1.04968726280181
