17
Coordinates from ORCA-job run
  C   0.57140009513701      0.20069332651175      0.39779619621064
  C   -0.89296365019700     -0.29187903630188      0.36980558253183
  Cl  0.96140270711431      0.39869723088763      2.14787109012936
  H   -0.99218252381534     -1.17374854696040      1.00155795639612
  N   0.63271396856636      1.51901484270742     -0.19107958467783
  H   1.55970557988026      1.91112387993104     -0.07840623801855
  H   0.40791571459401      1.45576502805785     -1.17869997816891
  C   1.53896589178363     -0.82367434068039     -0.17577940742603
  H   2.56516260763344     -0.49048668359666     -0.01060447759037
  H   1.41216550066526     -1.80298495495115      0.29051090008843
  H   1.37919131067597     -0.92183325006643     -1.25238275261376
  N   -1.13967626415849     -0.82611384307885     -1.03505951674803
  O   -1.13772416848673     -0.00671888718485     -1.95144222317536
  O   -1.29548119728987     -2.03802858577181     -1.15870461571023
  N   -1.86374752752631      0.69801764605552      0.66634468244338
  H   -1.45677479487034      1.62089278170953      0.57052934003199
  H   -2.25007324970618      0.57226339273167      1.58874304629731
