17
Coordinates from ORCA-job run
  C   0.69535747249613      0.16771903963969      0.35536195077125
  C   -0.85010994050976      0.06403210921074      0.52239077672154
  Cl  1.41888234073161     -0.42776907651350      1.95439029263555
  H   -1.11514217245942      0.02751462961241      1.57838343324020
  N   1.03251617233956      1.51559663489882      0.07722962394717
  H   2.03556663826891      1.64810865079318      0.09063858756760
  H   0.58302669879017      2.16767588167131      0.70607105823858
  C   1.28134294902554     -0.73029634291264     -0.72208772744547
  H   2.35699283632560     -0.55484625908984     -0.78188443539678
  H   0.83113414835316     -0.49081963487360     -1.68710046990577
  H   1.12500078979445     -1.78373065031972     -0.49464831363895
  N   -1.26531396386661     -1.32101811661279      0.00975101031494
  O   -1.15225934483750     -2.25783610707006      0.79447049353922
  O   -1.65449889581440     -1.39374637029230     -1.15334709823707
  N   -1.52823187617175      1.12918239207740     -0.11703970839029
  H   -2.53125059909125      1.01921766513423     -0.04547885608490
  H   -1.26301325337445      1.21901555464668     -1.08810061787681
