17
Coordinates from ORCA-job run
  C   0.68478860579956      0.20106752810093      0.30892135297906
  C   -0.79515140552658     -0.18528967186668      0.51818656796456
  Cl  1.34318836408670      0.38554087877657      2.03155750116238
  H   -0.88048455244160     -0.89495110967084      1.33850346633931
  N   0.75000852104134      1.41386925408763     -0.41818602004254
  H   0.36388645145735      2.17638443100538      0.12523172592008
  H   1.70282227469268      1.63589936034484     -0.67631057694199
  C   1.52042303866998     -0.87498493490811     -0.35601006158197
  H   1.21739852108239     -0.98418388186478     -1.39892140481414
  H   2.57175857312339     -0.58331995652947     -0.32319799421137
  H   1.41213367864836     -1.83159339443903      0.15224685623642
  N   -1.24392871113775     -0.99099879290775     -0.70641588612548
  O   -1.09910649288447     -2.21014441792622     -0.64620368109070
  O   -1.69820595764494     -0.36557093960105     -1.66043210867900
  N   -1.59975816253684      0.96421606099570      0.72930147966960
  H   -2.48972261237512      0.71960531372658      1.14157675711130
  H   -1.76105013405448      1.42545427267631     -0.15884797389552
