17
Coordinates from ORCA-job run
  C   0.66778313282512      0.19261681641577      0.29338258690419
  C   -0.81214335324388     -0.20417919069120      0.38941826936816
  Cl  1.10991129151458      0.42091333564264      2.14990622005134
  H   -0.91807813418198     -1.08278962998576      1.03162617529701
  N   0.81263965042782      1.35270709558607     -0.42722018925514
  H   1.60682671920912      1.47769545602325     -1.02584889320770
  H   0.00368431453695      1.93524206886838     -0.56170867677006
  C   1.58399209659390     -0.92159734042825     -0.16629306208862
  H   1.39625376122492     -1.14625402415465     -1.21823572356557
  H   1.43442160072906     -1.82466695652925      0.42394528748149
  H   2.62107227702137     -0.60202105250125     -0.04883290963691
  N   -1.23481033452361     -0.70797828892495     -0.97729789092190
  O   -1.12686708775203     -1.92231202818478     -1.14684575120437
  O   -1.61827429013920      0.10321988340697     -1.81241630223443
  N   -1.60702980995597      0.94382762014435      0.71853896397539
  H   -2.59127224824701      0.70818550485257      0.74170947401506
  H   -1.32810958603917      1.27639073046010      1.63417242179208
