16

C	0.0	0.0	0.0
C	-0.42844	0.134419	-1.453413
F	1.412421	0.0	0.0
H	-1.493497	0.374089	-1.461385
H	0.133802	0.985319	-1.847672
N	-0.424923	1.147304	0.749626
H	-1.443656	1.094516	0.791168
H	-0.057571	1.075421	1.692741
N	-0.436606	-1.238067	0.566034
H	-0.001484	-2.024001	0.101025
H	-0.230972	-1.268069	1.554988
C	-0.170513	-1.120084	-2.280807
H	-0.312186	-0.915552	-3.345128
H	0.852988	-1.486095	-2.147265
H	-0.874772	-1.90754	-2.003142
Cl	-3.940799	0.0	0.0
