16

C	0.0	0.0	0.0
C	-0.45828	-0.356164	-1.399378
F	1.443113	0.0	0.0
H	-0.072629	-1.357071	-1.627409
H	-1.549337	-0.416253	-1.356273
N	-0.451985	1.299669	0.375114
H	-0.194663	1.476422	1.340744
H	-1.473863	1.25325	0.332137
N	-0.394826	-1.023689	0.919144
H	-0.084017	-0.783582	1.853995
H	0.030124	-1.90484	0.654752
C	0.012261	0.640589	-2.450332
H	-0.40685	1.626474	-2.251248
H	-0.308265	0.324386	-3.446969
H	1.101242	0.725767	-2.445126
Cl	-3.851213	0.0	0.0
