16

C	0.0	0.0	0.0
C	-0.446842	0.102768	-1.451482
F	1.415612	0.0	0.0
H	-1.537201	0.016371	-1.432067
H	-0.040621	-0.761505	-1.99191
N	-0.445374	1.037815	0.883263
H	-1.46379	0.952552	0.910894
H	-0.210586	1.942627	0.495067
N	-0.448063	-1.227228	0.557058
H	-0.11198	-2.009316	0.01346
H	-0.121102	-1.291088	1.511965
C	-0.000913	1.388611	-2.136383
H	1.080188	1.52683	-2.053501
H	-0.49973	2.258306	-1.701781
H	-0.264459	1.369458	-3.196987
Cl	-3.87976	0.0	0.0
