16

C	0.0	0.0	0.0
C	-0.218442	-0.320392	-1.498253
F	1.399289	0.0	0.0
H	0.393371	-1.215441	-1.667793
H	0.280821	0.492895	-2.034061
N	-0.495257	1.294569	0.338272
H	-1.477639	1.326612	0.06879
H	-0.47126	1.376878	1.349742
N	-0.434576	-0.992097	0.947288
H	-0.181206	-1.918031	0.620066
H	-1.451599	-0.939726	0.985935
C	-1.606509	-0.549832	-2.066832
H	-2.243763	0.328409	-2.002966
H	-2.143809	-1.340113	-1.545879
H	-1.506956	-0.830892	-3.121981
Cl	-4.013826	0.0	0.0
