17

C	0.0	0.0	0.0
C	-0.191248	0.285153	-1.533489
Cl	1.885476	0.0	0.0
H	0.552983	1.05099	-1.78767
C	-0.428374	1.171882	0.848497
H	0.021605	2.099512	0.48874
H	-1.519479	1.236303	0.796704
H	-0.119696	1.00209	1.881373
N	-0.525939	-1.218272	0.45926
H	-0.507156	-1.879171	-0.313193
H	-1.51208	-1.043149	0.677976
C	-1.447913	0.894939	-1.99707
N	-2.21614	1.486572	-2.662023
N	0.033883	-0.960662	-2.273839
H	1.031499	-1.095304	-2.383035
H	-0.39267	-0.905309	-3.189363
Cl	-3.648754	0.0	0.0
