17

C	0.0	0.0	0.0
C	-0.513325	-0.101124	-1.440972
Cl	1.788192	0.0	0.0
H	-1.608892	-0.082364	-1.333635
C	-0.433117	1.320894	0.626253
H	-0.039056	2.168187	0.06551
H	-1.52498	1.358135	0.636901
H	-0.060884	1.360783	1.654554
N	-0.468553	-1.177515	0.692457
H	-0.209158	-1.099671	1.67004
H	-1.492212	-1.130031	0.65016
C	-0.129836	-1.390991	-2.049735
N	0.167874	-2.366934	-2.632591
N	-0.100758	1.039307	-2.249012
H	0.84475	0.897732	-2.581186
H	-0.716593	1.115927	-3.050269
Cl	-3.68206	0.0	0.0
