17

C	0.0	0.0	0.0
C	-0.173577	-0.050389	-1.560526
Cl	1.921104	0.0	0.0
H	0.597934	0.609333	-1.973176
C	-0.417599	1.328834	0.578795
H	-0.103348	1.38496	1.622398
H	-1.509547	1.386292	0.518171
H	0.0319	2.154611	0.023647
N	-0.517049	-1.091781	0.701287
H	-0.511538	-1.897151	0.082948
H	-1.491294	-0.876469	0.927578
C	-1.408485	0.507338	-2.131648
N	-2.173665	1.071134	-2.82303
N	0.005592	-1.434987	-2.010426
H	-0.519646	-1.606064	-2.856998
H	0.986657	-1.59893	-2.190488
Cl	-3.675644	0.0	0.0
