17

C	0.0	0.0	0.0
C	-0.332979	0.182053	-1.528857
Cl	1.788471	0.0	0.0
H	0.447742	-0.352594	-2.082258
C	-0.514952	1.134247	0.864539
H	-0.062858	2.085305	0.587461
H	-1.602532	1.192763	0.756353
H	-0.274323	0.910014	1.905935
N	-0.486676	-1.246384	0.519069
H	-0.423164	-1.957782	-0.201363
H	-1.481274	-1.129903	0.713838
C	-0.185655	1.601494	-1.92271
N	-0.089512	2.706495	-2.313075
N	-1.595955	-0.430019	-1.888516
H	-2.372158	-0.150708	-1.277037
H	-1.848042	-0.160012	-2.831837
Cl	-4.085917	0.0	0.0
