17

C	0.0	0.0	0.0
C	-0.344748	-0.017133	-1.539233
Cl	1.78713	0.0	0.0
H	0.449214	-0.58929	-2.03029
C	-0.518765	1.2292	0.718146
H	-0.084562	2.142356	0.312394
H	-1.608236	1.26208	0.615306
H	-0.263227	1.144339	1.775703
N	-0.474512	-1.173185	0.679253
H	-1.472305	-1.041725	0.844279
H	-0.400852	-1.97161	0.057619
C	-0.247389	1.348273	-2.102501
N	-0.185025	2.408309	-2.607822
N	-1.586203	-0.712091	-1.802607
H	-1.814447	-0.64209	-2.787304
H	-2.380243	-0.340403	-1.26925
Cl	-4.088016	0.0	0.0
