17

C	0.0	0.0	0.0
C	-0.322998	-0.330015	-1.505827
Cl	1.788978	0.0	0.0
H	0.386977	-1.121546	-1.765622
C	-0.514036	1.35143	0.458315
H	-0.240275	1.511546	1.50485
H	-1.606417	1.341673	0.382543
H	-0.107881	2.167989	-0.14055
N	-0.487292	-1.12215	0.772942
H	-0.206139	-0.995162	1.740465
H	-1.507629	-1.057949	0.75246
C	0.021957	0.831321	-2.346251
N	0.294085	1.75656	-3.015745
N	-1.634772	-0.812652	-1.854199
H	-2.393893	-0.259702	-1.453221
H	-1.743409	-1.745079	-1.475167
Cl	-4.0557	0.0	0.0
