17

C	0.0	0.0	0.0
C	-0.342964	-0.044546	-1.524762
Cl	1.845876	0.0	0.0
H	0.171807	-0.934839	-1.911884
C	-0.546989	1.224857	0.690122
H	-0.209384	2.135766	0.194895
H	-1.640264	1.159821	0.663843
H	-0.214523	1.251595	1.730937
N	-0.514996	-1.181325	0.584054
H	0.03099	-2.00179	0.364146
H	-0.667752	-1.103611	1.578712
C	0.245014	1.112561	-2.218401
N	0.682647	2.047271	-2.77798
N	-1.741543	-0.136756	-1.860785
H	-2.235742	0.725671	-1.661462
H	-2.201649	-0.813524	-1.257286
Cl	-4.351422	0.0	0.0
