17

C	0.0	0.0	0.0
C	-0.319454	0.191161	-1.52893
Cl	1.792135	0.0	0.0
H	0.369295	-0.491196	-2.036873
C	-0.507806	1.130268	0.876223
H	-0.089992	2.09434	0.581895
H	-1.599561	1.157982	0.797995
H	-0.24025	0.933669	1.918211
N	-0.495338	-1.310235	0.358584
H	-0.216694	-1.513218	1.313616
H	-1.5157	-1.2356	0.359701
C	0.063443	1.553714	-1.944302
N	0.381854	2.632298	-2.280887
N	-1.643266	-0.106951	-2.011581
H	-2.385441	0.30458	-1.444969
H	-1.788659	-1.107402	-1.960115
Cl	-4.058465	0.0	0.0
