11

C	0.0	0.0	0.0
C	-0.488339	-0.361969	-1.373527
F	1.3841	0.0	0.0
H	-1.584569	-0.348478	-1.361463
H	-0.356079	-0.720116	0.733379
H	-0.363302	0.995645	0.257408
H	-0.088564	0.297703	-2.143287
N	-0.061432	-1.737199	-1.758669
O	0.202929	-1.932353	-2.945199
O	-0.036115	-2.602057	-0.886598
Br	-3.618688	0.0	0.0
