11

C	0.0	0.0	0.0
C	-0.504152	0.472401	-1.333034
F	1.384079	0.0	0.0
H	-1.601261	0.511956	-1.287847
H	-0.364761	-1.011642	0.179713
H	-0.349907	0.65691	0.792992
H	-0.165936	-0.154696	-2.156125
N	-0.006714	1.842509	-1.641069
O	0.290056	2.084827	-2.811706
O	0.045345	2.658919	-0.724942
Br	-3.666344	0.0	0.0
