14
Coordinates from ORCA-job run
  C   -0.98043411205261     -0.29729265307307      0.03961243346980
  C   0.55744150496511     -0.41424520558147     -0.05748400880097
  F   -1.51110733644045     -0.77035041628387     -1.14328282345079
  H   0.76032460361710     -1.48119624932953     -0.20909550840150
  C   -1.38951430587853      1.10615146412077      0.21282817899831
  N   -1.69125659668551      2.23525908184804      0.33144670236733
  C   -1.50075342939148     -1.11701531757880      1.14561654769357
  N   -1.89711085966293     -1.79622244686932      2.01845313512128
  C   1.14885028898894     -0.00246771967675      1.21552121866788
  N   1.63360216587005      0.35174312502090      2.22493637588775
  C   1.11089817881792      0.39997675390305     -1.22896008274885
  H   2.18410552422660      0.22612989374490     -1.31671608102500
  H   0.62961183394434      0.09188624243319     -2.15724389716403
  H   0.94634253968144      1.46764344732197     -1.07363219061478
