14
Coordinates from ORCA-job run
  C   -0.91600842965347      0.30726850678954      0.17908587836420
  C   0.52020929229027     -0.26278913515039      0.21548925590150
  F   -0.86690801341052      1.61671593351387     -0.24438604646118
  H   0.44640158362924     -1.29892904174778      0.56730748285337
  C   -1.53359833033984      0.25916051301906      1.51453965128476
  N   -2.00909393322152      0.19882764571805      2.58714162040627
  C   -1.73562789226956     -0.46816090184904     -0.76864182698630
  N   -2.36129468872855     -1.10734157509337     -1.52998065093254
  C   1.29758170084992      0.49959111344677      1.19504784964201
  N   1.94298135828631      1.11403071823523      1.95954325911653
  C   1.17843896453222     -0.21997290637527     -1.16674379794567
  H   1.21482200069549      0.80361265569791     -1.53937358878559
  H   2.19808416253499     -0.60017173986940     -1.09587487263782
  H   0.62601222480503     -0.84184178633520     -1.87315421381954
