14
Coordinates from ORCA-job run
  C   -0.86739349454081      0.05406574199580      0.45309033049585
  C   0.48560717712190     -0.35120449183385     -0.17506376113694
  F   -0.65383742519181      1.07323211865782      1.35420371467487
  H   0.28400560373552     -1.17250222967650     -0.87329774857062
  C   -1.48157782806895     -1.08498682356933      1.15496821669002
  N   -1.95786188068803     -2.01214028076302      1.69695963674017
  C   -1.78383565313067      0.53402212904211     -0.59611980537599
  N   -2.49742635456394      0.91535905436111     -1.44782837012305
  C   1.35488636095811     -0.85568526782922      0.89035698803007
  N   2.06738034476290     -1.23726247722707      1.74165428080961
  C   1.13805316400272      0.82167495176947     -0.91265721222912
  H   1.30687412165209      1.65413769656076     -0.22970886872703
  H   0.50596533080106      1.15450577413785     -1.73774437496442
  H   2.09916053314990      0.50578410437406     -1.31981302631340
