14
Coordinates from ORCA-job run
  C   -0.87796936603492     -0.20419717162963      0.60343008695871
  C   0.61777194734873     -0.36120445320423      0.25769760265455
  F   -1.07489252128311     -0.59622250545446      1.90820034368794
  H   0.85020504205985     -1.41902021357862      0.42829537586376
  C   -1.68464420811710     -1.06882282726351     -0.27532264901270
  N   -2.29512294717740     -1.77643003546186     -0.98702337445928
  C   -1.30668841498945      1.19609299353761      0.45169142504319
  N   -1.62380555815380      2.31854856934124      0.31114418590131
  C   1.40074302980986      0.43780309647729      1.20207532779512
  N   2.04490016557785      1.09178695469029      1.93420254154974
  C   0.92420399694053      0.02589349839334     -1.19110026549760
  H   1.98689006363637     -0.11814008254657     -1.38825550470280
  H   0.68161338635226      1.07443561807320     -1.37265495474166
  H   0.35779538403034     -0.59952344137408     -1.88338014104030
