14
Coordinates from ORCA-job run
  C   -0.98848497253972     -0.26966811024035      0.04405511470824
  C   0.54649536479557     -0.42881793693026     -0.03886002545078
  F   -1.52404128994497     -0.76925096780306     -1.12595383008054
  H   0.72242024089014     -1.50540223083116     -0.15101806835582
  C   -1.36307310005951      1.14853107540779      0.16630459678822
  N   -1.63485748886369      2.28881459904286      0.24239480753047
  C   -1.53503628670780     -1.03934126506990      1.17293079140125
  N   -1.95178580778264     -1.68164144174664      2.06409131125567
  C   1.14118136965803      0.01265501433448      1.22253589621187
  N   1.62827432537074      0.38913639168740      2.22271308395138
  C   1.12740994299708      0.32814472108753     -1.23516993360837
  H   0.99056552430566      1.40466364473301     -1.11913283411433
  H   2.19607963082347      0.12285456994012     -1.31027448743373
  H   0.64285254705763     -0.00067806361184     -2.15461642280354
