19

C	0.0	0.0	0.0
C	-0.498338	0.018927	-1.446274
F	1.389501	0.0	0.0
H	-1.579446	-0.16776	-1.468666
C	-0.487081	1.22347	0.753897
H	-1.57634	1.283315	0.688169
H	-0.204231	1.108665	1.803009
H	-0.019345	2.126177	0.36466
C	-0.456494	-1.27644	0.682136
H	-1.546491	-1.337609	0.655753
H	-0.017281	-2.154455	0.208217
H	-0.120645	-1.236027	1.721149
N	0.198356	-1.035792	-2.259776
O	-0.268372	-2.167531	-2.188398
O	1.189802	-0.703823	-2.902686
N	-0.254069	1.290996	-2.202653
O	0.67319	2.021064	-1.868441
O	-1.000476	1.471541	-3.163902
Br	-3.862081	0.0	0.0
