19

C	0.0	0.0	0.0
C	-0.277706	0.068264	-1.531486
F	1.398942	0.0	0.0
H	-0.2569	-0.924986	-1.970136
C	-0.491421	1.179317	0.799914
H	-1.583564	1.182246	0.809017
H	-0.119247	1.062882	1.821859
H	-0.119255	2.113893	0.383985
C	-0.508919	-1.317559	0.531163
H	-0.047724	-2.15117	-0.00508
H	-1.597865	-1.34522	0.419636
H	-0.261158	-1.400657	1.59208
N	0.835481	0.818075	-2.221739
O	1.487444	0.174846	-3.042754
O	1.010969	1.993007	-1.926406
N	-1.527536	0.716291	-2.057391
O	-2.13486	0.055446	-2.89578
O	-1.768705	1.861208	-1.702501
Br	-4.036619	0.0	0.0
