19

C	0.0	0.0	0.0
C	-0.548043	-0.001005	-1.43045
F	1.385943	0.0	0.0
H	-1.642597	0.123453	-1.379174
C	-0.472095	1.203369	0.796544
H	-1.562018	1.264376	0.760001
H	-0.159465	1.057235	1.83408
H	-0.027683	2.120177	0.41875
C	-0.466869	-1.285432	0.667257
H	-0.025225	-2.159101	0.184337
H	-0.133656	-1.269294	1.707284
H	-1.558181	-1.341573	0.641005
N	-0.27134	-1.301326	-2.119291
O	0.901509	-1.659839	-2.186425
O	-1.242546	-1.920322	-2.546473
N	0.004559	1.066037	-2.338464
O	0.277327	0.74595	-3.491576
O	0.079473	2.199964	-1.880367
Br	-3.88083	0.0	0.0
