19

C	0.0	0.0	0.0
C	-0.32347	-0.088646	-1.529086
F	1.384217	0.0	0.0
H	-0.482989	0.897272	-1.955071
C	-0.481218	1.335458	0.519167
H	-0.189161	1.431798	1.567922
H	-0.022151	2.14945	-0.048468
H	-1.571895	1.38548	0.446745
C	-0.478896	-1.157779	0.837754
H	-0.080359	-1.014013	1.846053
H	-1.570001	-1.16671	0.872267
H	-0.111625	-2.100949	0.43788
N	-1.456608	-0.931568	-2.053912
O	-1.617433	-2.04847	-1.58587
O	-2.036479	-0.446276	-3.022757
N	0.863634	-0.653518	-2.272263
O	1.195365	-1.804824	-2.022348
O	1.398414	0.094549	-3.08783
Br	-3.881833	0.0	0.0
