15

C	0.0	0.0	0.0
C	-0.498445	0.176619	-1.442705
F	1.393157	0.0	0.0
H	-1.599783	0.16491	-1.301604
H	-0.170925	1.134304	-1.85806
C	-0.448185	1.194403	0.820674
H	-0.019882	2.113699	0.411943
H	-0.093168	1.05519	1.843537
H	-1.53997	1.202289	0.781886
N	-0.502373	-1.195752	0.612035
H	-0.299072	-1.982622	0.001654
H	-1.527105	-1.026139	0.573996
C	-0.050402	-0.899099	-2.314051
N	0.308133	-1.78316	-3.00015
F	-2.894996	0.0	0.0
