15

C	0.0	0.0	0.0
C	-0.551087	-0.036641	-1.415563
F	1.417015	0.0	0.0
H	-0.315323	0.885655	-1.951745
H	-1.65245	-0.092462	-1.188909
C	-0.518294	1.228401	0.707892
H	-1.612121	1.087437	0.70493
H	-0.240276	2.141344	0.170931
H	-0.103842	1.266975	1.718885
N	-0.389155	-1.195281	0.695511
H	-0.832361	-1.004932	1.593529
H	0.434603	-1.772224	0.823009
C	-0.06718	-1.169767	-2.190358
N	0.3317	-2.057041	-2.84811
F	-2.937169	0.0	0.0
