15

C	0.0	0.0	0.0
C	-0.491501	-0.094837	-1.455124
F	1.393414	0.0	0.0
H	-0.157495	0.765863	-2.042545
H	-1.593551	-0.077653	-1.321604
C	-0.446579	1.328406	0.582395
H	-0.086836	1.385352	1.611535
H	-1.538495	1.330111	0.547872
H	-0.021835	2.154198	0.004669
N	-0.5092	-1.057766	0.82132
H	-1.533547	-0.893144	0.745732
H	-0.305459	-1.947327	0.373487
C	-0.044413	-1.318185	-2.106319
N	0.31535	-2.312857	-2.617911
F	-2.892113	0.0	0.0
