15

C	0.0	0.0	0.0
C	-0.488159	0.007804	-1.459373
F	1.393116	0.0	0.0
H	-0.145333	0.906027	-1.983876
H	-1.590202	0.018931	-1.331566
C	-0.447066	1.284743	0.672787
H	-0.086618	1.269502	1.703706
H	-0.023714	2.150831	0.154803
H	-1.539302	1.286243	0.637835
N	-0.510028	-1.110807	0.74737
H	-0.304486	-1.967649	0.239575
H	-1.534415	-0.941267	0.67997
C	-0.043936	-1.169664	-2.192215
N	0.312969	-2.129725	-2.768181
F	-2.892538	0.0	0.0
