15

C	0.0	0.0	0.0
C	-0.553365	-0.15719	-1.411216
F	1.420292	0.0	0.0
H	-1.650552	-0.147512	-1.199582
H	-0.26868	-1.123768	-1.825787
C	-0.40267	1.345528	0.587137
H	-1.494658	1.349584	0.584983
H	-0.005312	2.17539	0.000324
H	-0.018374	1.411428	1.612666
N	-0.49664	-1.11936	0.741089
H	-1.521641	-0.979314	0.660214
H	-0.243486	-0.980992	1.71639
C	-0.272437	0.908981	-2.342923
N	-0.229374	1.786314	-3.12557
F	-2.909988	0.0	0.0
