15

C	0.0	0.0	0.0
C	-0.519477	-0.14647	-1.429602
F	1.389626	0.0	0.0
H	-1.619465	-0.073421	-1.299537
H	-0.250245	-1.142047	-1.791315
C	-0.423474	1.337152	0.593001
H	-1.51568	1.328718	0.588621
H	-0.03707	1.406734	1.61518
H	-0.023889	2.174545	0.01383
N	-0.515833	-1.133931	0.719729
H	-1.540923	-0.986097	0.603893
H	-0.314155	-0.985301	1.705662
C	0.00175	0.861572	-2.340034
N	0.414601	1.673509	-3.081859
F	-2.899378	0.0	0.0
