19

C	0.0	0.0	0.0
C	-0.33782	-0.637723	-1.356736
F	1.367596	0.0	0.0
H	0.42431	-0.199451	-2.008086
N	-0.236726	1.558412	-0.048411
O	0.004284	2.138489	-1.101523
O	-0.548116	2.101976	1.009163
N	-0.592457	-0.576142	1.114624
H	-0.506329	0.041338	1.914245
H	-1.59094	-0.703109	0.925881
C	-1.690989	-0.36215	-1.992788
H	-2.511668	-0.879019	-1.50019
H	-1.641272	-0.696876	-3.034961
H	-1.945226	0.694401	-1.980124
C	-0.07688	-2.140624	-1.253473
H	0.912096	-2.352041	-0.838896
H	-0.827022	-2.623483	-0.624219
H	-0.135673	-2.585418	-2.250857
Cl	-4.241646	0.0	0.0
