19

C	0.0	0.0	0.0
C	-0.415515	0.212475	-1.45525
F	1.38414	0.0	0.0
H	-0.068345	-0.72788	-1.902969
N	-0.275852	1.226977	0.926203
O	-0.020764	1.036151	2.114113
O	-0.68915	2.277759	0.449136
N	-0.513155	-1.168402	0.569937
H	-1.51874	-1.203413	0.424718
H	-0.319373	-1.180402	1.564473
C	0.346897	1.348833	-2.143776
H	0.238383	1.229393	-3.226109
H	1.412443	1.339083	-1.90908
H	-0.068165	2.31752	-1.869316
C	-1.910465	0.34074	-1.705505
H	-2.074218	0.414456	-2.784847
H	-2.330382	1.228789	-1.235961
H	-2.509843	-0.491029	-1.343364
Cl	-4.753891	0.0	0.0
