19

C	0.0	0.0	0.0
C	-0.420761	-0.066401	-1.462346
F	1.37564	0.0	0.0
H	0.294555	0.597182	-1.959183
N	-0.250796	1.461441	0.532089
O	0.160601	2.380359	-0.168164
O	-0.788514	1.580786	1.629466
N	-0.557569	-0.96258	0.832941
H	-0.44397	-0.707643	1.806607
H	-1.557159	-1.026966	0.649521
C	-1.825395	0.436912	-1.751183
H	-2.02123	0.334453	-2.821833
H	-1.940362	1.490941	-1.494997
H	-2.618953	-0.096005	-1.223356
C	-0.209312	-1.490643	-1.977622
H	-0.958074	-2.168685	-1.564608
H	-0.308872	-1.499451	-3.066383
H	0.780856	-1.869585	-1.715172
Cl	-4.686437	0.0	0.0
