19

C	0.0	0.0	0.0
C	-0.41766	-0.122832	-1.463234
F	1.395891	0.0	0.0
H	-0.017872	-1.117741	-1.699499
N	-0.271586	1.398445	0.631055
O	-0.000332	1.481179	1.82801
O	-0.6923	2.314455	-0.065644
N	-0.495762	-1.016303	0.821265
H	-0.278534	-0.813927	1.790124
H	-1.50374	-1.087921	0.710194
C	0.284591	0.877933	-2.385936
H	-0.213533	1.845384	-2.362797
H	1.335407	1.013493	-2.127548
H	0.235611	0.495162	-3.409086
C	-1.918356	-0.132951	-1.71341
H	-2.401232	0.788964	-1.396265
H	-2.453465	-0.934406	-1.207259
H	-2.090643	-0.257842	-2.786746
Cl	-4.758025	0.0	0.0
