19

C	0.0	0.0	0.0
C	-0.409411	-0.354201	-1.421976
F	1.402122	0.0	0.0
H	0.315435	0.189145	-2.035224
N	-0.222522	1.533654	0.255055
O	0.084191	2.299777	-0.651235
O	-0.607314	1.865991	1.372766
N	-0.545043	-0.782849	1.006835
H	-0.438514	-0.331726	1.907583
H	-1.540367	-0.912305	0.834589
C	-1.808759	0.086344	-1.824637
H	-1.917951	1.170596	-1.780311
H	-2.609718	-0.331141	-1.213201
H	-1.982432	-0.221245	-2.860415
C	-0.204948	-1.854332	-1.63667
H	0.777753	-2.17949	-1.288698
H	-0.290494	-2.081646	-2.70292
H	-0.967118	-2.430856	-1.108512
Cl	-4.657719	0.0	0.0
