19

C	0.0	0.0	0.0
C	-0.520197	0.108394	-1.425474
F	1.359692	0.0	0.0
H	-1.551889	0.458469	-1.352945
N	-0.272578	1.321291	0.809053
O	-0.686653	2.324534	0.245409
O	0.002713	1.247642	2.006256
N	-0.498905	-1.09837	0.70557
H	-1.520884	-1.07946	0.620948
H	-0.2466	-1.008952	1.683693
C	-0.534566	-1.276991	-2.072481
H	-1.238982	-1.937304	-1.573331
H	-0.840397	-1.181295	-3.117468
H	0.456693	-1.735696	-2.041511
C	0.320937	1.064564	-2.26929
H	-0.122166	1.137286	-3.266891
H	1.342936	0.689936	-2.380754
H	0.353696	2.067737	-1.842374
Cl	-3.622729	0.0	0.0
