19

C	0.0	0.0	0.0
C	-0.5316	0.014692	-1.435019
F	1.363869	0.0	0.0
H	-1.590351	0.280665	-1.334448
N	-0.320386	1.355905	0.688324
O	0.295033	2.329369	0.253205
O	-1.111335	1.372493	1.619408
N	-0.48829	-0.998398	0.876729
H	-1.501336	-0.864183	0.953746
H	-0.324133	-1.901959	0.450167
C	-0.470195	-1.402961	-2.01036
H	0.535017	-1.830898	-1.916813
H	-0.722607	-1.374604	-3.073278
H	-1.196313	-2.057657	-1.526419
C	0.185292	0.993189	-2.363578
H	1.249622	0.751827	-2.442616
H	-0.257373	0.923775	-3.361667
H	0.095968	2.022528	-2.021343
Cl	-3.703089	0.0	0.0
