19

C	0.0	0.0	0.0
C	-0.522088	0.132167	-1.439136
F	1.361059	0.0	0.0
H	-0.789335	-0.894553	-1.718939
N	-0.243955	1.342645	0.781393
O	0.202031	2.36403	0.268365
O	-0.798433	1.277624	1.874278
N	-0.539793	-1.093447	0.67528
H	-1.526662	-1.187131	0.443238
H	-0.46598	-0.976474	1.678649
C	0.560999	0.609814	-2.406329
H	1.422107	-0.060315	-2.429363
H	0.131927	0.654506	-3.411103
H	0.902336	1.609047	-2.133932
C	-1.774401	0.999411	-1.55965
H	-1.512951	2.056776	-1.477073
H	-2.214202	0.828833	-2.545757
H	-2.558462	0.756946	-0.838903
Cl	-4.662287	0.0	0.0
