15

C	-0.446164	-0.039247	-1.504963
C	-0.051857	-0.160129	-0.036698
F	-1.842572	0.014828	-1.638052
H	1.019701	-0.387709	-0.027711
H	-0.131859	-0.95082	-2.029457
C	0.156895	1.194739	-2.126113
H	1.22661	1.23391	-1.901165
H	-0.306976	2.065816	-1.664608
H	-0.015175	1.20689	-3.205992
C	-0.78001	-1.268662	0.581248
N	-1.352838	-2.163513	1.083939
N	-0.221289	1.105695	0.674578
H	-0.563832	0.920377	1.611076
H	0.780484	1.411529	0.771212
H	2.420476	1.079706	0.468173
