15

C	-0.447144	-0.039924	-1.504454
C	-0.051734	-0.159617	-0.036295
F	-1.843577	0.013823	-1.636854
H	1.019717	-0.387386	-0.028609
H	-0.132903	-0.951806	-2.028438
C	0.155667	1.193574	-2.126933
H	-0.015946	1.204239	-3.206892
H	1.225264	1.233345	-1.90139
H	-0.308666	2.06513	-1.666759
C	-0.780132	-1.266789	0.583699
N	-1.35631	-2.157367	1.090107
N	-0.21976	1.106897	0.674136
H	0.782269	1.412388	0.768628
H	-0.560105	0.922033	1.611544
H	2.42103	1.079413	0.465419
