15

C	-0.447898	-0.079604	-1.501192
C	-0.047141	-0.157869	-0.032174
F	-1.844993	-0.031241	-1.630054
H	1.030414	-0.379793	-0.021227
H	-0.134259	-1.005072	-2.001179
C	0.150559	1.137181	-2.159719
H	1.221424	1.183325	-1.941915
H	-0.02716	1.119276	-3.238616
H	-0.311655	2.020433	-1.720268
C	-0.767071	-1.251965	0.619732
N	-1.337736	-2.132611	1.149354
N	-0.217064	1.126325	0.644766
H	0.784354	1.434377	0.735022
H	-0.562685	0.967419	1.584875
H	2.424654	1.086629	0.435404
