15

C	-0.380956	-0.033409	-1.491892
C	-0.004545	-0.14093	-0.016416
F	-1.773033	0.17563	-1.60109
H	1.064232	-0.384449	0.004119
H	-0.187116	-0.994914	-1.982173
C	0.339026	1.095614	-2.187231
H	0.250916	0.999047	-3.272864
H	-0.104288	2.046418	-1.886106
H	1.385585	1.116123	-1.862309
C	-0.77151	-1.240607	0.594556
N	-1.37207	-2.138519	1.056751
N	-0.106888	1.077166	0.761285
H	-0.80861	1.688054	0.359989
H	0.841433	1.493891	0.662343
H	2.520585	1.180513	0.089326
