15

C	-0.432975	-0.020321	-1.503524
C	0.148882	-0.068035	-0.093861
F	0.027436	1.150287	-2.123455
H	1.247137	-0.145986	-0.139354
H	-1.521895	0.081181	-1.435395
C	-0.036738	-1.189251	-2.377528
H	-0.422189	-1.044942	-3.389632
H	1.052202	-1.259276	-2.424045
H	-0.434137	-2.123619	-1.978148
C	-0.356885	-1.299373	0.534967
N	-0.777558	-2.302585	0.978644
N	-0.228125	1.089004	0.705786
H	0.643908	1.219734	1.293452
H	-0.180975	1.879548	0.066125
H	2.255283	1.084835	1.564233
