15

C	-0.459894	-0.176571	-1.346755
C	-0.080563	-0.267499	0.128573
F	-0.230599	-1.431527	-1.938375
H	0.969062	-0.602192	0.148424
H	0.249692	0.529427	-1.787146
C	-1.895069	0.216176	-1.590821
H	-2.079467	0.325205	-2.66267
H	-2.567127	-0.550944	-1.196832
H	-2.093042	1.159199	-1.082718
C	-0.910803	-1.2628	0.816628
N	-1.57821	-2.049761	1.378936
N	-0.238121	1.064799	0.707594
H	0.643118	1.540613	0.344523
H	-0.089404	0.982958	1.711076
H	2.073414	1.682745	-0.322458
