15

C	-0.43508	-0.068779	-1.514736
C	-0.054395	-0.165346	-0.041133
F	-1.830078	-0.015759	-1.661407
H	1.015934	-0.394707	-0.018743
H	-0.116915	-0.989203	-2.021177
C	0.175216	1.154147	-2.150569
H	0.015876	1.147221	-3.232466
H	1.242222	1.197351	-1.913822
H	-0.293719	2.033278	-1.709972
C	-0.790145	-1.261997	0.589022
N	-1.366883	-2.149072	1.100916
N	-0.228999	1.11266	0.646783
H	-0.576354	0.943607	1.584538
H	0.771868	1.42084	0.744091
H	2.416258	1.082615	0.458138
