16

C	0.0	0.0	0.0
C	-0.347158	0.040063	-1.515451
Br	1.912647	0.0	0.0
H	-1.267618	0.604349	-1.618965
H	0.445414	0.636045	-1.978785
N	-0.420708	1.31238	0.618231
O	-0.388454	1.449512	1.84009
O	-0.497968	2.257246	-0.180545
N	-0.39753	-1.20388	0.810185
O	-0.553129	-1.1088	2.022934
O	-0.318694	-2.279407	0.207953
C	-0.485399	-1.273078	-2.271838
H	0.398296	-1.90516	-2.183699
H	-0.633815	-1.024877	-3.330056
H	-1.348176	-1.837707	-1.921616
H	-2.017186	0.0	0.0
