14

C	-0.494279	0.006132	-1.447341
C	0.0	0.0	0.0
Br	0.2369	1.53083	-2.450511
H	1.095676	0.0	0.0
H	-1.579803	0.14001	-1.513867
C	-0.138328	-1.210316	-2.171889
N	0.088533	-2.193631	-2.77368
C	-0.530713	-1.193405	0.634118
N	-0.981414	-2.148128	1.155606
C	-0.42419	1.24984	0.768537
H	-1.503107	1.446697	0.723268
H	-0.131584	1.131919	1.813681
H	0.120188	2.108082	0.373044
F	2.524804	0.0	0.0
