14

C	-0.225179	-0.001331	-1.492126
C	0.0	0.0	0.0
Br	-2.143164	-0.071135	-2.062711
H	1.098238	0.0	0.0
H	0.219364	-0.89747	-1.927459
C	0.353829	1.175382	-2.132311
N	0.780899	2.123605	-2.678668
C	-0.503655	-1.220779	0.590518
N	-0.901239	-2.206793	1.095321
C	-0.487074	1.246941	0.721527
H	-1.571487	1.385905	0.649795
H	0.019451	2.119826	0.302188
H	-0.20687	1.181311	1.775257
F	2.500864	0.0	0.0
