14

C	-0.241616	0.0104	-1.488653
C	0.0	0.0	0.0
Br	-2.167982	-0.052602	-2.034515
H	1.098293	0.0	0.0
H	0.194971	-0.883117	-1.937114
C	0.330107	1.191487	-2.127209
N	0.755061	2.140901	-2.673014
C	-0.498301	-1.225244	0.58665
N	-0.890004	-2.215321	1.088086
C	-0.480869	1.240883	0.736484
H	-1.56721	1.373281	0.68781
H	0.01141	2.119171	0.311653
H	-0.177943	1.17133	1.783706
F	2.500554	0.0	0.0
