14

C	-0.310445	0.032965	-1.493072
C	0.0	0.0	0.0
Br	0.176831	-1.639629	-2.382536
H	1.095486	0.0	0.0
H	0.351855	0.782044	-1.933787
C	-1.702004	0.332581	-1.821435
N	-2.829725	0.576253	-2.047225
C	-0.617567	-1.120367	0.673292
N	-1.138849	-2.012587	1.235289
C	-0.380712	1.333745	0.647493
H	-1.449534	1.564242	0.594496
H	-0.072805	1.312298	1.694511
H	0.191855	2.127765	0.161988
F	2.533054	0.0	0.0
