13
Coordinates from ORCA-job run
  C   -0.77970892136186      0.35944374958242      0.45843014594909
  C   0.56001075890609      0.61724520577786     -0.20521135054376
  Cl  -1.74005952345806      1.94125890090825      0.41120560159584
  H   0.38193518642101      0.87848317543276     -1.25444146389132
  H   -0.65681353513922      0.17209333459999      1.52592610109886
  H   1.01242757602866      1.49561850547278      0.26073607416478
  N   -1.46580567036749     -0.72960040380405     -0.13283437826759
  H   -2.34022005401525     -0.92430963000925      0.33637643796592
  H   -1.65287608856052     -0.55282988855823     -1.11228126140634
  C   1.49046087341062     -0.58660908670025     -0.09643120823408
  H   1.06580571296531     -1.45838888788172     -0.59307257276635
  H   1.66442378164790     -0.85037196681816      0.95020875349848
  H   2.45941990352282     -0.36303300800241     -0.54861087916353
