13
Coordinates from ORCA-job run
  C   -0.85389682783373      0.55142376345502      0.19509617884360
  C   0.55767246313316      0.21493217384459      0.64851706279697
  Cl  -0.82384584093992      1.87557728358552     -1.02399072895258
  H   0.46455843377399     -0.49841325726671      1.47830231709042
  H   -1.40881627345602      0.98689750885957      1.03485739793854
  H   1.00415911978280      1.12135134629147      1.06609302368326
  N   -1.48936218782130     -0.59607065516447     -0.40838898413868
  H   -1.47496671028768     -1.36831199049397      0.24858688392309
  H   -2.45355504146731     -0.38807043797563     -0.63714906274088
  C   1.44773713844102     -0.36663373766169     -0.44325491059880
  H   2.43353442506303     -0.60568740502906     -0.03802239991854
  H   1.57991767337159      0.34721870452760     -1.25691981333739
  H   1.01486362824038     -1.27421329697225     -0.86272696458902
