16

C	-0.278604	-0.004849	-1.517099
C	0.0	0.0	0.0
Br	-0.338756	2.051235	-2.243318
H	1.094174	0.0	0.0
N	0.730544	-0.711425	-2.113395
H	0.710077	-0.774723	-3.119248
H	1.654321	-0.525989	-1.693372
C	-1.620311	-0.425602	-1.909703
N	-2.694657	-0.807376	-2.194581
N	-0.434705	-1.288345	0.50343
H	-1.266454	-1.155608	1.06635
H	0.309903	-1.686288	1.063744
N	-0.635813	1.077882	0.7413
H	-0.180229	1.080442	1.650544
H	-0.397586	1.961239	0.305676
H	2.895789	0.0	0.0
