16

C	-0.28638	-0.039311	-1.490072
C	0.0	0.0	0.0
Br	-2.296896	0.069467	-1.809029
H	1.105505	0.0	0.0
N	0.338197	1.037282	-2.206835
H	0.084667	1.864449	-1.669475
H	1.342867	0.902375	-2.035502
C	0.100192	-1.328489	-2.0706
N	0.407462	-2.365162	-2.532082
N	-0.474765	-1.140596	0.758714
H	0.307998	-1.769599	0.905708
H	-1.205911	-1.644446	0.268374
N	-0.408633	1.294814	0.521276
H	-1.255908	1.166524	1.061027
H	0.323006	1.59025	1.160633
H	2.759474	0.0	0.0
