16

C	-0.256469	-0.072187	-1.496266
C	0.0	0.0	0.0
Br	-2.250086	0.078324	-1.870428
H	1.102085	0.0	0.0
N	0.419546	0.966472	-2.222323
H	1.412335	0.810999	-2.002168
H	0.170709	1.81794	-1.720822
C	0.107101	-1.387991	-2.032638
N	0.401385	-2.438885	-2.469446
N	-0.49467	-1.121071	0.776089
H	-1.195435	-1.650556	0.270374
H	0.287644	-1.733947	0.977901
N	-0.407085	1.309616	0.482528
H	-1.266053	1.19978	1.006267
H	0.312037	1.617873	1.129157
H	2.767147	0.0	0.0
