16

C	-0.224425	0.091446	-1.489936
C	0.0	0.0	0.0
Br	-2.193882	0.632881	-1.935073
H	1.108418	0.0	0.0
N	0.651018	1.072808	-2.018561
H	0.769743	0.972949	-3.018915
H	1.560806	0.950447	-1.539082
C	-0.131185	-1.219981	-2.145587
N	0.029347	-2.189637	-2.793815
N	-0.538795	-1.219173	0.553872
H	0.154388	-1.605488	1.187044
H	-1.352183	-0.971692	1.10535
N	-0.385899	1.213225	0.710642
H	0.466299	1.700027	0.974848
H	-0.90781	1.827393	0.095873
H	2.72266	0.0	0.0
