16

C	-0.434192	-0.037438	-1.474829
C	0.0	0.0	0.0
Br	-0.04774	1.680368	-2.345212
H	1.096305	0.0	0.0
N	0.265458	-1.070014	-2.214715
H	1.256655	-0.858707	-2.076088
H	0.099197	-1.914134	-1.669047
C	-1.886719	-0.23286	-1.556672
N	-3.049229	-0.406662	-1.516163
N	-0.347699	-1.322747	0.536854
H	-1.21919	-1.290158	1.054659
H	0.400722	-1.601791	1.164819
N	-0.484977	1.155091	0.715509
H	-1.371083	0.970252	1.172206
H	0.20538	1.411204	1.413369
H	2.836384	0.0	0.0
