16

C	-0.572631	0.099153	-1.420708
C	0.0	0.0	0.0
Br	0.248844	-1.387491	-2.55713
H	1.095301	0.0	0.0
N	-1.985156	-0.007748	-1.366509
H	-2.398031	-0.110857	-2.284664
H	-2.179662	-0.815725	-0.778068
C	-0.179804	1.332363	-2.101881
N	0.055519	2.342751	-2.654131
N	-0.54735	-1.231384	0.59266
H	-0.627243	-1.021766	1.580851
H	0.172479	-1.943502	0.498258
N	-0.415861	1.148366	0.784613
H	0.348941	1.813975	0.788576
H	-1.252183	1.581029	0.412814
H	2.842549	0.0	0.0
