18

C	0.0	0.0	0.0
C	-0.458303	-0.060546	-1.462816
F	1.388837	0.0	0.0
H	-1.55146	-0.043345	-1.372487
C	-0.340547	1.330478	0.599983
N	-0.499175	2.365946	1.131969
N	-0.557386	-1.080045	0.736907
H	-1.593346	-0.879253	0.573854
H	-0.366807	-0.928551	1.723509
C	0.016785	-1.367077	-2.09245
H	-0.382244	-1.454845	-3.10865
H	1.109894	-1.403578	-2.150501
H	-0.324306	-2.220198	-1.506603
C	0.041374	1.142461	-2.254672
H	-0.280053	1.060455	-3.298073
H	1.134653	1.202303	-2.241634
H	-0.359821	2.078062	-1.856889
F	-2.79652	0.0	0.0
