18

C	0.0	0.0	0.0
C	-0.381242	-0.057768	-1.518203
F	1.388106	0.0	0.0
H	0.599575	-0.001889	-2.006307
C	-0.321967	1.337534	0.596189
N	-0.457233	2.358189	1.162382
N	-0.553301	-1.06109	0.760965
H	-1.585843	-0.86526	0.612028
H	-0.346821	-0.886026	1.740497
C	-1.231567	1.113955	-2.009161
H	-1.374966	1.025163	-3.092836
H	-0.755692	2.079734	-1.812063
H	-2.187534	1.053676	-1.48234
C	-1.034665	-1.381345	-1.906397
H	-2.018653	-1.415938	-1.43911
H	-1.141113	-1.422112	-2.997095
H	-0.44149	-2.237774	-1.579741
F	-2.810854	0.0	0.0
