18

C	0.0	0.0	0.0
C	-0.453424	0.179876	-1.451536
F	1.413241	0.0	0.0
H	-1.54494	0.23369	-1.355401
C	-0.322355	1.215647	0.809433
N	-0.460268	2.15107	1.506738
N	-0.554722	-1.181868	0.555319
H	-1.590444	-0.960056	0.414499
H	-0.381986	-1.176493	1.55594
C	-0.051095	-1.041861	-2.272058
H	1.036897	-1.164541	-2.28961
H	-0.401506	-0.927921	-3.30364
H	-0.490166	-1.946359	-1.852458
C	0.107838	1.460326	-2.059405
H	-0.205368	2.342613	-1.495176
H	-0.26013	1.574575	-3.084371
H	1.201974	1.441294	-2.090961
F	-2.790974	0.0	0.0
