18

C	0.0	0.0	0.0
C	-0.374835	0.385484	-1.468689
F	1.419223	0.0	0.0
H	0.608082	0.528304	-1.933257
C	-0.300895	1.102372	0.963458
N	-0.445381	1.934474	1.77987
N	-0.540761	-1.240579	0.415289
H	-1.574383	-1.018075	0.326428
H	-0.335092	-1.361509	1.403265
C	-1.159099	1.693384	-1.580473
H	-1.35297	1.911801	-2.636801
H	-0.608811	2.540205	-1.15979
H	-2.099137	1.54367	-1.044763
C	-1.10764	-0.729287	-2.212488
H	-0.588413	-1.685698	-2.124157
H	-1.179689	-0.463394	-3.273683
H	-2.103812	-0.808933	-1.775983
F	-2.796197	0.0	0.0
