18

C	0.0	0.0	0.0
C	-0.355078	-0.17134	-1.530986
F	1.386128	0.0	0.0
H	0.625225	-0.212031	-2.020998
C	-0.367501	1.357184	0.487404
N	-0.491563	2.460818	0.86663
N	-0.529359	-0.934827	0.934308
H	-0.364309	-1.866151	0.566217
H	-1.559314	-0.733601	0.824411
C	-1.145872	1.000911	-2.110505
H	-0.593846	1.941635	-2.032179
H	-2.080707	1.061068	-1.549006
H	-1.351161	0.819022	-3.171601
C	-1.09795	-1.476264	-1.807491
H	-0.521381	-2.358767	-1.507373
H	-1.28474	-1.565611	-2.883335
H	-2.045436	-1.41983	-1.267959
F	-2.787981	0.0	0.0
