18

C	0.0	0.0	0.0
C	-0.382147	-0.083248	-1.516911
F	1.398934	0.0	0.0
H	0.599916	-0.084712	-2.005171
C	-0.312545	1.346521	0.574196
N	-0.449192	2.406246	1.062597
N	-0.548064	-1.05332	0.774585
H	-1.580943	-0.866592	0.621391
H	-0.345651	-0.864337	1.752795
C	-1.171352	1.124897	-2.022454
H	-1.389965	0.996156	-3.088955
H	-2.100989	1.160718	-1.449982
H	-0.609434	2.055656	-1.905075
C	-1.104929	-1.37845	-1.882426
H	-0.563359	-2.254663	-1.522335
H	-1.191866	-1.443453	-2.973623
H	-2.095868	-1.339833	-1.43018
F	-2.808883	0.0	0.0
