18

C	0.0	0.0	0.0
C	-0.376198	0.185703	-1.507057
F	1.415295	0.0	0.0
H	0.606791	0.276768	-1.985853
C	-0.307911	1.222017	0.804635
N	-0.45887	2.154958	1.502445
N	-0.544241	-1.172236	0.577923
H	-0.338975	-1.158315	1.573307
H	-1.577888	-0.9603	0.460073
C	-1.171386	1.460504	-1.793199
H	-2.103629	1.38917	-1.228744
H	-0.614128	2.358848	-1.508491
H	-1.38134	1.523459	-2.867347
C	-1.090932	-1.029051	-2.096057
H	-1.173829	-0.901632	-3.1817
H	-0.548054	-1.95412	-1.891888
H	-2.084055	-1.073724	-1.647635
F	-2.799162	0.0	0.0
