15

C	0.0	0.0	0.0
C	-0.298162	-0.242539	-1.495737
Br	1.947156	0.0	0.0
H	0.387853	0.38804	-2.062218
H	0.000539	-1.278598	-1.685435
N	-0.385574	1.419808	0.39025
O	-0.494358	1.654655	1.586364
O	-0.486105	2.233896	-0.520211
C	-0.55044	-1.003034	0.972197
H	-0.201057	-0.788828	1.980907
H	-0.224008	-2.00178	0.674567
H	-1.643645	-0.92773	0.923138
C	-1.597947	-0.026256	-2.143922
N	-2.324503	0.110621	-3.059683
Cl	-3.605059	0.0	0.0
