15

C	0.0	0.0	0.0
C	-0.300346	-0.159118	-1.508168
Br	1.946924	0.0	0.0
H	0.412796	0.46852	-2.044298
H	-0.047471	-1.197039	-1.747356
N	-0.380674	1.397547	0.46739
O	-0.50007	1.564639	1.673563
O	-0.465343	2.262425	-0.396873
C	-0.561344	-1.055171	0.9074
H	-0.234418	-2.035908	0.553162
H	-0.223902	-0.900106	1.931585
H	-1.654414	-0.973519	0.848769
C	-1.584909	0.149793	-2.147684
N	-2.332372	0.39304	-3.022597
Cl	-3.627741	0.0	0.0
