15

C	0.0	0.0	0.0
C	-0.565952	-0.277895	-1.385699
Br	1.945411	0.0	0.0
H	-1.664103	-0.208638	-1.272465
H	-0.230978	0.479777	-2.094133
N	-0.364413	1.442926	0.372674
O	-0.465183	1.698091	1.564877
O	-0.461974	2.248856	-0.5453
C	-0.510648	-0.952545	1.051643
H	-0.215168	-1.968313	0.782422
H	-1.602281	-0.872553	1.062656
H	-0.102865	-0.70173	2.028806
C	-0.190451	-1.603253	-1.857869
N	0.11845	-2.669368	-2.240919
Cl	-3.674119	0.0	0.0
