15

C	0.0	0.0	0.0
C	-0.566486	-0.278464	-1.384664
Br	1.945749	0.0	0.0
H	-1.66497	-0.209809	-1.271052
H	-0.23208	0.479546	-2.093276
N	-0.36484	1.442364	0.373717
O	-0.463701	2.248546	-0.544036
O	-0.464981	1.697338	1.565984
C	-0.508384	-0.953177	1.052175
H	-1.600318	-0.875715	1.064893
H	-0.099409	-0.701686	2.028353
H	-0.211228	-1.96848	0.782912
C	-0.18949	-1.602766	-1.858755
N	0.115508	-2.664601	-2.256342
Cl	-3.67459	0.0	0.0
