14

C	-0.466815	-0.046807	-1.441329
C	0.0	0.0	0.0
F	-0.350472	1.185313	-2.088776
H	1.095712	0.0	0.0
H	0.13444	-0.769056	-2.0013
H	-1.529215	-0.327144	-1.497276
N	-0.373841	-1.253981	0.672815
H	-1.237378	-1.63492	0.295697
H	0.370824	-1.925104	0.514814
C	-0.556609	1.194591	0.746098
H	-1.653697	1.161623	0.794488
H	-0.166631	1.183375	1.765549
H	-0.255942	2.126923	0.263755
H	3.027966	0.0	0.0
