14

C	-0.512696	0.175835	-1.435561
C	0.0	0.0	0.0
Cl	-0.021883	-1.212623	-2.43355
H	1.101492	0.0	0.0
H	-0.054726	1.063978	-1.869507
C	-1.969832	0.312153	-1.457888
N	-3.137685	0.445098	-1.432803
N	-0.486603	-1.167187	0.649456
H	0.278238	-1.606052	1.140757
H	-1.214346	-0.932991	1.314142
N	-0.378993	1.280547	0.733487
O	-0.191859	2.337251	0.135529
O	-0.831534	1.182043	1.873303
Br	3.388004	0.0	0.0
