14

C	-0.399693	-0.024125	-1.479237
C	0.0	0.0	0.0
Cl	-2.167188	-0.313272	-1.691506
H	1.091903	0.0	0.0
H	0.103421	-0.894329	-1.907925
C	-0.028591	1.156897	-2.251008
N	0.21958	2.070452	-2.946624
N	-0.403671	-1.126761	0.7587
H	0.334969	-1.814144	0.784854
H	-1.295191	-1.518834	0.49882
N	-0.540563	1.26867	0.609445
O	0.022127	2.312924	0.284916
O	-1.520921	1.182938	1.34621
Br	3.38212	0.0	0.0
