14

C	-0.57152	-0.04895	-1.416341
C	0.0	0.0	0.0
Cl	-0.04938	1.361344	-2.377264
H	1.09005	0.0	0.0
H	-1.661796	0.004331	-1.355387
C	-0.202568	-1.287621	-2.094098
N	0.018348	-2.274452	-2.690671
N	-0.496832	-1.112873	0.741209
H	0.116404	-1.317436	1.518872
H	-1.447306	-0.959823	1.056651
N	-0.488355	1.318281	0.584273
O	0.323874	2.113716	1.035783
O	-1.715365	1.464258	0.604846
Br	3.46121	0.0	0.0
