14

C	-0.492416	-0.002867	-1.4429
C	0.0	0.0	0.0
Cl	-0.004545	-1.532887	-2.23003
H	1.101396	0.0	0.0
H	0.002426	0.79791	-1.988829
C	-1.943074	0.148982	-1.53496
N	-3.104959	0.290778	-1.625129
N	-0.607073	-1.060997	0.772482
H	-0.37441	-0.888273	1.74434
H	-0.133471	-1.920737	0.507771
N	-0.386541	1.314514	0.612822
O	-0.466863	2.288463	-0.135435
O	-0.535893	1.345481	1.830493
Br	3.415486	0.0	0.0
