15
Coordinates from ORCA-job run
  C   0.80972319715439      0.22027270559346      0.36858957626342
  C   -0.71474069098336      0.06497659363313      0.43578923993157
  H   1.05978109082325      1.24922157192065      0.64439913549947
  H   -1.09712525981838      0.36845973555748      1.41453404404888
  N   1.23941733264823     -0.11835928494425     -0.99196622296473
  H   1.37737790431389      0.73039908941030     -1.52606572264501
  H   2.10960765734304     -0.63310674769014     -0.98757538248663
  C   1.42440546699757     -0.67550681299609      1.34974127513507
  N   1.95530620140050     -1.37257442596305      2.13060870630579
  N   -1.10290602714697     -1.24200583920293      0.10126482051092
  H   -2.10600412900270     -1.35822185332619      0.10023625357413
  H   -0.72343469724049     -1.48636801586203     -0.80531862806899
  N   -1.27291074074735      1.15266005120058     -0.52237405835217
  O   -2.14218935559103      0.81432065909192     -1.31610288385377
  O   -0.81530795015059      2.28683257357716     -0.39576015289794
