15
Coordinates from ORCA-job run
  C   0.82205400734276      0.24694614990246      0.32332107171528
  C   -0.69182162615133      0.02645418363939      0.39824911592421
  H   1.02050259072933      1.29531186479045      0.55647583762297
  H   -1.04455955638341      0.12284015929822      1.42773794339087
  N   1.26074692782576     -0.02659258088002     -1.03817737586126
  H   2.11002019972464      0.48137036861536     -1.24694147837175
  H   1.45282147366100     -1.01447636421878     -1.15282444679955
  C   1.48160388596328     -0.58314073655596      1.34601295148887
  N   2.03608314393241     -1.25377001823266      2.13477717972888
  N   -1.05177327021361     -1.22096659302752     -0.15621930808444
  H   -2.01505508775817     -1.45425476548743      0.03998379077331
  H   -0.92595940617180     -1.19718711858977     -1.16057711135963
  N   -1.33001658821634      1.23274515664724     -0.32499174921784
  O   -2.08672037465176      1.00234295998876     -1.26036748642682
  O   -1.03892631963276      2.34137733411026      0.11354106547690
