13

C	0.0	0.0	0.0
C	-0.539506	-0.017236	-1.416734
Cl	1.802476	0.0	0.0
H	-0.171015	-0.883712	-1.970615
H	-1.638186	-0.055563	-1.303269
H	-0.239726	0.900524	-1.929751
C	-0.539496	1.190452	0.76829
H	-0.239759	2.113059	0.264026
H	-0.170969	1.19855	1.79662
H	-1.63818	1.073968	0.740412
C	-0.35497	-1.251956	0.691979
N	-0.51979	-2.270424	1.254921
H	-3.270623	0.0	0.0
