16
Coordinates from ORCA-job run
  C   0.58735300868776      0.29633914530854      0.56790008174178
  C   -0.59680581893303     -0.57953981933091      0.18415633953178
  H   0.54475806129956      0.63400188174706      1.59963792345778
  H   -0.72089119953407     -1.31040588992800      0.98765619027309
  N   0.72830113843077      1.51722616240185     -0.28190526060264
  O   0.10601267917612      1.55293548757754     -1.34090652814846
  O   1.47638591931386      2.37950093214881      0.16120260873469
  N   1.82973046958518     -0.53574959381777      0.40836574193144
  O   1.93805144101804     -1.42403446046505      1.24354273659224
  O   2.57877520718436     -0.28623514387818     -0.52324385194759
  N   -0.43411658828890     -1.23361966979601     -1.04806443165350
  H   -0.46170297950266     -0.58780640401501     -1.82475167252499
  H   -1.11146470399725     -1.97012498376580     -1.17956292135088
  N   -1.85302451402751      0.31440528146752      0.30617337068368
  O   -1.87129503190815      1.09456221441444      1.25432479519449
  O   -2.74106708850408      0.13854485993098     -0.51452512191289
