16
Coordinates from ORCA-job run
  C   0.67527262613950      0.30480882096274      0.44022880462620
  C   -0.61983892616736     -0.46937834521534      0.20912186202048
  H   0.67702883736864      0.88159253611132      1.36327589475092
  H   -0.63756094547505     -1.31479497542874      0.90557957321718
  N   0.85645405683891      1.26126080454995     -0.70535914777771
  O   -0.01128429028504      2.12319130797481     -0.75304408919272
  O   1.81454834057540      1.12026796330200     -1.44669334889099
  N   1.84904965032466     -0.61518190507569      0.47633681020948
  O   2.87690983903433     -0.13890446075045      0.94541249749043
  O   1.69599747780535     -1.75796639955855      0.05006922816174
  N   -0.77764000492971     -0.80929356844816     -1.17038959499253
  H   -0.53296776610922     -1.77623513528044     -1.32731212407099
  H   -1.72888638589188     -0.62994816696827     -1.46698365949235
  N   -1.76547987399446      0.40972736118441      0.69388312009262
  O   -2.73450725086174      0.55103374643873     -0.03916906447594
  O   -1.63709538437232      0.86082041620167      1.82504323832418
