16
Coordinates from ORCA-job run
  C   0.56465759159418      0.29120531929902      0.54085111485928
  C   -0.67207279039582     -0.55089808408517      0.19975032386728
  H   0.59995571310138      0.60139561165308      1.58128748102799
  H   -0.77424341879396     -1.28244339574984      1.00474751564163
  N   0.68743550004661      1.52260126848691     -0.29225485568082
  O   0.07235595784229      1.54679967838502     -1.35617216467451
  O   1.41731410303684      2.39787516823138      0.15719900621672
  N   1.76162408398141     -0.57299693818595      0.27732239787910
  O   1.88884910482254     -1.50259853460447      1.06603244074885
  O   2.45669116919310     -0.32548222214911     -0.69904000991043
  N   -0.71780784572413     -1.18975393059823     -1.04117671115582
  H   -0.38412621322759     -0.65712937347033     -1.82659084284472
  H   -0.44940307752194     -2.15797815731770     -1.04225288908399
  N   -1.87092714131659      0.40214619658678      0.40756890142990
  O   -2.78741554711747      0.37158547852073     -0.39247371256620
  O   -1.79288718952085      1.10367191499787      1.41520200424575
