16
Coordinates from ORCA-job run
  C   0.85826452790496     -0.15608977148894     -0.10297681416242
  C   -0.56983100843682     -0.67034150656223     -0.04062592516900
  H   1.46189820871217     -0.87525199068814     -0.65517667301046
  H   -0.54247374362814     -1.59568336469592      0.54041037779680
  N   1.50941444829243     -0.02507475603399      1.25331114534977
  O   1.55168388060464     -1.07847716537192      1.87396052810490
  O   1.94623918804456      1.06254520438008      1.58990860848269
  N   0.97630414595739      1.14438093644397     -0.82699160394033
  O   -0.03496623024160      1.83944868055307     -0.90317001673413
  O   2.08398029236669      1.40068909050421     -1.28240422213005
  N   -1.05409057636944     -0.91012479893157     -1.34838664950053
  H   -1.86447159143016     -1.51296013165899     -1.33231360514763
  H   -1.31071691435740     -0.04163484898403     -1.80123757859151
  N   -1.45566613508802      0.26660975150697      0.80100874730574
  O   -2.58711904949413      0.47436285827954      0.38827024467331
  O   -0.96644944283715      0.67960181274791      1.84541343667285
