10
Coordinates from ORCA-job run
  C   0.07915221012709     -0.14518763267481      0.59124591328801
  C   -1.09637597987128      0.12336298968069     -0.30871966074801
  F   0.15832989266845      0.78186419703036      1.57898398669630
  H   -2.01475154751613      0.07825563270397      0.27717153873745
  H   0.08085006024618     -1.14186068230415      1.03318017599407
  H   -0.99988120772136      1.12186937655627     -0.73828658971665
  H   -1.13883649146288     -0.61709243909445     -1.10642720605226
  N   1.34875890690913     -0.07633821820833     -0.23088738859371
  O   1.51415549799993     -1.02887611484968     -0.98668726543462
  O   2.06959865862088      0.90300289116014     -0.10857350417059
