12

C	-0.50104	-0.01963	-1.435296
C	0.0	0.0	0.0
Cl	-0.019849	1.510056	-2.224772
H	1.091322	0.0	0.0
H	-0.01826	-0.829817	-1.980264
H	-0.39079	0.844643	0.564057
C	-1.954679	-0.163763	-1.524335
N	-3.122008	-0.284887	-1.573624
N	-0.430582	-1.234615	0.702157
O	-0.53685	-2.260257	0.027286
O	-0.607793	-1.161432	1.915099
Cl	3.260981	0.0	0.0
