12

C	-0.582844	0.019537	-1.400012
C	0.0	0.0	0.0
Cl	0.174157	-1.210624	-2.447971
H	1.087926	0.0	0.0
H	-1.64598	-0.222868	-1.368467
H	-0.339359	0.873561	0.563887
C	-0.424426	1.344218	-1.996254
N	-0.372995	2.417563	-2.469872
N	-0.501501	-1.178513	0.767836
O	0.019151	-1.372185	1.859377
O	-1.422809	-1.847817	0.293348
Cl	3.289816	0.0	0.0
