12

C	-0.492283	0.210923	-1.410987
C	0.0	0.0	0.0
Cl	-2.279454	0.451893	-1.45798
H	1.09123	0.0	0.0
H	-0.056055	1.155298	-1.744931
H	-0.3468	0.810598	0.639204
C	-0.127014	-0.810385	-2.389396
N	0.141636	-1.551082	-3.259607
N	-0.495309	-1.251261	0.619626
O	-0.60183	-1.249548	1.843764
O	-0.73453	-2.209313	-0.112432
Cl	3.239821	0.0	0.0
