12

C	-0.499033	0.120015	-1.431332
C	0.0	0.0	0.0
Cl	-0.032412	1.724891	-2.062953
H	1.088947	0.0	0.0
H	-0.006674	-0.626606	-2.052535
H	-0.391004	0.786544	0.642401
C	-1.950658	-0.028286	-1.538619
N	-3.119091	-0.125193	-1.608363
N	-0.438064	-1.295547	0.575978
O	-0.555769	-2.247865	-0.197203
O	-0.614931	-1.342752	1.789279
Cl	3.262113	0.0	0.0
