12

C	-0.493241	-0.02181	-1.43854
C	0.0	0.0	0.0
Cl	-0.048797	1.525569	-2.213823
H	1.091526	0.0	0.0
H	0.016669	-0.813307	-1.985616
H	-0.393047	0.844893	0.561976
C	-1.940493	-0.206569	-1.542086
N	-3.105131	-0.335816	-1.618504
N	-0.434462	-1.234567	0.697453
O	-0.549102	-2.257247	0.018856
O	-0.611371	-1.166707	1.909856
Cl	3.259248	0.0	0.0
