12

C	-0.484844	0.070998	-1.4272
C	0.0	0.0	0.0
Cl	-2.269957	0.314606	-1.510377
H	1.093092	0.0	0.0
H	-0.040772	0.974987	-1.850907
H	-0.346759	0.870714	0.554551
C	-0.117239	-1.044567	-2.296636
N	0.156609	-1.866641	-3.088721
N	-0.499346	-1.182779	0.738664
O	-0.608396	-1.059557	1.956246
O	-0.741474	-2.20738	0.104587
Cl	3.240999	0.0	0.0
