12

C	-0.48287	0.02732	-1.431773
C	0.0	0.0	0.0
Cl	-2.281073	0.12562	-1.523819
H	1.092617	0.0	0.0
H	-0.099775	0.921339	-1.922998
H	-0.401613	-0.838509	0.564514
C	-0.055158	-1.166381	-2.153545
N	0.247797	-2.122181	-2.764214
N	-0.42594	1.23938	0.696103
O	-0.377121	2.29105	0.061289
O	-0.761504	1.136581	1.873784
Cl	3.24059	0.0	0.0
