12

C	-0.484901	0.011354	-1.431082
C	0.0	0.0	0.0
Cl	-2.284036	0.095415	-1.521559
H	1.092643	0.0	0.0
H	-0.109263	0.904301	-1.930635
H	-0.400042	-0.833006	0.57378
C	-0.04725	-1.184762	-2.143939
N	0.272166	-2.139918	-2.747352
N	-0.426943	1.24591	0.684144
O	-0.387407	2.29045	0.03713
O	-0.753281	1.155312	1.865163
Cl	3.24176	0.0	0.0
