12

C	-0.588951	0.286975	-1.368449
C	0.0	0.0	0.0
Cl	0.224084	-0.641528	-2.656458
H	1.091374	0.0	0.0
H	-1.637416	-0.013426	-1.395796
H	-0.335097	0.745571	0.725569
C	-0.50825	1.716108	-1.663923
N	-0.502917	2.867824	-1.892277
N	-0.488204	-1.306951	0.529306
O	-0.056697	-1.634402	1.627245
O	-1.300848	-1.954686	-0.132975
Cl	3.27802	0.0	0.0
