12

C	-0.488386	-0.120271	-1.434868
C	0.0	0.0	0.0
Cl	-0.05491	1.377384	-2.308511
H	1.091743	0.0	0.0
H	0.030393	-0.94192	-1.927234
H	-0.398074	0.878207	0.503811
C	-1.933928	-0.325278	-1.530178
N	-3.096602	-0.477132	-1.599349
N	-0.431432	-1.18832	0.776162
O	-0.646038	-1.033704	1.975754
O	-0.501748	-2.260294	0.17242
Cl	3.262182	0.0	0.0
