12

C	-0.498154	-0.08486	-1.428689
C	0.0	0.0	0.0
Cl	0.000527	1.310465	-2.41998
H	1.0881	0.0	0.0
H	0.015409	-0.948187	-1.86149
H	-0.323242	-0.88805	0.551111
C	-1.938747	-0.309725	-1.551915
N	-3.076278	-0.572558	-1.676932
N	-0.543416	1.155513	0.758002
O	-0.079646	1.334086	1.877902
O	-1.441015	1.827069	0.24484
Cl	3.285638	0.0	0.0
