14
Coordinates from ORCA-job run
  C   -0.86304370014807      0.28641774693435     -0.40655115235371
  C   0.61141698976619     -0.23380883532445     -0.35235593127839
  H   -0.94421346136580      1.03281429170875     -1.20517744251301
  H   0.85428989353259     -0.64062183015927     -1.33561943617979
  C   -1.22138399263010      0.89853028079166      0.87463613702764
  N   -1.45820833118588      1.37044987284499      1.92370735919593
  C   -1.73801786320085     -0.84836398041293     -0.70442725365509
  N   -2.38436576568885     -1.79671172107020     -0.95299504886429
  N   0.95069624940159     -1.15476977132419      0.66196648149209
  H   0.60087450384717     -2.08258843978299      0.47036546452482
  H   0.69582067062396     -0.84604640543034      1.59057617154784
  N   1.44811775852651      1.02444151506104     -0.21691035330927
  O   1.46708266539960      1.74876075452569     -1.20885294118346
  O   1.98193438312193      1.24149652163788      0.86263794554870
