14
Coordinates from ORCA-job run
  C   -0.85374368610850      0.35353619154684     -0.46783477158251
  C   0.47144156327975     -0.41486670218577     -0.28397961132472
  H   -0.74866383405107      1.02492248239576     -1.32660678455757
  H   0.66576438246580     -1.00301257053075     -1.18357109627829
  C   -1.12542716196543      1.15615666027530      0.72970812814027
  N   -1.29118904670415      1.78309204899399      1.70872212764596
  C   -1.94393895866720     -0.58942940329280     -0.72661822996539
  N   -2.80988169962961     -1.34284444717803     -0.97178428996828
  N   0.45810613579898     -1.22375923600706      0.86320448201261
  H   0.42525929199026     -0.68123800669091      1.71777242521130
  H   1.24887097633380     -1.85158355269756      0.89793980059163
  N   1.57521801801498      0.67176730180665     -0.30745329410013
  O   2.29293038638442      0.76951293545259      0.68041494658096
  O   1.63625363285800      1.34774629811177     -1.32991383240592
