14
Coordinates from ORCA-job run
  C   -1.04670573526083     -0.13259090572746     -0.09372144732528
  C   0.45588298285893     -0.46236983202358     -0.23888567568163
  H   -1.51760682858282     -1.10546381350699      0.09451114113730
  H   0.62588733433721     -0.92999314965575     -1.21545289357624
  C   -1.67950421728980      0.44095205036194     -1.28659768670003
  N   -2.22589631738220      0.81915359305102     -2.25501446481783
  C   -1.25848564935571      0.70082589615678      1.09492030765650
  N   -1.39974418886557      1.34670418708331      2.06558970546062
  N   0.88490722646743     -1.28538302017024      0.84607717528951
  H   1.51615656976012     -0.77963044981820      1.45137459663676
  H   1.34639477464580     -2.12655398118730      0.52306685357476
  N   1.24268299938430      0.85772945903469     -0.30236866717221
  O   2.35901765418329      0.87188290392673      0.20078376524542
  O   0.69601339509986      1.78373706247506     -0.88528270972766
