14
Coordinates from ORCA-job run
  C   -0.85565042528546      0.46029790087340      0.15879560128357
  C   0.43463350875851     -0.31960021397933     -0.13972949404195
  H   -0.59501832879008      1.29353214165279      0.81925063997029
  H   0.26774936939964     -1.03290622834873     -0.95794089716228
  C   -1.79793130101926     -0.42902844002625      0.84457311560880
  N   -2.50851019329543     -1.17629408808336      1.40618992717164
  C   -1.44876723368687      0.98151051385818     -1.07593240424650
  N   -1.91941237451530      1.36973301445921     -2.07862658430780
  N   0.99059158591941     -0.85606524961914      1.07384757230664
  H   1.85396255681049     -1.34203519301911      0.85852810410595
  H   0.35046759329652     -1.51986503985192      1.49428526325879
  N   1.47646837627196      0.63644505332307     -0.67709774481225
  O   2.48933156484530      0.09099253828687     -1.10286213786577
  O   1.26308530129055      1.84228329047432     -0.62128096126913
