14
Coordinates from ORCA-job run
  C   -0.93437785868945      0.24697808425975     -0.42902988200110
  C   0.53843454115405     -0.22659567225649     -0.32950066324430
  H   -1.01061458147577      1.03482909614254     -1.18559727646183
  H   0.86075877853565     -0.58213282947267     -1.31048893165003
  C   -1.35082998356896      0.78832326096299      0.86754112809142
  N   -1.62487171934886      1.23413484258476      1.91868587223732
  C   -1.76722114717981     -0.88767420136205     -0.82938801362413
  N   -2.40900601145724     -1.79717901331616     -1.20179981322746
  N   0.71124112273334     -1.20349325858704      0.67347337950525
  H   1.37519317654427     -1.91497363768197      0.40834044271179
  H   0.97919917276377     -0.79674018568320      1.56028090900371
  N   1.35689686181177      1.05698499578567     -0.09997067778749
  O   1.21406129096941      1.93491428451187     -0.94401116597879
  O   2.06113635720781      1.11262423411200      0.90046469242564
