19

C	-0.506371	-8e-06	-1.451938
C	0.0	0.0	0.0
Br	0.37296	1.449249	-2.476019
H	1.096042	0.0	0.0
C	-0.143827	-1.242844	-2.134261
N	0.053888	-2.26589	-2.678948
C	-2.015215	0.209948	-1.591755
H	-2.309594	0.166431	-2.641763
H	-2.550109	-0.571516	-1.044
H	-2.294582	1.184841	-1.191765
C	-0.428934	-1.275709	0.729502
H	0.013846	-1.261002	1.728294
H	-0.057662	-2.170998	0.226574
H	-1.516432	-1.354241	0.841897
C	-0.45601	1.232201	0.776375
H	-0.245921	2.154264	0.229887
H	0.108374	1.274349	1.712213
H	-1.523966	1.198027	1.02414
Br	3.602521	0.0	0.0
