14
Coordinates from ORCA-job run
  C   0.95197950740149     -0.33949254659251      0.12389135953448
  C   -0.56689892743244     -0.15846954986230      0.32053741636475
  Cl  1.31775457292033     -2.05183052797816      0.55581805922203
  H   -0.79036833767995     -0.32169788033420      1.38504915483240
  C   1.35152323160014     -0.11508335808263     -1.26379395394683
  N   1.70904061528297      0.05147439007759     -2.37043394827493
  C   1.70329782723080      0.51001941720628      1.04819107192451
  N   2.27926290371216      1.16252692306636      1.83775088763708
  N   -1.30249689840990     -0.94611833754943     -0.62467688832155
  H   -2.28869015403686     -0.72825715125733     -0.54051031011187
  H   -1.17071737000218     -1.93291992074468     -0.44344351569057
  N   -0.95704446542200      1.27897265584357      0.05345808880870
  O   -2.15067465351971      1.51456550380715      0.20092638502356
  O   -0.08696785164485      2.07531038240027     -0.28076380700177
