14
Coordinates from ORCA-job run
  C   0.95777960119241     -0.24689432467429      0.33710815813346
  C   -0.58287727251360     -0.20893867904025      0.20683639326432
  Cl  1.43503076935249     -0.53635143064732      2.03405728401313
  H   -0.98783797676067     -1.05321026956544      0.78302254153859
  C   1.40729737230056     -1.39763859859105     -0.45439818573499
  N   1.70540178842409     -2.33635280816573     -1.09580446358412
  C   1.58590529007316      0.96675304180936     -0.18576662692741
  N   2.13219515612471      1.90663604943717     -0.63146842276386
  N   -0.94120570391157     -0.13770311583959     -1.18162674202884
  H   -0.83235690128424     -1.04139171807514     -1.62626968263739
  H   -1.91122236309614      0.14460399938607     -1.26329895693541
  N   -1.16439124611116      1.02315253010085      0.86680990991944
  O   -0.42306946688542      1.78074699900164      1.47816669295820
  O   -2.37864904690462      1.13658832486370      0.73363210078487
