14
Coordinates from ORCA-job run
  C   0.94531574925018      0.01703838560720     -0.18363048450844
  C   -0.53196246521033     -0.22207040602458      0.22621142437894
  Cl  1.00430463680683      0.87079236803577     -1.75906917688391
  H   -0.53135594774445     -0.67879243619266      1.21866907005148
  C   1.69001370265617      0.79973024760216      0.80444414231505
  N   2.33624215535449      1.39526532683190      1.58524211454507
  C   1.58216807171405     -1.29392289173916     -0.32779036040463
  N   2.11374340110727     -2.33871853967750     -0.40968126618932
  N   -1.18126473984395     -1.03683667470478     -0.71735405263854
  H   -2.04179483767109     -1.41986547402369     -0.35140006526505
  H   -1.37311474633075     -0.53499092376670     -1.57503481991898
  N   -1.18300192926438      1.15502439469235      0.44181250245732
  O   -1.94474152243746      1.55250602455569     -0.43245991118400
  O   -0.88455152838657      1.73484059880402      1.48104088324501
