14
Coordinates from ORCA-job run
  C   0.92854115376024      0.11006097181788     -0.22985490096484
  C   -0.49672085408669     -0.27569160162097      0.24685874306516
  Cl  0.82615121161153      0.99840187994032     -1.78334441408950
  H   -0.40215609129491     -0.74924434181600      1.22682603437981
  C   1.64727095902423      0.93750535715708      0.74104086860993
  N   2.27284486281534      1.57374708326483      1.50638655664476
  C   1.67750259731814     -1.13111705782652     -0.43944414514328
  N   2.30156486273814     -2.11731541562379     -0.57712576475765
  N   -1.11508838898721     -1.13026293878714     -0.68233668562673
  H   -1.91663542942377     -1.59860640147760     -0.28287532133114
  H   -1.39673082757632     -0.63248340236576     -1.51736134754966
  N   -1.26116244515970      1.02952180519574      0.52676064136010
  O   -0.96512998729390      1.61471357608115      1.56366092809061
  O   -2.09925162344511      1.37077048606077     -0.30019119268755
