14
Coordinates from ORCA-job run
  C   0.94034808403497     -0.36637333935898      0.12040571746257
  C   -0.57251398042656     -0.14314148900678      0.31942236337597
  Cl  1.25654546980674     -2.09223983536849      0.53535905869540
  H   -0.80051217541072     -0.31030147202278      1.38240558480079
  C   1.34543503957920     -0.14010114392766     -1.26549312516286
  N   1.70317252429050      0.01294257965737     -2.37400229726579
  C   1.71683344637371      0.45245955262143      1.05175209311636
  N   2.33033565263575      1.06385820565991      1.84596932535986
  N   -1.33172659750296     -0.89781305399298     -0.63359182079455
  H   -2.31168415658688     -0.65600687244902     -0.54276219293286
  H   -1.22447195549779     -1.89029429791243     -0.46816086845497
  N   -0.91944650069884      1.30815393302301      0.06792755974790
  O   -0.02584906341375      2.08197560432838     -0.25737187518862
  O   -2.10546578718336      1.57788162874903      0.21814047724080
