14
Coordinates from ORCA-job run
  C   0.92767474924307      0.16111651445162      0.28784467029168
  C   -0.59968129201561     -0.17162000334866      0.39279411434747
  Cl  1.41279136974871      1.28431405006630      1.58717405116020
  H   -0.76910840413022     -0.63081200864333      1.36726674660748
  C   1.63104672391350     -1.11218115891815      0.45779918561386
  N   2.13139009369489     -2.16635333683106      0.60087897377918
  C   1.26927891529103      0.72440491527909     -1.01867110831037
  N   1.54563797324418      1.12399908368650     -2.08916650433687
  N   -1.12109635128905     -0.97181295520981     -0.65277002591574
  H   -0.87871857327981     -1.94781139615400     -0.56358878959757
  H   -0.91017498216848     -0.61183785887153     -1.57462666075717
  N   -1.35965771911596      1.12765270091666      0.40690368006932
  O   -1.35658934694794      1.75079099733969     -0.65075224531853
  O   -1.92279315618831      1.44015045623667      1.44891391236706
