11

C	0.0	0.0	0.0
C	-0.40185	-0.059876	-1.472515
F	1.377197	0.0	0.0
H	0.108027	-0.920137	-1.918461
H	-0.387071	0.892379	0.491148
H	-1.487595	-0.171517	-1.541769
C	-0.404992	-1.204032	0.745153
N	-0.563561	-2.145375	1.42901
C	0.056525	1.145771	-2.158897
N	0.446673	2.105649	-2.709874
Cl	-3.238859	0.0	0.0
