11

C	0.0	0.0	0.0
C	-0.502745	0.442906	-1.365801
F	1.382438	0.0	0.0
H	-1.600639	0.365185	-1.335079
H	-0.371309	0.681507	0.76608
H	-0.226878	1.49067	-1.517149
C	-0.400959	-1.380059	0.329194
N	-0.538951	-2.512635	0.603599
C	0.071518	-0.354804	-2.444494
N	0.541226	-0.967853	-3.327992
Cl	-3.398767	0.0	0.0
