11

C	0.0	0.0	0.0
C	-0.52024	0.025324	-1.429315
F	1.376622	0.0	0.0
H	-1.619409	-0.014721	-1.359578
H	-0.371083	0.860126	0.558301
H	-0.150324	-0.853204	-1.965616
C	-0.396236	-1.249204	0.679222
N	-0.522199	-2.287115	1.211353
C	-0.092801	1.235468	-2.122134
N	0.249698	2.207426	-2.685023
Cl	-3.417717	0.0	0.0
