11

C	0.0	0.0	0.0
C	-0.498358	-0.489432	-1.354299
F	1.380107	0.0	0.0
H	-0.208562	-1.533734	-1.493251
H	-0.365088	1.00789	0.201078
H	-1.596427	-0.416921	-1.330822
C	-0.413787	-0.908725	1.083696
N	-0.552458	-1.668722	1.966925
C	0.073782	0.315584	-2.427372
N	0.533908	0.98029	-3.277234
Cl	-3.385784	0.0	0.0
