11

C	0.0	0.0	0.0
C	-0.487397	-0.204932	-1.427525
F	1.378084	0.0	0.0
H	-1.58348	-0.283951	-1.387875
H	-0.379941	0.946611	0.38583
H	-0.219878	0.679652	-2.014355
C	-0.401125	-1.103234	0.894398
N	-0.529599	-2.028043	1.605133
C	0.125016	-1.378422	-2.040875
N	0.627127	-2.313451	-2.541809
Cl	-3.362647	0.0	0.0
