11

C	0.0	0.0	0.0
C	-0.501462	-0.212541	-1.421642
F	1.37741	0.0	0.0
H	-1.597439	-0.283833	-1.359345
H	-0.375485	0.950276	0.380856
H	-0.240108	0.665283	-2.019194
C	-0.401461	-1.09127	0.907581
N	-0.536684	-1.994997	1.643658
C	0.087184	-1.397014	-2.037697
N	0.561641	-2.336439	-2.557614
Cl	-3.395538	0.0	0.0
