11

C	0.0	0.0	0.0
C	-0.517775	0.038847	-1.426206
F	1.377075	0.0	0.0
H	-0.237739	-0.872479	-1.961299
H	-0.369626	0.874745	0.538947
H	-1.633891	0.07762	-1.247151
C	-0.433132	-1.202874	0.735762
N	-0.516608	-2.173768	1.392395
C	-0.00202	1.206062	-2.120881
N	0.392319	2.166929	-2.672344
H	-2.79825	0.0	0.0
