11

C	0.0	0.0	0.0
C	-0.536831	0.127834	-1.412293
F	1.375644	0.0	0.0
H	-1.654761	0.136043	-1.208612
H	-0.371322	0.828219	0.60616
H	-0.253849	-0.744047	-2.008193
C	-0.432102	-1.269087	0.619571
N	-0.540249	-2.317988	1.137913
C	-0.056847	1.34333	-2.044605
N	0.32828	2.335193	-2.544624
H	-2.825481	0.0	0.0
