11

C	0.0	0.0	0.0
C	-0.550465	-0.045914	-1.410069
F	1.37741	0.0	0.0
H	-1.666973	-0.096771	-1.189166
H	-0.378221	0.896814	0.492624
H	-0.325252	0.894368	-1.921453
C	-0.407147	-1.180934	0.792401
N	-0.484983	-2.159447	1.438359
C	-0.034299	-1.161125	-2.181416
N	0.368145	-2.058332	-2.826226
H	-2.831792	0.0	0.0
