17
Coordinates from ORCA-job run
  C   -0.70302434824900      0.00591642012459     -0.25724556761769
  C   0.79991394799835     -0.33008421755231     -0.19252159667265
  Cl  -0.94978312607473      1.38445523642923     -1.38222444060173
  H   0.87239832579010     -1.23158344840921      0.43290578416382
  C   -1.24962170680431      0.41949363361233      1.10425944339907
  H   -0.80664700020174      1.34674573254928      1.46804498827659
  H   -1.05860170623257     -0.37675006676105      1.83164393967841
  H   -2.32871069605299      0.56675232015531      1.02831415227638
  N   -1.37291759641355     -1.13506265330807     -0.84991969676618
  H   -2.34309121295481     -0.91000852012428     -1.03983317972016
  H   -1.34948570201911     -1.91404657132955     -0.19915915021880
  C   1.68331862404259      0.75861333567287      0.42110483893860
  H   2.72931022450502      0.45053320472796      0.38153747868535
  H   1.58053311161714      1.69239674536575     -0.13265945447578
  H   1.42161235088802      0.93117151624243      1.46568559038262
  C   1.29732283680525     -0.69520811416649     -1.52152073000294
  N   1.77747367335635     -0.96333455322878     -2.55841239972492
