17
Coordinates from ORCA-job run
  C   -0.70912254260353      0.10273393241575     -0.22012418461098
  C   0.75162910701751     -0.38622189654771     -0.26430733969091
  Cl  -0.85495484668806      1.60839695861446     -1.19124664835216
  H   0.75522752805714     -1.34900463239028      0.26711740934183
  C   -1.15388605731941      0.42864117635335      1.20094848301392
  H   -2.21374968722353      0.69045988438636      1.19507683818537
  H   -0.60144456992123      1.26481440827134      1.62990329852437
  H   -1.01814225232505     -0.45279084096189      1.83680722898746
  N   -1.51797217715700     -0.89712873145138     -0.88749944086451
  H   -1.53018866751731     -1.74691251861172     -0.33195022936192
  H   -2.47180979021061     -0.56704763092939     -0.98443797814176
  C   1.76739684182577      0.54101485309986      0.40716960981412
  H   1.57067311497208      0.62532507217248      1.47658295221957
  H   2.77407163947898      0.14025932215948      0.27882203487891
  H   1.73438836676909      1.53409983802997     -0.04224749360494
  C   1.15486166041758     -0.66425108023082     -1.64536599263210
  N   1.56202233242760     -0.87338811437987     -2.72624854770627
