14

C	-0.527034	-0.014475	-1.427272
C	0.0	0.0	0.0
Cl	-2.458345	-0.240132	-1.237909
H	1.092902	0.0	0.0
H	-0.354693	-0.899607	0.510917
N	-0.210126	1.154045	-2.093961
H	-0.645588	1.265937	-2.996506
H	-0.326263	1.942806	-1.469615
C	-0.167085	-1.209361	-2.185192
N	0.105836	-2.163642	-2.813182
N	-0.417217	1.252783	0.627476
H	-1.271739	1.132111	1.154416
H	0.321299	1.555004	1.249289
Cl	3.412231	0.0	0.0
