14

C	-0.512459	0.055103	-1.433804
C	0.0	0.0	0.0
Cl	-2.374997	0.496644	-1.290136
H	1.092803	0.0	0.0
H	-0.309497	0.94649	0.463006
N	0.195553	0.976877	-2.20237
H	-0.228642	1.220872	-3.083585
H	0.53325	1.772244	-1.681701
C	-0.555689	-1.253439	-2.094882
N	-0.575694	-2.267067	-2.688959
N	-0.50896	-1.169552	0.691939
H	0.244923	-1.597689	1.208674
H	-1.253976	-0.93053	1.328545
Cl	3.439991	0.0	0.0
