14

C	-0.535777	0.017074	-1.434661
C	0.0	0.0	0.0
Cl	-0.050452	1.571009	-2.219731
H	1.091826	0.0	0.0
H	-0.349527	0.907217	0.505505
N	-0.019368	-1.092137	-2.164712
H	-0.591384	-1.327064	-2.965582
H	0.047316	-1.875496	-1.522332
C	-2.015601	0.040124	-1.392509
N	-3.189442	-0.001667	-1.328566
N	-0.436259	-1.245448	0.632493
H	0.295655	-1.564379	1.253764
H	-1.284782	-1.115838	1.167444
Cl	3.480992	0.0	0.0
