14

C	0.0	0.0	0.0
C	-0.398639	0.199315	-1.466027
F	1.37789	0.0	0.0
H	0.15144	1.065795	-1.840433
H	-0.370163	-0.949202	0.389112
C	-0.452295	1.134173	0.813121
N	-0.70174	2.078896	1.463146
N	-1.756585	0.234281	-1.801112
H	-2.052485	1.134748	-2.140937
H	-2.448111	-0.085576	-1.109554
N	0.274643	-0.969458	-2.209629
O	0.137954	-2.094112	-1.736916
O	0.846858	-0.701218	-3.263022
Cl	-4.260183	0.0	0.0
