14

C	0.0	0.0	0.0
C	-0.385864	-0.029872	-1.48362
F	1.379498	0.0	0.0
H	0.163049	0.774171	-1.97959
H	-0.371235	-0.879526	0.527148
C	-0.454391	1.246809	0.625441
N	-0.695221	2.295435	1.09458
N	-1.739469	-0.064597	-1.831415
H	-2.031437	0.745606	-2.352317
H	-2.437624	-0.244759	-1.096779
N	0.30962	-1.292214	-2.032157
O	0.891557	-1.181297	-3.108355
O	0.177501	-2.333421	-1.395599
Cl	-4.227308	0.0	0.0
