14

C	0.0	0.0	0.0
C	-0.313211	0.051747	-1.508611
F	1.378242	0.0	0.0
H	0.362563	0.803925	-1.920732
H	-0.38847	-0.894475	0.485098
C	-0.449083	1.223885	0.666952
N	-0.706857	2.230331	1.212287
N	-1.623673	0.188418	-1.969635
H	-2.385641	0.050083	-1.290886
H	-1.756558	1.03028	-2.502513
N	0.282072	-1.256299	-2.075553
O	0.883483	-1.168609	-3.143745
O	0.042671	-2.298167	-1.471036
Cl	-3.970504	0.0	0.0
