14

C	0.0	0.0	0.0
C	-0.543936	0.027191	-1.418678
F	1.372628	0.0	0.0
H	-1.623261	0.215416	-1.320227
H	-0.367084	-0.928933	0.438413
C	-0.421064	1.12729	0.848706
N	-0.602478	2.021757	1.586575
N	-0.287885	-1.20579	-2.077372
H	0.65017	-1.223359	-2.453324
H	-0.944164	-1.336178	-2.834104
N	0.066031	1.223714	-2.146915
O	0.764253	1.004065	-3.13827
O	-0.184448	2.335941	-1.697399
Cl	-3.434785	0.0	0.0
