14

C	0.0	0.0	0.0
C	-0.488652	0.20545	-1.423105
F	1.382962	0.0	0.0
H	-1.578616	0.320181	-1.366736
H	-0.37163	-0.972851	0.322198
C	-0.403886	1.029376	0.972274
N	-0.529785	1.817571	1.832793
N	-0.095461	-0.896063	-2.229004
H	-0.618961	-0.899567	-3.093136
H	0.891057	-0.836719	-2.445366
N	0.080002	1.536028	-1.929271
O	-0.345948	2.55954	-1.404138
O	0.922346	1.497855	-2.82842
Cl	-3.370014	0.0	0.0
