14

C	0.0	0.0	0.0
C	-0.369071	0.903037	-1.230075
F	1.382535	0.0	0.0
H	0.61297	1.234444	-1.582576
H	-0.384618	-1.011848	-0.073764
C	-0.39804	0.652199	1.25572
N	-0.516199	1.220578	2.276401
N	-1.213381	2.034829	-1.116281
H	-0.770216	2.72718	-0.527432
H	-2.093354	1.728008	-0.696426
N	-0.83137	-0.004121	-2.363533
O	-1.63372	0.423893	-3.17534
O	-0.26261	-1.094696	-2.427502
Cl	-3.182587	0.0	0.0
