14

C	0.0	0.0	0.0
C	-0.52656	0.354566	-1.420088
F	1.380009	0.0	0.0
H	-1.342569	1.065218	-1.325353
H	-0.370418	-0.984959	0.282508
C	-0.386037	0.993549	1.01685
N	-0.527819	1.803619	1.854097
N	-0.9603	-0.729201	-2.233379
H	-1.88247	-0.977281	-1.879077
H	-0.334552	-1.521475	-2.162064
N	0.606861	1.090497	-2.098294
O	1.301383	0.477299	-2.900954
O	0.776546	2.257779	-1.752934
Cl	-3.241094	0.0	0.0
