11

C	0.0	0.0	0.0
C	-0.48814	-0.019765	-1.467742
Br	1.949747	0.0	0.0
H	-1.243711	0.757754	-1.5746
H	-0.325002	0.91691	0.487991
H	0.360337	0.198157	-2.123687
C	-0.4025	-1.146986	0.812506
N	-0.517134	-2.090728	1.501475
C	-1.077273	-1.268238	-1.946986
N	-1.372836	-2.226866	-2.576339
Br	-3.302699	0.0	0.0
