11

C	0.0	0.0	0.0
C	-0.249351	-0.21354	-1.526939
Br	1.949943	0.0	0.0
H	0.475396	-0.965482	-1.849469
H	-0.394537	0.94233	0.368557
H	0.050691	0.721525	-2.01042
C	-0.398285	-1.116251	0.851046
N	-0.5218	-2.032083	1.577577
C	-1.508542	-0.647463	-2.146683
N	-2.152146	-1.06015	-3.044564
Br	-3.218163	0.0	0.0
