11

C	0.0	0.0	0.0
C	-0.220791	0.025827	-1.552133
Br	1.949555	0.0	0.0
H	0.272358	-0.871922	-1.937017
H	-0.383146	0.884545	0.500903
H	0.373451	0.870395	-1.911997
C	-0.423345	-1.231834	0.653331
N	-0.525139	-2.278151	1.180322
C	-1.499864	0.130491	-2.266094
N	-2.166207	0.248666	-3.231423
Br	-3.19693	0.0	0.0
