11

C	0.0	0.0	0.0
C	-0.54147	0.318265	-1.39483
Br	1.947252	0.0	0.0
H	-1.641519	0.305493	-1.29013
H	-0.336304	0.74725	0.719592
H	-0.236863	-0.458145	-2.101207
C	-0.408585	-1.331541	0.442402
N	-0.64385	-2.41182	0.839018
C	-0.092555	1.619104	-1.871609
N	0.257871	2.668955	-2.262058
Br	-3.602262	0.0	0.0
