10
Coordinates from ORCA-job run
  C   0.61079720055277     -0.25532668046012      0.16755931373227
  C   -0.64630168504089      0.10549438595619     -0.15394158548524
  H   0.91221405561738     -1.15387840070729      0.68769429523783
  H   -0.78963715852475      1.03899866745430     -0.68830001914289
  N   1.71528394028457      0.59484894550060     -0.20179804896124
  O   2.83437077195600      0.19703504385415      0.12958302485611
  O   1.49527830252703      1.64498833671028     -0.80579133641938
  N   -1.77158329187819     -0.63568214461284      0.06674233336381
  H   -2.64712401013208     -0.14277222559293      0.07262232542525
  H   -1.71329812536185     -1.39470592810235      0.72562969739349
