10
Coordinates from ORCA-job run
  C   0.60258667033016     -0.21461110611726      0.24145782930760
  C   -0.63540869496157      0.06821997173700     -0.20796844943555
  H   0.88267408010881     -1.03142249388550      0.89196244722243
  H   -0.75735757578564      0.92242438041166     -0.86607027768041
  N   1.71417425854728      0.61059975353949     -0.16016757359490
  O   1.51818912328520      1.56896646508212     -0.90811463750810
  O   2.81486852429063      0.28815362939755      0.29269140520456
  N   -1.76005279123830     -0.66621902071496      0.03182843212498
  H   -2.64417192247990     -0.20666314181029     -0.09541632552123
  H   -1.73750167209667     -1.33944843763983      0.77979714988060
