10
Coordinates from ORCA-job run
  C   0.50580375876160      0.17158048593255      0.42667040632912
  C   -0.58468655593034     -0.14813834074640     -0.29656899412011
  H   0.59894204163488      0.14164229721456      1.50330633097119
  H   -0.52589335288337     -0.05778365191835     -1.37637720039281
  N   1.70115164864389      0.62004539900926     -0.24324456470586
  O   2.65597559856904      0.89456745851443      0.48718786224331
  O   1.71306046806755      0.70122449949921     -1.47179707915490
  N   -1.79862979710580     -0.51509579660948      0.20733211598207
  H   -2.42010323227720     -1.00821276892272     -0.40887388841416
  H   -1.84562057748026     -0.80082958197304      1.17136501126214
