10
Coordinates from ORCA-job run
  C   0.59409186408052      0.27589801308433      0.68537214245797
  C   -0.74190339087502      0.05390108012920      0.58573419495575
  H   1.06160715828132      0.64093303622133      1.58615330628899
  H   -1.32755672318426      0.25469699116464      1.47863390799851
  N   1.50118613723665      0.08257632671597     -0.39881989698034
  O   2.68811626138901      0.34287060720250     -0.19764362713666
  O   1.05701003701583     -0.33211415300032     -1.48252249258331
  N   -1.43820913727817     -0.44472155862677     -0.45861069323608
  H   -0.95786572033268     -0.52036386672692     -1.34124371746974
  H   -2.43747648633321     -0.35267647616396     -0.45705312429509
