10
Coordinates from ORCA-job run
  C   0.48282590331530      0.63098739637177      0.51709601516216
  C   -0.76437047556933      0.09484397431721      0.55072427597537
  H   0.84240366979358      1.32464112188730      1.26058521637904
  H   -1.39948309498212      0.41353626902413      1.37269707985090
  N   1.44768753015950      0.30270750014415     -0.48137415104963
  O   2.55642214422349      0.83183841974514     -0.39338582325377
  O   1.12943220438850     -0.49324203719392     -1.38073389688657
  N   -1.34851319188809     -0.73765270290582     -0.33799162758743
  H   -0.75673316314823     -1.15656423792378     -1.03784622611833
  H   -2.19167152629259     -1.21109570346619     -0.06977086247174
