10
Coordinates from ORCA-job run
  C   0.62227992903245     -0.26319554666471      0.10087215663100
  C   -0.65564997596513      0.14965520472505     -0.00162455208855
  H   0.96338527095229     -1.23494498555570      0.42976588000956
  H   -0.83901736173389      1.16442963855320     -0.33956248910959
  N   1.69455359918802      0.64072051885352     -0.23434493935295
  O   2.83584540098218      0.19004282285731     -0.11277437298019
  O   1.42833315929090      1.78002136931333     -0.61804509329879
  N   -1.75973754632966     -0.57117597577333      0.35265847044962
  H   -2.63551739311330     -0.29088490274335     -0.05230498407422
  H   -1.65347508230386     -1.56466814356532      0.47635992381412
