10
Coordinates from ORCA-job run
  C   0.43794885853603      0.70945271902675      0.45281905258414
  C   -0.73876709559996      0.04528823449845      0.58968956456759
  H   0.71936442746383      1.53742887517701      1.08395718889992
  H   -1.39214751797072      0.38933522449658      1.38673070911983
  N   1.39940756377533      0.39512640562977     -0.55367900330720
  O   1.16079145334639     -0.53977479711236     -1.33616632057280
  O   2.42265354158403      1.07953647127307     -0.59235603804628
  N   -1.18579855220157     -1.02759354073860     -0.09682845307241
  H   -0.67274052284679     -1.30246919402997     -0.91915723471043
  H   -2.15171215608658     -1.28633039822071     -0.01600946546236
