10
Coordinates from ORCA-job run
  C   0.43569634101165      0.71081204773211      0.45327431534019
  C   -0.84468882534976      0.27547838978239      0.32734755081040
  H   0.71099220102805      1.54684343250441      1.07645708673342
  H   -1.59531578602352      0.82690295803170      0.88675045594898
  N   1.54101845054183      0.08496602981681     -0.19669880957446
  O   1.32628674496984     -0.89417366830289     -0.93064114777014
  O   2.66028883087302      0.55500460677970      0.01164109722430
  N   -1.32238616434090     -0.72110875887550     -0.44770402056487
  H   -2.25672641256906     -1.05138177278363     -0.29179061102741
  H   -0.65316538014114     -1.33234326468512     -0.88763591712041
