10
Coordinates from ORCA-job run
  C   0.35307823208547      0.88083861743533      0.00821179276782
  C   -0.86909735998260      0.32199408033037      0.19909132932236
  H   0.54520025749008      1.93541722460643      0.12589538678315
  H   -1.67612613294630      0.99788476374408      0.46709740254389
  N   1.51753925164217      0.12299022540932     -0.32347952346123
  O   2.58405830455225      0.73469560587028     -0.39734410591592
  O   1.41515004902616     -1.10935359466417     -0.43708471273794
  N   -1.23859100304644     -0.96707599731813      0.03692760360940
  H   -0.51037224808061     -1.65195427335093     -0.08706782802677
  H   -2.12183935074020     -1.26543665206258      0.40775265511522
