10
Coordinates from ORCA-job run
  C   0.62061247720915     -0.23620208284590      0.16075302950217
  C   -0.65681885373391      0.13516625822748     -0.04983725164409
  H   0.95972950004795     -1.15394196947379      0.62065009578176
  H   -0.83895376575197      1.09686353603553     -0.51834486938704
  N   1.69437089444341      0.64086732446184     -0.23517922465219
  O   2.83508942939550      0.22836122074466     -0.01362049720024
  O   1.43018410455536      1.72162577367414     -0.76266043137081
  N   -1.76543805480377     -0.55964157033235      0.33887369849715
  H   -2.62725337852080     -0.34551022923972     -0.13088114085669
  H   -1.65252235284091     -1.52758826125190      0.59124659132999
