10
Coordinates from ORCA-job run
  C   0.48297171605046      0.63635960388501      0.51196379328306
  C   -0.76996900666295      0.11281082204258      0.53940741985066
  H   0.81283146950400      1.40272111155233      1.19528642231414
  H   -1.43480206065938      0.50420627209864      1.30446030549005
  N   1.47214551073939      0.24486696097735     -0.43909597082338
  O   1.18531756729363     -0.62876934438222     -1.27446164327988
  O   2.56757176389660      0.80481356670432     -0.37916498266628
  N   -1.28704261820470     -0.87430063930718     -0.22213997204745
  H   -2.27941445330890     -1.02126292263527     -0.21825024969096
  H   -0.74960988864816     -1.18144543093556     -1.01700512242996
