10
Coordinates from ORCA-job run
  C   0.57105602115226      0.33510239616289      0.67941687041278
  C   -0.76225485939858      0.11098673848220      0.55000038286901
  H   1.01683379152020      0.69967423360175      1.59125480853371
  H   -1.37100269441444      0.33039375050077      1.42278839289892
  N   1.51059743246946      0.08229109843828     -0.36427253031201
  O   2.69781931903359      0.30426324249982     -0.12305623737552
  O   1.09291295903099     -0.34704484783884     -1.45263934614596
  N   -1.44597458376333     -0.29473945298775     -0.54080135209298
  H   -2.39588338967028     -0.59875363913115     -0.43306381576005
  H   -0.91310399595988     -0.62217351972797     -1.33062717302790
