10
Coordinates from ORCA-job run
  C   0.52045213495874      0.33881695286716      0.71700693207968
  C   -0.80118560627227      0.12641127079259      0.48781774250636
  H   0.89833912762567      0.71202564591258      1.65564435230175
  H   -1.47364927080182      0.36337153086319      1.30766441956110
  N   1.53471184847193      0.06369560937584     -0.24811481012984
  O   1.19779056285039     -0.37750209921235     -1.35943667809243
  O   2.70193026673860      0.28005392974122      0.08031272168397
  N   -1.40371460767297     -0.28627970205121     -0.64780056057635
  H   -0.81447781390738     -0.63432627334558     -1.38726767874185
  H   -2.36019664199089     -0.58626686494344     -0.60582644059237
