10
Coordinates from ORCA-job run
  C   0.57587797419751     -0.08303664777688      0.35848655290858
  C   -0.61040937456828     -0.04483702213822     -0.27815949928574
  H   0.79650048636358     -0.59543664710976      1.28453123328499
  H   -0.67210894793666      0.50742687393179     -1.21024691541953
  N   1.71338076342520      0.59824537258894     -0.20803189284806
  O   2.76321287211474      0.51670163663104      0.43358694158260
  O   1.58545019650874      1.21242716821161     -1.26747248803141
  N   -1.74436916772740     -0.70172906917373      0.10365829485714
  H   -2.61530119942820     -0.35863097123697     -0.26117276196952
  H   -1.79223360294924     -1.05313069392782      1.04582053492094
