10
Coordinates from ORCA-job run
  C   0.59321445054836     -0.17686636125131      0.31081886433564
  C   -0.62191726494528      0.08985634295569     -0.20774775964677
  H   0.77030006870445     -0.70174432069690      1.23922162698864
  H   -0.74420625640608      0.76839922160241     -1.04455491836073
  N   1.75235375575121      0.48691024280773     -0.23610376212073
  O   1.63829384396270      1.08954186689262     -1.30374408674553
  O   2.76147952169286      0.49164238070325      0.47275014729413
  N   -1.79771941934067     -0.41643263057741      0.30297896623849
  H   -1.74642841500954     -1.31467415074802      0.75596137055417
  H   -2.60437028495802     -0.31663259168805     -0.28958044853729
