10
Coordinates from ORCA-job run
  C   0.60121437588643     -0.15806986093352      0.28296060190713
  C   -0.63087874967031      0.01511400784606     -0.23275293228599
  H   0.88691833518369     -0.86453580650003      1.04982875373460
  H   -0.76014345329114      0.76326149248411     -1.00807274341361
  N   1.69816387768676      0.64211783995827     -0.20184910483803
  O   1.49468957491115      1.47800529332160     -1.08280580240580
  O   2.79352623840784      0.42728647351203      0.32213137897209
  N   -1.73814291863196     -0.71965981736629      0.07970453276752
  H   -2.63164381697443     -0.30951754443433     -0.12722894587623
  H   -1.71470346350804     -1.27500207788790      0.91908426143831
