10
Coordinates from ORCA-job run
  C   0.50498663263296      0.15985277765512      0.43079962932541
  C   -0.58145732284814     -0.16004634308696     -0.29814996298640
  H   0.63546286102420      0.01640603740769      1.49435689412761
  H   -0.56704970663337      0.06033394614573     -1.36056071632699
  N   1.63752386986417      0.78152849243543     -0.20993122883090
  O   2.59202109653220      1.04650907538803      0.52430618196097
  O   1.60104528254898      1.00532390555739     -1.42009780468135
  N   -1.74651800352928     -0.67852102716310      0.18904089654012
  H   -1.73456500749851     -1.07630872322440      1.11380403349410
  H   -2.34244970209321     -1.15507814111493     -0.46456792262258
