10
Coordinates from ORCA-job run
  C   0.43645231745446      0.70015951767858      0.46698365021095
  C   -0.84472864274345      0.27038548102714      0.33255545731039
  H   0.71400183008018      1.52003313168059      1.11035934123655
  H   -1.59365589092309      0.81252636725975      0.90315709261869
  N   1.54089382354285      0.08554015442894     -0.19524155804830
  O   2.66141997844237      0.54663316016105      0.02569841941134
  O   1.32366019221771     -0.87512264268414     -0.95248161494452
  N   -1.32589439370908     -0.70511145645270     -0.46785852358845
  H   -0.65628943462484     -1.31125179025051     -0.91451628124585
  H   -2.25685977973710     -1.04379192284872     -0.30865598296080
