10
Coordinates from ORCA-job run
  C   0.48778895576931      0.56548472258630      0.58597571307966
  C   -0.72583528730953     -0.04360944351991      0.60536029561735
  H   0.86367721552153      1.14923066758255      1.41116676820771
  H   -1.31857088104800      0.10144960343278      1.50429701272147
  N   1.39492447899161      0.46264771986345     -0.51070884634414
  O   2.47796398298325      1.03965986017823     -0.40512683171039
  O   1.05527693979098     -0.19707608288653     -1.50697527028665
  N   -1.32653889188723     -0.75708027641524     -0.37066974642152
  H   -2.13596863488309     -1.30397411972309     -0.14227955684080
  H   -0.77071787792884     -1.01573265109854     -1.17003953802269
