10
Coordinates from ORCA-job run
  C   0.58335227066992      0.22572165469245      0.71372564009448
  C   -0.75459775412662      0.04326968642271      0.56929231594392
  H   1.03618650870309      0.53002040543380      1.64395978656265
  H   -1.35750891671278      0.20675078936432      1.45824518240886
  N   1.51251611149180      0.06736291414925     -0.35761301331535
  O   1.08549182643207     -0.27396625843904     -1.47308932796309
  O   2.70027829312595      0.28277555183381     -0.11290007487498
  N   -1.43545280866398     -0.37695224908943     -0.51807090845115
  H   -2.43380053857935     -0.27923265729541     -0.53171553871828
  H   -0.93646499234011     -0.42574983707247     -1.39183406168706
