10
Coordinates from ORCA-job run
  C   0.51704925681973      0.49041937382516      0.68225637024138
  C   -0.79308155640514      0.32487920189963      0.44760364027309
  H   0.87081247290618      1.08952517267232      1.51025739694338
  H   -1.52814557909416      0.77406933383959      1.10996141711211
  N   1.49034264262266      0.01688105844836     -0.30675083253127
  O   1.87793730495526      0.81884956563056     -1.14252115778290
  O   1.83443762369963     -1.16131766730838     -0.22582815666087
  N   -1.20460640742013     -0.49504966406756     -0.60674031176726
  H   -0.89561842660389     -1.45218694044739     -0.59834107499755
  H   -2.17012733148013     -0.40506943449229     -0.86989729083010
