10
Coordinates from ORCA-job run
  C   0.63269486599052     -0.24109749323716      0.09080093579803
  C   -0.66079580039306      0.12457026879454      0.00595199976324
  H   1.01295215080194     -1.20584348269523      0.39648774864868
  H   -0.88581501537765      1.13800318973804     -0.31004104164159
  N   1.66701489078237      0.70984939471003     -0.23305789913567
  O   1.35462996855928      1.84693982005162     -0.58738110981118
  O   2.82547433651186      0.29953741275038     -0.13278633970075
  N   -1.73332732623907     -0.64574334355494      0.35193368768839
  H   -1.58933618983775     -1.63673216363140      0.45514763616409
  H   -2.62349188079844     -0.38948360292588     -0.03705561777324
