15

C	-0.377683	0.006334	-1.479104
C	0.0	0.0	0.0
Cl	-2.12625	0.350637	-1.774612
H	1.104373	0.0	0.0
H	0.177355	0.801315	-1.980762
C	-0.064966	-1.265426	-2.125177
N	0.173178	-2.290074	-2.644476
N	-0.563782	-1.185631	0.65061
H	0.040349	-1.973078	0.432656
H	-0.481358	-1.050634	1.652373
C	-0.469109	1.259927	0.703315
H	0.011794	1.31952	1.683506
H	-1.553978	1.253935	0.834468
H	-0.179585	2.151943	0.142775
Cl	3.437484	0.0	0.0
