15

C	-0.50504	0.016747	-1.455809
C	0.0	0.0	0.0
Cl	0.082594	-1.397377	-2.388015
H	1.095337	0.0	0.0
H	-1.598371	-0.072394	-1.446968
C	-0.170133	1.238178	-2.183348
N	0.07513	2.221271	-2.777257
N	-0.42638	-1.199389	0.710644
H	0.198381	-1.959477	0.474842
H	-1.367437	-1.468352	0.445054
C	-0.513703	1.238092	0.720281
H	-0.153985	1.197559	1.74868
H	-0.147661	2.158344	0.261025
H	-1.611578	1.262286	0.741325
Cl	3.438856	0.0	0.0
