15

C	-0.471984	-0.046428	-1.458732
C	0.0	0.0	0.0
Cl	-0.026985	1.412128	-2.399724
H	1.095089	0.0	0.0
H	0.022148	-0.892583	-1.936067
C	-1.922546	-0.232124	-1.532349
N	-3.087189	-0.382628	-1.558595
N	-0.415505	-1.288815	0.562723
H	0.337815	-1.649902	1.132927
H	-1.239869	-1.182672	1.141349
C	-0.526309	1.201323	0.766237
H	-0.141675	1.159592	1.787766
H	-0.192719	2.139896	0.321462
H	-1.622814	1.198867	0.803159
Cl	3.426658	0.0	0.0
