15

C	-0.474155	-0.006669	-1.457908
C	0.0	0.0	0.0
Cl	0.16632	1.379673	-2.394829
H	1.099649	0.0	0.0
H	-0.0829	-0.902549	-1.943073
C	-1.934821	-0.009157	-1.55277
N	-3.105719	0.031066	-1.629538
N	-0.505169	-1.265075	0.562011
H	-0.731531	-1.126583	1.540323
H	0.25515	-1.939599	0.535414
C	-0.530066	1.187114	0.778133
H	-0.08852	1.182899	1.777875
H	-0.251329	2.126727	0.300379
H	-1.620916	1.142085	0.869185
Cl	3.467901	0.0	0.0
