15

C	-0.410683	-0.005784	-1.489781
C	0.0	0.0	0.0
Cl	0.111695	1.458769	-2.381038
H	1.095612	0.0	0.0
H	0.090595	-0.845088	-1.977217
C	-1.858681	-0.15787	-1.641813
N	-3.023557	-0.299897	-1.70592
N	-0.422988	-1.236272	0.644671
H	-1.405334	-1.434903	0.482002
H	0.14038	-2.013811	0.321395
C	-0.551372	1.192116	0.756602
H	-1.647834	1.178697	0.774991
H	-0.187774	1.136379	1.782932
H	-0.217249	2.133291	0.319228
Cl	3.462485	0.0	0.0
