15

C	-0.347343	0.004603	-1.497371
C	0.0	0.0	0.0
Cl	-2.12902	0.213779	-1.793627
H	1.097636	0.0	0.0
H	0.138766	0.849505	-1.991194
C	0.053095	-1.237392	-2.153142
N	0.366424	-2.238914	-2.680571
N	-0.468187	-1.168064	0.722551
H	-1.43363	-1.37674	0.489684
H	0.106937	-1.968816	0.488253
C	-0.471511	1.274653	0.67999
H	-0.147615	2.161078	0.127231
H	-0.026538	1.306614	1.674858
H	-1.560466	1.30036	0.781464
Cl	3.411269	0.0	0.0
