15

C	-0.507178	0.015815	-1.453674
C	0.0	0.0	0.0
Cl	0.071552	-1.406864	-2.382954
H	1.095321	0.0	0.0
H	-1.601171	-0.067269	-1.445138
C	-0.162769	1.230591	-2.18765
N	0.08757	2.207494	-2.788713
N	-0.424904	-1.19935	0.712947
H	-1.364449	-1.473799	0.443864
H	0.202262	-1.957793	0.479193
C	-0.514724	1.238674	0.720374
H	-0.148013	2.158701	0.260187
H	-1.612722	1.26236	0.740352
H	-0.155323	1.197456	1.748867
Cl	3.435887	0.0	0.0
