15

C	-0.501489	0.012102	-1.456171
C	0.0	0.0	0.0
Cl	0.093178	-1.405576	-2.382204
H	1.095337	0.0	0.0
H	-1.594357	-0.08092	-1.450772
C	-0.173328	1.231172	-2.190369
N	0.025278	2.224038	-2.785751
N	-0.421431	-1.198044	0.712609
H	0.211148	-1.954816	0.488541
H	-1.36025	-1.477168	0.447797
C	-0.51741	1.239007	0.717858
H	-1.614912	1.259028	0.739375
H	-0.156597	1.20036	1.745779
H	-0.153951	2.159157	0.256145
Cl	3.436625	0.0	0.0
