12

C	-0.483849	0.028434	-1.439596
C	0.0	0.0	0.0
F	-0.166505	-1.192268	-2.009999
H	1.091365	0.0	0.0
H	0.026735	0.813646	-1.997251
H	-0.391543	-0.864221	0.533266
C	-1.944809	0.211285	-1.548254
N	-3.110503	0.322091	-1.635905
N	-0.44587	1.214241	0.713871
O	-0.586564	2.240404	0.043601
O	-0.607137	1.136841	1.928942
Cl	3.264453	0.0	0.0
