12

C	-0.605188	0.047492	-1.391895
C	0.0	0.0	0.0
F	-0.392151	1.324418	-1.892608
H	1.088354	0.0	0.0
H	-1.686773	-0.107447	-1.348953
H	-0.339149	0.871332	0.561805
C	-0.051856	-0.930052	-2.340557
N	0.310887	-1.691627	-3.156056
N	-0.48036	-1.190918	0.73742
O	-1.02134	-2.092294	0.087617
O	-0.304882	-1.206308	1.950805
Cl	3.265995	0.0	0.0
