12

C	-0.496903	0.0477	-1.425111
C	0.0	0.0	0.0
F	-0.077861	-1.037695	-2.159027
H	1.088968	0.0	0.0
H	-0.048956	0.939798	-1.876526
H	-0.32257	0.893997	0.538923
C	-1.963693	0.17214	-1.532841
N	-3.11857	0.353218	-1.635952
N	-0.522893	-1.156292	0.769952
O	-0.218172	-1.197095	1.957351
O	-1.220878	-1.985809	0.184992
Cl	3.284933	0.0	0.0
