12
Coordinates from ORCA-job run
  C   0.99855262769689     -0.26578980212529     -0.25264147366763
  C   -0.44174298673314     -0.15075783816002      0.29009691270588
  Cl  1.63770978165084     -1.89399298231887      0.06312383649692
  H   -0.41286826498819     -0.44090769028614      1.34466510263363
  H   0.98319873784025     -0.13059632075923     -1.33752796570294
  C   1.87321657485415      0.73557865933138      0.34981481032454
  N   2.56272666501805      1.54660987393928      0.84620984407418
  N   -1.30777593631859     -1.06858933911090     -0.42157397621205
  H   -1.60583230095332     -0.67080763213304     -1.30402603971863
  H   -2.13300082097822     -1.27590806942202      0.12505504103153
  C   -0.87631288157548      1.25782665555310      0.20711439644764
  N   -1.27787119551324      2.35633448549175      0.09068951158693
