12
Coordinates from ORCA-job run
  C   1.00570850059351      0.01997828205895      0.43845114554890
  C   -0.47452454822638     -0.29438842044380      0.12769848934181
  Cl  1.22829096497028      1.69338088464139      0.98069128284352
  H   -0.51088345893364     -1.37782989034632     -0.07435953486357
  H   1.34988672071720     -0.63193783254633      1.24546292307066
  C   1.79454491350768     -0.24391345130686     -0.76220534970015
  N   2.37583263340666     -0.49057894824493     -1.75235242362092
  N   -0.94202327093733      0.53166284246474     -0.96964916711067
  H   -0.63304797526440      0.14528032921903     -1.85346794461641
  H   -1.95145749021471      0.59039322782424     -0.97766179436796
  C   -1.28492297966736     -0.05742929535343      1.32592345022019
  N   -1.95840400995151      0.11438227203332      2.27146892325459
