12
Coordinates from ORCA-job run
  C   1.01832183733767      0.24992596350598      0.32120464076758
  C   -0.42185015461652     -0.30292832936843      0.23979461904036
  Cl  1.04506599548892      2.02059856355971      0.40925582375401
  H   -0.32286142871477     -1.39868947710567      0.31403549475349
  H   1.49754866706034     -0.12821410932362      1.22786613365774
  C   1.75828384083312     -0.22137924489127     -0.84666172844294
  N   2.30021216970564     -0.64900368086385     -1.79670224300151
  N   -1.06618442408479      0.15536921733471     -0.97683539169726
  H   -2.07239236640103      0.08542961795425     -0.90431176031765
  H   -0.75943166014913     -0.40249397149015     -1.76475129970696
  C   -1.17840171527498      0.13594842077637      1.41610038574946
  N   -1.79831076118446      0.45543702991198      2.36000532544370
