12
Coordinates from ORCA-job run
  C   0.89298920649007     -0.20317023951033     -0.29699801277143
  C   -0.51878836678437     -0.06761652713017      0.34151312468871
  Cl  1.42624469996431     -1.90302794244151     -0.20085126910120
  H   -0.42095804246378     -0.34905094271496      1.39557113795947
  H   0.83578749433632      0.05435847032173     -1.35781264418778
  C   1.86325604352852      0.65815695534770      0.36781541100072
  N   2.62080504028120      1.36086309360262      0.92685563640609
  N   -1.56181351398121     -0.87290089976427     -0.24734156297625
  H   -1.69144755173664     -0.65273144007477     -1.22721339541364
  H   -1.35177914377260     -1.85766387818554     -0.15037311666747
  C   -0.90124307779458      1.34954698476688      0.27401736100073
  N   -1.19305278806724      2.48223636578263      0.17381733006205
