17

C	0.0	0.0	0.0
C	-0.509951	0.029677	-1.430873
F	1.40529	0.0	0.0
H	-1.603499	-0.015303	-1.324423
H	-0.301877	-0.959146	0.436377
C	-0.509012	1.121449	0.866801
H	-0.158886	2.088418	0.506134
H	-1.603388	1.073427	0.83074
H	-0.165844	0.990342	1.897191
N	-0.063773	-1.146205	-2.193096
H	-0.580769	-1.947194	-1.842258
H	0.916554	-1.306772	-1.973624
C	-0.10722	1.285822	-2.18779
H	-0.571934	2.173263	-1.753064
H	-0.438068	1.194823	-3.223809
H	0.979266	1.421093	-2.182758
H	-3.401298	0.0	0.0
