16

C	0.0	0.0	0.0
C	-0.44119	-5.6e-05	-1.475858
Br	2.107353	0.0	0.0
H	-1.524147	0.1893	-1.409448
C	-0.298515	1.233749	0.723556
N	-0.479227	2.207227	1.35691
N	-0.466669	-1.121325	0.710181
H	-1.445744	-0.925144	0.949405
H	-0.455486	-1.91049	0.0702
N	-0.175293	-1.257363	-2.079182
H	-0.841539	-1.435994	-2.816823
H	0.762213	-1.275235	-2.459511
N	0.157081	1.167914	-2.242516
O	-0.138708	2.292176	-1.851782
O	0.882169	0.916059	-3.204942
Cl	-3.432449	0.0	0.0
