16

C	0.0	0.0	0.0
C	-0.476984	-0.191114	-1.454578
Br	2.033641	0.0	0.0
H	-1.55977	0.005366	-1.391229
C	-0.316426	1.318024	0.560109
N	-0.524356	2.349898	1.082298
N	-0.474173	-1.019135	0.865407
H	-0.433895	-1.887472	0.339692
H	-1.466427	-0.808016	1.028865
N	-0.218844	-1.517455	-1.892774
H	-0.888979	-1.781544	-2.60203
H	0.716599	-1.587149	-2.274082
N	0.107587	0.863876	-2.376263
O	-0.176258	2.030617	-2.128222
O	0.813665	0.485992	-3.310932
Cl	-3.458237	0.0	0.0
