16

C	0.0	0.0	0.0
C	-0.460296	0.192194	-1.462399
Br	2.043065	0.0	0.0
H	-1.543674	0.359381	-1.36697
C	-0.325436	1.126943	0.8763
N	-0.521912	2.008621	1.627816
N	-0.475113	-1.210315	0.564931
H	-1.472516	-1.05382	0.757423
H	-0.414887	-1.917163	-0.162975
N	-0.178427	-0.967965	-2.231492
H	-0.84506	-1.053094	-2.985759
H	0.756574	-0.916364	-2.615335
N	0.124515	1.459598	-2.066976
O	-0.201443	2.520764	-1.5451
O	0.875492	1.343799	-3.036498
Cl	-3.447599	0.0	0.0
