16

C	0.0	0.0	0.0
C	-0.375818	0.320666	-1.512418
Br	1.965403	0.0	0.0
H	0.521899	0.641298	-2.043231
C	-0.340967	1.182118	0.809349
N	-0.515522	2.10574	1.514375
N	-0.541643	-1.15162	0.635631
H	-1.553744	-1.001292	0.716927
H	-0.364709	-1.969927	0.066691
N	-1.379721	1.285785	-1.638315
H	-2.246135	0.990506	-1.16864
H	-1.566633	1.486485	-2.611159
N	-0.670856	-1.023021	-2.246273
O	-1.562794	-1.018483	-3.08488
O	0.085745	-1.9691	-2.021519
Cl	-3.672084	0.0	0.0
