16

C	0.0	0.0	0.0
C	-0.248853	0.262793	-1.553363
Br	2.024009	0.0	0.0
H	0.588393	-0.21334	-2.060642
C	-0.329225	1.199382	0.789014
N	-0.489798	2.158651	1.451905
N	-0.451708	-1.244439	0.499885
H	-1.476022	-1.214847	0.389775
H	-0.24638	-1.288962	1.49216
N	-0.311384	1.641406	-1.923458
H	0.493555	2.125196	-1.54429
H	-1.157523	2.050329	-1.538275
N	-1.408252	-0.469227	-2.217177
O	-2.19112	0.181135	-2.888844
O	-1.359262	-1.69307	-2.144719
Cl	-3.268904	0.0	0.0
