14

C	0.0	0.0	0.0
C	-0.411271	0.161951	-1.461812
F	1.356847	0.0	0.0
H	0.186556	-0.525851	-2.064762
H	-1.483166	-0.018918	-1.531462
C	-0.506539	0.989525	0.949879
N	-0.647838	1.828444	1.762535
N	-0.389532	-1.391564	0.464157
O	-0.479889	-1.573445	1.669613
O	-0.405453	-2.265654	-0.396712
N	-0.116556	1.517192	-1.990848
O	-0.50505	1.724471	-3.138807
O	0.505202	2.32552	-1.30557
F	-2.366334	0.0	0.0
