14

C	0.0	0.0	0.0
C	-0.518872	-0.052541	-1.43015
F	1.347938	0.0	0.0
H	-1.566491	-0.400055	-1.323753
H	-0.543238	0.952599	-1.84685
C	-0.503877	1.193113	0.69363
N	-0.630832	2.231047	1.231962
N	-0.41374	-1.228706	0.806718
O	-0.25739	-1.122328	2.019267
O	-0.748603	-2.234283	0.204704
N	0.280615	-0.872637	-2.370888
O	0.111739	-0.609325	-3.564277
O	0.99591	-1.780213	-1.954496
F	-2.463082	0.0	0.0
