13

C	0.0	0.0	0.0
C	-0.563913	0.224979	-1.396472
Cl	1.791767	0.0	0.0
H	-1.660484	0.207664	-1.282597
H	-0.298606	-0.991485	0.342686
H	-0.266308	1.21054	-1.766934
C	-0.504851	1.060398	0.957884
H	-1.597475	1.018613	0.970167
H	-0.177639	2.050847	0.628697
H	-0.12002	0.884186	1.96421
C	-0.163854	-0.791547	-2.365105
N	0.149958	-1.600294	-3.155545
Br	-3.902808	0.0	0.0
