13

C	0.0	0.0	0.0
C	-0.43758	0.311807	-1.432568
Cl	1.790539	0.0	0.0
H	-1.53045	0.316615	-1.4669
H	-0.347966	-0.99607	0.276888
H	-0.07865	-0.469498	-2.112519
C	-0.38052	1.057756	1.037539
H	-0.023348	0.738468	2.020284
H	0.11043	2.001685	0.791908
H	-1.454098	1.204348	1.092526
C	0.049251	1.608238	-1.904384
N	0.394708	2.660396	-2.292639
Br	-3.338868	0.0	0.0
