11
Coordinates from ORCA-job run
  C   -0.44013238422681     -0.11842290296028      0.43605794684375
  C   0.75444678681300      0.21166625324404     -0.46402310533668
  H   -0.44128640973591     -1.19570827042689      0.65241746008999
  H   0.63387064714261     -0.26592532691049     -1.44138712989715
  H   -0.31447229680280      0.40302673122266      1.38769212136280
  H   0.78751282482969      1.29040492929580     -0.63237519665332
  N   -1.65643711304087      0.37316940133168     -0.20369616073732
  H   -2.41440516750970      0.40123563848427      0.46599024786820
  H   -1.93626057103002     -0.25700762227688     -0.94546765272540
  C   2.01663409333089     -0.23624847390255      0.12236408189294
  N   3.01152959022991     -0.60719035710135      0.62142738729220
