11
Coordinates from ORCA-job run
  C   -0.59361214977145     -0.49765860107599      0.06447056722738
  C   0.89609935531195     -0.31127227131432      0.36269848056630
  H   -0.69891059926005     -1.06189037858990     -0.86514210870857
  H   1.37342735057462     -1.27941035813692      0.54288757594942
  H   -1.02556644663352     -1.11024658828822      0.86978133811864
  H   1.02332907176813      0.28427089142597      1.27235633223908
  N   -1.22533828255200      0.80252395681021     -0.11220686220330
  H   -1.37420156187745      1.24619638423300      0.78551044928135
  H   -2.12790446432630      0.70317580783826     -0.55761355000414
  C   1.59047334374240      0.35907456845306     -0.73625850096493
  N   2.16020438302367      0.86723658864485     -1.62648372150124
