11
Coordinates from ORCA-job run
  C   -0.48477741428344     -0.44852621937850      0.31583049865057
  C   0.69203467422599      0.35022311076440     -0.28303028056690
  H   -0.31787566186742     -0.57757413207880      1.38792252363369
  H   0.54520741249364      0.47798021163501     -1.35999144757006
  H   -0.49735131915751     -1.44812814570780     -0.12516544654922
  H   0.72663308260368      1.35026918366572      0.16020939397695
  N   -1.79168126924799      0.15556314812244      0.12339241851052
  H   -1.99800595404950      0.26034219563704     -0.86187764478340
  H   -1.83063760313887      1.07253360810593      0.55004763371015
  C   1.97477383517538     -0.31295056071793     -0.05538518003547
  N   2.98168021724603     -0.87973240004751      0.14904753102317
