14
Coordinates from ORCA-job run
  C   -0.69520609726149     -0.82984467334911      0.06428753668097
  C   0.70985863358665     -0.20312078571176      0.18408126589969
  F   -0.56522555659193     -2.19829186527100     -0.01080492374308
  H   1.15347751254110     -0.64398061055373      1.08459705719209
  C   -1.49185810165691     -0.49711395103927      1.25807046955986
  N   -2.09491204399247     -0.22047418734681      2.22745999401159
  C   -1.38425886182519     -0.34517095443019     -1.14316553694645
  N   -1.91487721414166      0.06472222261850     -2.10794409469458
  C   0.65833226366307      1.32178524625687      0.30575992466387
  H   0.20246053051311      1.76667439306071     -0.58044661855820
  H   1.67145958242010      1.71311053130904      0.40205528216281
  H   0.09008569940740      1.61720308106057      1.18952254532710
  C   1.50641345466711     -0.62119081489279     -0.97081732602249
  N   2.15325019867111     -0.92430763171101     -1.90265557553320
