14
Coordinates from ORCA-job run
  C   -0.91121811539565     -0.25586872368787     -0.26486023828656
  C   0.58450256173659     -0.17523158589037      0.11636266897970
  F   -1.14781567832636      0.58646923737280     -1.32828900972768
  H   0.74050129324295     -0.86457967312245      0.95498066910104
  C   -1.28131898346559     -1.62777700716602     -0.64964647644564
  N   -1.55501272357439     -2.73263970955161     -0.94049893263967
  C   -1.73957390764945      0.17419418793675      0.87537236793167
  N   -2.37045898040799      0.52103229792713      1.80344778105709
  C   0.98725925443190      1.24641043668507      0.51933391539698
  H   0.79354427194656      1.94255336646498     -0.29661118779629
  H   0.43381592533287      1.56465322032392      1.40439633523404
  H   2.05263149705014      1.27066672394353      0.75094989201015
  C   1.37921157811963     -0.64794601596444     -1.01944760213034
  N   2.03393200695879     -1.00193675527141     -1.92749018268448
