14
Coordinates from ORCA-job run
  C   -0.90949335947727     -0.34320106204138      0.32589019568288
  C   0.59529883083323      0.00708843553266      0.36060534958377
  F   -1.54372158025071      0.44432385315799      1.26546676616156
  H   0.92390112794080     -0.21787734693521      1.38238056270451
  C   -1.48472719725758     -0.05391498349533     -0.99773221090160
  N   -1.92188559276875      0.20534975210226     -2.05679615849390
  C   -1.12725028252149     -1.75536239429933      0.67773077960790
  N   -1.27986699052071     -2.87836363633360      0.98742406780834
  C   0.83714062054821      1.48396024431429      0.04118448682162
  H   0.26439479699583      2.11117003573611      0.72447215692777
  H   1.89694177916141      1.71273397885318      0.16152620497657
  H   0.54982759160457      1.71235648882569     -0.98662631320031
  C   1.31128830415743     -0.87163734867474     -0.56407152311450
  N   1.89015195155502     -1.55662601674260     -1.32245436456461
