14
Coordinates from ORCA-job run
  C   -0.90530668518170     -0.29381515944893      0.38120774592361
  C   0.62304220397834     -0.08003276004449      0.30109826119155
  F   -1.37592513016909      0.44917378453213      1.44493311548339
  H   1.01808584473166     -0.43200395925184      1.26158826191640
  C   -1.56525409684743      0.17289314176914     -0.84906510021972
  N   -2.06872139998369      0.57077090268587     -1.83302407950119
  C   -1.22562661843851     -1.70967404229009      0.62304551318531
  N   -1.45751556388032     -2.84098650692419      0.83907418566623
  C   0.97505825453566      1.39475276435212      0.09405369140572
  H   0.61574080619398      1.74887532567781     -0.87369435952622
  H   0.53239340494763      1.99842300328255      0.88643932458613
  H   2.05849902997571      1.51676388795605      0.12482928564872
  C   1.16778712736971     -0.92100986409298     -0.76468982229208
  N   1.60974282276805     -1.57313051820318     -1.63579602346785
