14
Coordinates from ORCA-job run
  C   -0.89964520038926     -0.30738726163083     -0.24852087482327
  C   0.60709637963533     -0.12646716140443      0.04576557110634
  F   -1.30541878130143      0.67522330247041     -1.12359925033358
  H   0.89933252593272     -0.92969777498726      0.73295855488699
  C   -1.16155495878036     -1.62416637680534     -0.85236062363356
  N   -1.34687011770787     -2.68472431821286     -1.32248591283474
  C   -1.67041851172163     -0.17864995869250      1.00074052534124
  N   -2.25692635469484     -0.06946115547547      2.01266269489850
  C   0.89830351807580      1.23913374985898      0.67503126237709
  H   0.57252587729799      2.04073137441921      0.01232465258142
  H   0.38845582598094      1.33503312065507      1.63513237417362
  H   1.97110703494923      1.34081585564960      0.84217450741601
  C   1.34805791570785     -0.30022216156475     -1.20550604573150
  N   1.95495484701554     -0.41116123427978     -2.20431743542453
