14
Coordinates from ORCA-job run
  C   -0.89059911029729     -0.39851746273297      0.31324494586715
  C   0.58501547329690      0.05673483518356      0.37180265916103
  F   -1.59955424067624      0.36401158638421      1.21926533664268
  H   0.90412736622695     -0.11977937406857      1.40594216696794
  C   -1.45424693939716     -0.18005577967264     -1.02902624602039
  N   -1.89043981586792      0.03398465479258     -2.09858693273843
  C   -1.01862371255602     -1.81417803190804      0.69490993271814
  N   -1.10226084033080     -2.93548109410869      1.03550292389886
  C   0.73169639684787      1.53865090747333      0.01994173742121
  H   0.10520576087889      2.14163113925893      0.67734719124468
  H   1.77112303672003      1.84156084047269      0.15238221758077
  H   0.44855064009533      1.72274429529985     -1.01780174993887
  C   1.38189637351112     -0.79254314076370     -0.51357626453305
  N   2.02810961154833     -1.45976337561055     -1.23234791827172
