14
Coordinates from ORCA-job run
  C   -0.91310041898963     -0.29668712853110      0.36001310459340
  C   0.61824587670282     -0.09541369100054      0.30632554359544
  F   -1.39031566439837      0.41607692492944      1.44145429150497
  H   0.99711419593834     -0.48159281657098      1.26014710783807
  C   -1.55303182441985      0.21601481834543     -0.86240970135575
  N   -2.04119995304759      0.65042456647870     -1.83861810494715
  C   -1.24922108272422     -1.71657318187960      0.55167104888022
  N   -1.49388260064815     -2.85203236942899      0.72818029085150
  C   0.98725926496422      1.38128300461683      0.15065126495193
  H   0.64161069843296      1.77037475850699     -0.80860585785510
  H   2.07151152853888      1.49095599907386      0.19607738975548
  H   0.54255880210859      1.96364530487902      0.95771428372291
  C   1.16853723343722     -0.90842409136304     -0.77831694585317
  N   1.61491394410474     -1.53705209805601     -1.66428371568273
