14
Coordinates from ORCA-job run
  C   -0.91141717751762     -0.25486639482535     -0.26343024344397
  C   0.58697614337999     -0.17388083365286      0.10748049337038
  F   -1.16364426795638      0.61741934139373     -1.29881083417204
  H   0.75490552417848     -0.88552255757207      0.92490250448552
  C   -1.27493883790216     -1.61681473469764     -0.68759755723691
  N   -1.54334411592180     -2.71046586108082     -1.02220215455361
  C   -1.73279156917586      0.13426349460491      0.89634937939847
  N   -2.35803831124751      0.45078626462393      1.83889357682556
  C   0.98230686114070      1.23876208113836      0.54800422111453
  H   0.77869094749744      1.95617073419800     -0.24679868998015
  H   0.43230017584519      1.52821131215674      1.44502064203091
  H   2.04886757116631      1.26371474311763      0.77393347384052
  C   1.37574497917750     -0.60825588134369     -1.04747055044884
  N   2.02538207733570     -0.94052170806084     -1.96727426123040
