14
Coordinates from ORCA-job run
  C   -0.90054749304453     -0.39504238719488      0.28697875284695
  C   0.58143346594546      0.03251667078022      0.38221353446707
  F   -1.60973795961066      0.34735198216047      1.20945970830742
  H   0.88225613950334     -0.18590941366458      1.41383825993780
  C   -1.44148394128140     -0.12012267688089     -1.05419276313496
  N   -1.86411884924005      0.13883809406343     -2.11921185350537
  C   -1.05723840475225     -1.82070974639096      0.61671500752439
  N   -1.16231146795840     -2.95123780367227      0.91852111931859
  C   0.75767380622774      1.52340386729851      0.08596977299938
  H   0.49187723877493      1.74955911925670     -0.94806050023232
  H   1.80009331347466      1.80347135426905      0.24286695424217
  H   0.13237186901680      2.11292880364504      0.75655810251732
  C   1.37633254412891     -0.79689386009434     -0.52318335987749
  N   2.01539973881547     -1.43915400357550     -1.27047273541092
