14
Coordinates from ORCA-job run
  C   -0.91443996794147     -0.32152857588030      0.33297115249180
  C   0.61251539770843     -0.08343517267600      0.32169462948746
  F   -1.43724477598298      0.37167923807341      1.40608499665524
  H   0.97426731250341     -0.46647329964158      1.28343068318760
  C   -1.53376262050876      0.18516417793957     -0.90252773644765
  N   -2.00680268598806      0.61788891351437     -1.88688651854181
  C   -1.22194526437681     -1.75014325521415      0.50620988567483
  N   -1.44740788991820     -2.89132715127878      0.67086624839786
  C   0.94962117973945      1.40300113463112      0.18566129752324
  H   2.02885165293204      1.53872651449880      0.26654771457289
  H   0.62507858895507      1.78922130957234     -0.78206800529113
  H   0.46528451011574      1.96924175047328      0.98127215960523
  C   1.21127807939934     -0.87524962199055     -0.75240155736484
  N   1.69470648336279     -1.48676596202155     -1.63085494995067
