14
Coordinates from ORCA-job run
  C   -0.68193261711074     -0.84435221942254      0.02212953002328
  C   0.70946079161665     -0.19725309172417      0.18636003445271
  F   -0.52446186829537     -2.20646241568257     -0.10162321756568
  H   1.14776330264718     -0.66447700159322      1.07623071095426
  C   -1.50059419085668     -0.57157432246844      1.21600470786838
  N   -2.11886018123353     -0.34250029463583      2.18817053585101
  C   -1.36207532271569     -0.32699689315196     -1.17631622056505
  N   -1.88453169617116      0.11478963935314     -2.13129240980942
  C   0.62926943591318      1.32089856234797      0.36408401455566
  H   1.63383726465071      1.72431572527559      0.49493791114117
  H   0.03893891864242      1.57322828523917      1.24673092681929
  H   0.18324677000275      1.79147474878868     -0.51397689679843
  C   1.53136521090164     -0.55769674678972     -0.97003179115139
  N   2.19857418200862     -0.81439397553612     -1.90140783577583
