14
Coordinates from ORCA-job run
  C   -0.89080130588618     -0.33727909890982     -0.23953750067775
  C   0.61117643073335     -0.10597597240426      0.04328793451702
  F   -1.33446296724690      0.62723837874923     -1.11654387741139
  H   0.93389613235572     -0.89499970590021      0.73332147218760
  C   -1.11474342825733     -1.66430720658099     -0.83608255366744
  N   -1.27106197511397     -2.72643841756694     -1.31333296699789
  C   -1.65652260812780     -0.22635948587682      1.01451978752887
  N   -2.24113814852436     -0.12141653702584      2.02791654501747
  C   0.86184159100842      1.27218284681936      0.66259344910875
  H   0.50519631588219      2.05874541144713     -0.00223943282869
  H   0.35603775390596      1.35716283883925      1.62584243003651
  H   1.93192295051890      1.41000029158018      0.82124586189486
  C   1.34996901496566     -0.26552595786958     -1.21112292294842
  N   1.95769024378630     -0.38302738530069     -2.20886822575949
