14
Coordinates from ORCA-job run
  C   -0.80732803501518     -0.52977688158551     -0.16708504827312
  C   0.50428360138331      0.10209581091404      0.35189610780367
  F   -0.62735211840216     -0.92385320285034     -1.47404149572619
  H   0.33055620171437      0.39307230785825      1.39493618424204
  C   -1.18059984551226     -1.70314497876957      0.63985943328501
  N   -1.47681274064533     -2.62570903264029      1.30410843734135
  C   -1.89438293969612      0.46378281603781     -0.11522011824993
  N   -2.75490261891541      1.26068844725875     -0.05213430750960
  C   0.90651208429803      1.32484810815498     -0.47792620482052
  H   1.84667442269706      1.72769759457441     -0.09971720543246
  H   0.14438673232781      2.10287285106148     -0.40773632047568
  H   1.04296897366188      1.04733894409551     -1.52301751696264
  C   1.55285546100234     -0.92025143897591      0.32968490004265
  N   2.41214082110170     -1.71966134513359      0.29739315473540
