14
Coordinates from ORCA-job run
  C   -0.70483154528417     -0.82410665366541      0.01352967094119
  C   0.70476214160070     -0.21916508696265      0.18461618364232
  F   -0.58750305939493     -2.18855002348171     -0.12460003193851
  H   1.12926179945820     -0.70771704382237      1.06963007478020
  C   -1.51737823070257     -0.53895867398109      1.20887776743302
  N   -2.13700262040165     -0.29702090092860      2.17702048586094
  C   -1.36945553152867     -0.27463545641681     -1.17976569282968
  N   -1.87941147753921      0.18890364995924     -2.13121900994669
  C   0.66765205983450      1.29844950604646      0.37949234322666
  H   0.09342743542765      1.55620938998697      1.27099374405436
  H   0.22574742840883      1.79152331652131     -0.48808302009125
  H   1.68379042870518      1.67334375219733      0.50454843623652
  C   1.51488582746648     -0.59219696524049     -0.97632609922278
  N   2.17405534394967     -0.86607881021219     -1.90871485214631
