14
Coordinates from ORCA-job run
  C   -0.91808852126473     -0.30752363059698      0.33923158406327
  C   0.61137968424231     -0.08700302064165      0.32057267974111
  F   -1.42966212150243      0.40295149133474      1.40625586449511
  H   0.97308495144393     -0.46652180968506      1.28372047618908
  C   -1.53543167075260      0.19332615358262     -0.89968383191914
  N   -2.00529731929386      0.63061598507529     -1.88370624215426
  C   -1.24063013804529     -1.73105268180745      0.52722351683025
  N   -1.47228981969102     -2.87207151476438      0.68539335686499
  C   0.96505232076489      1.39419094442580      0.17080901021756
  H   2.04650854768100      1.51758079130322      0.24101912415479
  H   0.63653608952935      1.77760202180123     -0.79671132103000
  H   0.49469482133932      1.97202069259765      0.96648428426191
  C   1.19782568440512     -0.89527900692931     -0.74830644104392
  N   1.67731749114401     -1.52883641569572     -1.61330206067076
