14
Coordinates from ORCA-job run
  C   -0.90350111791533     -0.38413232598876      0.29152190949796
  C   0.57980105963525      0.03975137316258      0.38232513353171
  F   -1.61311179125175      0.38142025186270      1.19455115505162
  H   0.87694193321787     -0.15795281845293      1.41921948778529
  C   -1.43831383318100     -0.13732410636822     -1.05745842433423
  N   -1.85278578998641      0.09867756941989     -2.13093428981285
  C   -1.06740866896095     -1.80135410547532      0.65231012384643
  N   -1.18102313372206     -2.92491981332388      0.97601788263342
  C   0.76239707012273      1.52330933996020      0.05485150696562
  H   1.80530537101595      1.80301253751265      0.20916663533830
  H   0.13712752169745      2.12944718393387      0.71046086420441
  H   0.50076791510930      1.72821846360696     -0.98466135450533
  C   1.37484582436443     -0.81291597059811     -0.50082413518875
  N   2.01795763985448     -1.48623757925163     -1.21654649501360
