14
Coordinates from ORCA-job run
  C   -0.71425850967058     -0.70585919415989      0.20860288600191
  C   0.68023281137552     -0.11344503742018     -0.09588846330661
  F   -0.67147583543328     -1.24216288659023      1.47981178226219
  H   1.37753439966671     -0.95643012243759     -0.02073606352466
  C   -1.74853594432861      0.34087744869829      0.17287953870633
  N   -2.55126066180697      1.19843767083730      0.15828157240418
  C   -1.04645527919349     -1.78037979340079     -0.74042262981371
  N   -1.28049809270065     -2.64983276250825     -1.49510788044946
  C   1.06047777761954      0.97660854915682      0.90854921449561
  H   2.08045189018960      1.30991153351362      0.71293628042747
  H   0.39414713391204      1.83650367035836      0.82145021729898
  H   1.01004573016262      0.58212273910858      1.92346980870097
  C   0.69732155964230      0.38715733773876     -1.47006261738428
  N   0.71027302056523      0.81749084710521     -2.56276364581886
