14
Coordinates from ORCA-job run
  C   -0.88260022011683     -0.36452424038730     -0.23331455217785
  C   0.61129857171218     -0.09388454196687      0.05719403851993
  F   -1.32691118312432      0.54057423116360     -1.17114348951843
  H   0.93501977803426     -0.83633654697597      0.79662807597371
  C   -1.07714745592614     -1.72767053851662     -0.75399603119878
  N   -1.20847311128694     -2.82357698184760     -1.15642315123867
  C   -1.66869523980584     -0.19394564591515      1.00126382893879
  N   -2.26557551597844     -0.04960014758652      2.00252402548123
  C   0.83239178318216      1.32177919554376      0.59829817499276
  H   0.47476929543156      2.06250489914173     -0.11674766215221
  H   0.31053053531371      1.45482841493337      1.54745230461993
  H   1.89776238414955      1.48508255573285      0.76424354281132
  C   1.37111077460383     -0.31294008124848     -1.17557519227142
  N   1.99451960381130     -0.46129057207082     -2.15940391278030
