14
Coordinates from ORCA-job run
  C   -0.71338424799765     -0.81484191750166      0.05837106929293
  C   0.70430466275392     -0.21867278007446      0.18690212774040
  F   -0.61214887613205     -2.18543946025910     -0.01978457626423
  H   1.13348704005306     -0.67191496780871      1.08826260471853
  C   -1.50823152136226     -0.46829226538974      1.24938066566200
  N   -2.10788199518987     -0.18192262133610      2.21816394159105
  C   -1.38583693811664     -0.31178843827616     -1.15085841463927
  N   -1.90402733410709      0.11571462811160     -2.11466282487389
  C   0.68550794808234      1.30668110115966      0.31238909136840
  H   0.11519867905271      1.61247494691530      1.19131142414716
  H   1.70643198392558      1.67439361713628      0.41981694568230
  H   0.24874780268939      1.76412685240776     -0.57716882300612
  C   1.49733603823116     -0.65095589894380     -0.96524066977699
  N   2.14049675811739     -0.96856279614086     -1.89488256164224
