14
Coordinates from ORCA-job run
  C   -0.71515678864299     -0.81602797768889      0.01127495750882
  C   0.69826915367696     -0.22692944072844      0.20365003545937
  F   -0.61195784104521     -2.18337673175704     -0.11149814737869
  H   1.09821131680187     -0.70928621516952      1.10334989716913
  C   -1.54619875292967     -0.50917208406371      1.18839540475075
  N   -2.18297085252274     -0.23927656936322      2.13798970338317
  C   -1.34984305776348     -0.27181225606112     -1.20035504865681
  N   -1.83056947346015      0.17185839595449     -2.17625937099131
  C   0.67665850593736      1.29371562300630      0.37725290377159
  H   0.07825205325915      1.57231388267202      1.24649449718821
  H   0.26944856185463      1.78003739869444     -0.51101403207434
  H   1.69381496400214      1.65607575446635      0.52934388281279
  C   1.52696674671708     -0.62192397382027     -0.93661302361084
  N   2.19707546411510     -0.89619580614138     -1.86101165933181
