14
Coordinates from ORCA-job run
  C   -0.91587205549382     -0.34612453352819      0.30071655290985
  C   0.58303796003925      0.02111448318035      0.37959741054870
  F   -1.58824746315629      0.44659297413371      1.20853958535481
  H   0.87954397892157     -0.18384838895956      1.41522785875258
  C   -1.45087982274528     -0.08276083240334     -1.04521253591023
  N   -1.85587522098662      0.13808443953233     -2.12562039881795
  C   -1.13104503493105     -1.75619626710952      0.66392206784253
  N   -1.28451337416047     -2.87481120198459      0.98876957025935
  C   0.81978245128983      1.49524767726383      0.04480405441217
  H   1.87308411741248      1.73646600758164      0.19332651068326
  H   0.56113960592622      1.70549325218333     -0.99439891650192
  H   0.22073014750309      2.12724892232878      0.70056800718442
  C   1.33921281144626     -0.86455969606155     -0.50584894572441
  N   1.95190189893480     -1.56394683615720     -1.22339082099317
