14
Coordinates from ORCA-job run
  C   -0.73997115345251     -0.69928315357739      0.13392907831521
  C   0.67979761466983     -0.12774470993213     -0.08058599464889
  F   -0.75728072240184     -1.32325407479149      1.36505156876523
  H   1.35148258149085     -0.99361699811829     -0.04112760568624
  C   -1.74401219680570      0.37711368255138      0.13725412155649
  N   -2.52000837852802      1.25847005465732      0.16605160261424
  C   -1.06600287380186     -1.69492915337360     -0.89955572782307
  N   -1.29626649543139     -2.49342880887741     -1.72985228038181
  C   1.05236118742434      0.87917938876538      1.00975798125552
  H   0.41287597526886      1.76208204842722      0.95975908949604
  H   2.08731385380476      1.19516749985163      0.87295394416364
  H   0.95451235166560      0.41765925665379      1.99244887929718
  C   0.75967673685125      0.46622643712084     -1.41495137305038
  N   0.82552151924582      0.97535853064283     -2.47113328387319
