14
Coordinates from ORCA-job run
  C   -0.86859550260870     -0.43624504322158      0.32529076898826
  C   0.64157871470448     -0.11714655343025      0.25055424404976
  F   -1.31827606810579     -0.03389753230658      1.56714282904622
  H   1.10067248580052     -0.68605913774022      1.06788261492180
  C   -1.61296101864716      0.29947421328888     -0.70967881204954
  N   -2.18148464560848      0.88334138222053     -1.55578848358335
  C   -1.10895996008929     -1.88133577695630      0.18611241113907
  N   -1.28304740462076     -3.03688599580572      0.06502962511598
  C   0.91008137287534      1.37826714457548      0.43324033422915
  H   0.47890343002499      1.72235874528002      1.37339926763899
  H   0.48564382291899      1.95381701909591     -0.39119341754008
  H   1.98642980166840      1.55322493207845      0.45705778692779
  C   1.17248730394672     -0.61162396830612     -1.01953281851488
  N   1.59752766774072     -0.98828942877249     -2.04751635036916
