14
Coordinates from ORCA-job run
  C   -0.25739507536336      0.44344067764189     -0.13876686285997
  C   0.54789974083467     -0.83735002203127      0.01696348151030
  F   0.08759856138412      0.99287023510952     -1.37947748216825
  H   0.19764358884835     -1.52504223169600     -0.76832843257953
  H   0.30466773427619     -1.28099352838776      0.98646115855679
  C   0.12568354951250      1.42254822436497      0.89422659553087
  N   0.41229670631800      2.22342150999804      1.70244220234632
  C   -1.75532340437194      0.21161167702644     -0.13394938864651
  H   -2.27502170521971      1.15116813098834     -0.32488981968447
  H   -2.08078262851099     -0.18234440622720      0.83056538064202
  H   -2.01322365661527     -0.49995893992514     -0.92051684558597
  N   1.96618400625716     -0.52931675566563     -0.02504656221773
  H   2.51347737679214     -1.34257081635445      0.22255930283257
  H   2.22529520585815     -0.24748375484176     -0.96124272767644
