14
Coordinates from ORCA-job run
  C   -0.20485512758236      0.56950018698819     -0.23175998181705
  C   1.00968589597829     -0.30067078120939      0.08313253108265
  F   -0.35837681334698      0.56224155292779     -1.62309586734974
  H   1.88453864802738      0.17410867889069     -0.38308062160304
  H   1.16396347190451     -0.29431919606112      1.16564740279876
  C   0.07673294460322      1.95963578464901      0.17203539218930
  N   0.31372610523554      3.05224193080628      0.52951110381752
  C   -1.49395518683212      0.07411394237599      0.38846653530615
  H   -1.64641706489897     -0.96138059712622      0.08921651627414
  H   -1.43519660083469      0.12844253253094      1.47741496167547
  H   -2.32646515779386      0.69066137046613      0.04676755105970
  N   0.75250586744504     -1.66279523426301     -0.35999698603896
  H   0.80923764353915     -1.70353564796470     -1.36953314479819
  H   1.45387537455585     -2.28724452301056      0.01527460740330
