14
Coordinates from ORCA-job run
  C   -0.33848355258663      0.39887660697892     -0.28074291415549
  C   0.53942471349672     -0.82934679023869     -0.05203498737037
  F   -0.37309065102017      0.66585652623119     -1.64270974093585
  H   0.39506055925831     -1.16327344586302      0.98604913268278
  H   0.14120035978035     -1.60693501059556     -0.70997857510848
  C   0.26977816951493      1.56235347164133      0.39292591520659
  N   0.75423241154957      2.45321615583474      0.98408731690885
  C   -1.76529640338393      0.19301850737771      0.19319988094221
  H   -1.80367407145085      0.05533701509736      1.27475816179997
  H   -2.36975474468897      1.06007139746772     -0.07480668949419
  H   -2.18121497007187     -0.68935939500728     -0.29736786081653
  N   1.91643230771283     -0.55001769316525     -0.41863231130328
  H   2.38934030006279     -1.39159604311398     -0.71532415496504
  H   2.42704557182693     -0.15820130264520      0.36157682660884
