14
Coordinates from ORCA-job run
  C   -0.33435575875398      0.47898194732700     -0.47629336651694
  C   0.68352086303147     -0.65787748347154     -0.56047980612127
  F   -0.71704111025961      0.78490926562746     -1.78138611095644
  H   0.15195641762902     -1.53051644279678     -0.94963954465194
  H   1.43997916931518     -0.36852716772360     -1.30253046750243
  C   0.32955742585581      1.67118391860124      0.08623442275562
  N   0.89283742872854      2.58827051800990      0.55530089794422
  C   -1.56732645784850      0.11962113191552      0.32345487344085
  H   -2.06204062036186     -0.72539883108525     -0.16045576085228
  H   -2.25753123932607      0.96374530774383      0.35368807710794
  H   -1.27947279177809     -0.16249371063590      1.33522004564129
  N   1.19848222538850     -0.95438643354076      0.76839928752226
  H   1.94555506864624     -0.31402268139199      1.00727328270514
  H   1.57587937973334     -1.89148933857913      0.80021416948398
