14
Coordinates from ORCA-job run
  C   -0.23179014702820      0.53110817582567     -0.28923048629957
  C   1.02191716519598     -0.26072990429265      0.07468965963884
  F   -0.44053038571077      0.34903295640945     -1.66179767094284
  H   1.22024458423680     -0.11803524289044      1.14044009633552
  H   1.86100143451620      0.17692775858516     -0.48413611024108
  C   0.01891460042635      1.96753634083236     -0.07074304784601
  N   0.23169061609736      3.10303789171620      0.13745316908828
  C   -1.47856255000952      0.08030335917829      0.44165281116064
  H   -2.34330219877920      0.62739427674151      0.06368665205925
  H   -1.60910753604906     -0.98778424618486      0.27717271430665
  H   -1.37885960168372      0.26962267310936      1.51236810494831
  N   0.79106355861094     -1.67307080709877     -0.18886325659831
  H   0.81340912997075     -1.83672433803608     -1.18712161963104
  H   1.52291133020609     -2.22861889389518      0.23342898402137
