14
Coordinates from ORCA-job run
  C   -0.19098281543690      0.53633864712332     -0.30941193561981
  C   1.00277955878095     -0.28471816274636      0.17304751758718
  F   -0.26948589391135      0.35980702190497     -1.69584124535921
  H   1.09642142740943     -0.14965773207766      1.25415472360107
  H   1.90317878449725      0.13574652067528     -0.29672795208461
  C   0.07126051589691      1.96625548453428     -0.06274505362781
  N   0.29028602334002      3.09554653298268      0.17107682242806
  C   -1.51269317919137      0.11458167173190      0.29651865853342
  H   -1.51547033551313      0.30888331888831      1.37088307844037
  H   -1.64795682688544     -0.95163385618402      0.12423506349848
  H   -2.32448536540670      0.67633074044682     -0.16742259951339
  N   0.76805215978418     -1.69066610398651     -0.11929340280124
  H   1.44023114252346     -2.26421376113742      0.37249269707263
  H   0.88686480411268     -1.85260032215559     -1.11096637215512
