12

C	-0.514581	-0.062737	-1.418158
C	0.0	0.0	0.0
Br	0.418905	1.126458	-2.661189
H	1.09097	0.0	0.0
H	-0.34879	-1.065616	-1.805382
H	-1.565549	0.207296	-1.485942
C	-0.389776	-1.189687	0.727851
N	-0.678904	-2.206037	1.246725
N	-0.432498	1.176346	0.73252
O	-0.191875	1.188007	1.948722
O	-0.901649	2.134004	0.096853
H	2.392352	0.0	0.0
