12

C	-0.303465	0.114323	-1.488412
C	0.0	0.0	0.0
Br	-0.082689	-1.598821	-2.383293
H	1.090698	0.0	0.0
H	-1.315537	0.455607	-1.69763
H	0.433157	0.785624	-1.92714
C	-0.552082	-1.141264	0.684609
N	-0.954015	-2.100167	1.235737
N	-0.347669	1.234905	0.667898
O	-0.248493	2.271992	-0.015378
O	-0.543395	1.221525	1.892392
H	2.374439	0.0	0.0
