12

C	-0.509631	-0.10962	-1.417029
C	0.0	0.0	0.0
Br	0.373817	1.098044	-2.676876
H	1.090962	0.0	0.0
H	-1.574862	0.10324	-1.491284
H	-0.291362	-1.112819	-1.782333
C	-0.389248	-1.16885	0.761406
N	-0.674282	-2.16648	1.31715
N	-0.447734	1.196062	0.698418
O	-0.969877	2.110471	0.041518
O	-0.170073	1.262843	1.90373
H	2.407822	0.0	0.0
