12

C	-0.314919	0.084425	-1.484916
C	0.0	0.0	0.0
Br	-0.065594	-1.635652	-2.354135
H	1.090678	0.0	0.0
H	-1.335027	0.398813	-1.691716
H	0.410709	0.760503	-1.938956
C	-0.540107	-1.131145	0.712556
N	-0.938131	-2.082502	1.280299
N	-0.353816	1.244722	0.646631
O	-0.52593	1.249468	1.874326
O	-0.300884	2.269856	-0.058687
H	2.376432	0.0	0.0
