12

C	-0.518063	-0.16623	-1.408119
C	0.0	0.0	0.0
Br	0.414259	0.928254	-2.734557
H	1.090974	0.0	0.0
H	-1.570901	0.098179	-1.49144
H	-0.353864	-1.196527	-1.721202
C	-0.386051	-1.134207	0.814952
N	-0.680092	-2.101811	1.416257
N	-0.44747	1.223361	0.647706
O	-0.204168	1.322357	1.858189
O	-0.953139	2.117756	-0.049242
H	2.402514	0.0	0.0
