12

C	-0.381648	0.038375	-1.449992
C	0.0	0.0	0.0
Cl	-2.144829	0.029919	-1.775229
H	1.095633	0.0	0.0
H	0.040241	0.896747	-1.968017
H	-0.353255	-0.921284	0.465791
N	0.185606	-1.169609	-2.154824
O	0.705691	-0.968202	-3.248076
O	0.053003	-2.256105	-1.605924
C	-0.499901	1.16426	0.701623
N	-0.878764	2.119147	1.272966
H	2.673459	0.0	0.0
