12

C	-0.421523	0.064698	-1.444445
C	0.0	0.0	0.0
Cl	0.000196	1.626399	-2.157712
H	1.092648	0.0	0.0
H	0.044653	-0.718901	-2.038595
H	-0.367645	0.873388	0.542669
N	-1.910801	-0.134586	-1.60215
O	-2.655568	0.675624	-1.061344
O	-2.26558	-1.129428	-2.234295
C	-0.488217	-1.218215	0.622624
N	-0.881284	-2.20491	1.126569
H	2.685097	0.0	0.0
