12

C	-0.382597	0.086782	-1.445829
C	0.0	0.0	0.0
Cl	-2.134219	0.306071	-1.753235
H	1.092819	0.0	0.0
H	0.136906	0.920992	-1.912396
H	-0.279196	0.952051	0.463972
N	0.043758	-1.11871	-2.244819
O	-0.131774	-2.224578	-1.749829
O	0.504126	-0.887523	-3.360033
C	-0.594341	-1.077599	0.765746
N	-1.058914	-1.903474	1.46079
H	2.683095	0.0	0.0
