12

C	-0.372653	0.049504	-1.449612
C	0.0	0.0	0.0
Cl	-2.126987	0.197209	-1.780269
H	1.09475	0.0	0.0
H	0.119397	0.893848	-1.926902
H	-0.28465	0.961035	0.441201
N	0.109126	-1.153001	-2.223588
O	0.034612	-2.249472	-1.685104
O	0.510201	-0.929511	-3.362906
C	-0.591779	-1.065653	0.783581
N	-1.038258	-1.893036	1.488494
H	2.678339	0.0	0.0
