12

C	-0.375815	0.051139	-1.451364
C	0.0	0.0	0.0
Cl	-2.135576	0.054863	-1.786282
H	1.096014	0.0	0.0
H	0.05406	0.910326	-1.96031
H	-0.354741	-0.924978	0.456954
N	0.189931	-1.154416	-2.161451
O	0.050377	-2.244058	-1.620392
O	0.71938	-0.94675	-3.248887
C	-0.500276	1.158536	0.710583
N	-0.881673	2.106725	1.29113
H	2.672083	0.0	0.0
