12

C	-0.379732	0.030027	-1.450822
C	0.0	0.0	0.0
Cl	-2.141202	0.072637	-1.78013
H	1.094939	0.0	0.0
H	0.070433	0.868301	-1.977912
H	-0.358018	-0.915755	0.472916
N	0.148907	-1.203763	-2.139982
O	0.654091	-1.0347	-3.245907
O	0.001098	-2.277151	-1.568731
C	-0.494329	1.171439	0.694317
N	-0.864792	2.130118	1.26459
H	2.674682	0.0	0.0
