12

C	-0.432031	-0.036238	-1.442282
C	0.0	0.0	0.0
Cl	0.030392	1.450417	-2.280117
H	1.0931	0.0	0.0
H	0.002004	-0.878917	-1.976652
H	-0.361995	0.912543	0.478956
N	-1.92819	-0.199932	-1.568439
O	-2.640879	0.685399	-1.107828
O	-2.321592	-1.24282	-2.090861
C	-0.488059	-1.168442	0.711655
N	-0.856028	-2.123951	1.289349
H	2.680575	0.0	0.0
