14
Coordinates from ORCA-job run
  C   0.69445408149029      0.37783266959366     -0.36951436802399
  C   -0.74165531205277     -0.14859414353509     -0.45367848264075
  Br  1.44010855480803      0.28269227184139     -2.16626620579941
  H   -0.75694330716063     -1.17847657658447     -0.81536349179843
  H   0.66477380570291      1.43680250428122     -0.10900214665997
  C   1.54351145439140     -0.41413218047685      0.60700670870863
  H   1.17468006731967     -0.27643543201042      1.62666472892782
  H   1.53119240179879     -1.47893482038470      0.36561804452566
  H   2.57486532943140     -0.06270829816118      0.57247124029205
  C   -1.61258720767491      0.69830771360045     -1.26052206497802
  N   -2.31752897172423      1.37610979419227     -1.91053121152923
  N   -1.28601547753529     -0.19357373303028      0.95873188619477
  O   -1.42015900680012      0.88717653951698      1.52112423695177
  O   -1.48869641199455     -1.30506630884298      1.43426112582911
