14
Coordinates from ORCA-job run
  C   0.61267040451447     -0.52752143767015     -0.10260837674320
  C   -0.72518988122598      0.19725363038839     -0.23869773012194
  Br  0.61038259910108     -1.59227883258715      1.52621688133183
  H   -0.73929357342538      0.70759397957684     -1.20869991402885
  H   0.67777337085332     -1.24243696668044     -0.92379013090309
  C   1.77796708508736      0.44394342931474     -0.10813872218884
  H   1.73081178571638      1.12095854988159      0.74633066772476
  H   2.71992344981739     -0.10315492012002     -0.06200122789679
  H   1.76653489602220      1.03463767939787     -1.02963495501310
  C   -0.96937061788368      1.15946396802661      0.82697443033892
  N   -1.10678540002641      1.97981865584931      1.65591893370962
  N   -1.85409727626987     -0.81277385923955     -0.32688046688998
  O   -1.74822375298504     -1.60841515607915     -1.25275185942453
  O   -2.75310308929586     -0.75708872005888      0.49976247010519
