14
Coordinates from ORCA-job run
  C   0.62091058513659     -0.51563284286833     -0.12176868246439
  C   -0.73577068285200      0.18022781358123     -0.21222393707722
  Br  0.70043381121993     -1.57045001409909      1.51153986817533
  H   -0.79583850242576      0.68599874870573     -1.18286549507628
  H   0.67170745613170     -1.23381377638180     -0.94107646431250
  C   1.76408275510289      0.48052652760782     -0.17456438381860
  H   1.70502025171690      1.06720554053224     -1.09684167804682
  H   1.73452410437777      1.15980821735555      0.67892847909457
  H   2.71879158329191     -0.04593575277656     -0.16236083980658
  C   -0.96282546206315      1.14269573672203      0.85712336561670
  N   -1.10403722584068      1.96970298658324      1.67869317325053
  N   -1.84539853985226     -0.85376771266031     -0.25565965404783
  O   -2.71330767270254     -0.81621432972279      0.60466293494563
  O   -1.75729246124131     -1.64935114257897     -1.18358668643253
