14
Coordinates from ORCA-job run
  C   0.70052410601713      0.46589130208802     -0.22966995137222
  C   -0.69716901314439     -0.08206211203658     -0.53422005349781
  Br  1.58373795983341      0.75160489875107     -1.94172005744753
  H   -0.63382715200063     -1.02106668397607     -1.08737384538311
  H   0.59865433934393      1.45112094719637      0.22764571045349
  C   1.51229555820351     -0.47326309260748      0.64249243124802
  H   2.52252268663934     -0.08294471315021      0.76684034820248
  H   1.57659908218582     -1.46794056564307      0.19671087514327
  H   1.05887280934103     -0.55710751207283      1.63354895098704
  C   -1.54529091362165      0.87636006956516     -1.23338374277697
  N   -2.23000883655539      1.64615471827842     -1.79658791785481
  N   -1.34485476748862     -0.42128580206171      0.79206796724482
  O   -1.57693770727061      0.52327576850415      1.53801528215564
  O   -1.52611815148291     -1.61073722283524      1.02663400289769
