14
Coordinates from ORCA-job run
  C   0.61487342810617     -0.52623597686019     -0.09477524497947
  C   -0.72871967612214      0.18643926998100     -0.23651313385893
  Br  0.63558150196565     -1.54693451708446      1.56187075698688
  H   -0.75612290659488      0.67090668194252     -1.21946087895525
  H   0.67638372149366     -1.26262215042608     -0.89701842579062
  C   1.77392712788568      0.45172773237601     -0.13817111601043
  H   1.73144971938392      1.15052729113415      0.69883961575763
  H   2.71976437452848     -0.08831885625683     -0.08789704439246
  H   1.74896712888597      1.01804656248312     -1.07462581795504
  C   -0.96850849448881      1.17550924676027      0.80537025767488
  N   -1.10264445684272      2.01669003903577      1.61356724943401
  N   -1.85216437240913     -0.83228841451565     -0.28650314041479
  O   -1.75044700352255     -1.65140319008031     -1.19221966411361
  O   -2.74334009226930     -0.76004371848932      0.54753658661718
