14
Coordinates from ORCA-job run
  C   0.63944641737004     -0.48146242700502     -0.15370995213845
  C   -0.74530873718767      0.16099352850975     -0.20135843534989
  Br  0.77045946788581     -1.62360714958251      1.41639060228796
  H   -0.83175631410419      0.71556937689094     -1.14296477072691
  H   0.71627561589068     -1.14955362135718     -1.01246375224225
  C   1.74029073544162      0.56272747657201     -0.15216357175849
  H   1.65208011957824      1.19914661796716     -1.03848057981154
  H   1.68755845966038      1.18931866798699      0.73969436178215
  H   2.71573838431491      0.07597526385716     -0.17353538996060
  C   -1.00476339093117      1.05338471459194      0.92011978422955
  N   -1.15724261745919      1.82178552693768      1.79476682711495
  N   -1.81160408798434     -0.91377751566982     -0.29675501238013
  O   -1.69585295552630     -1.65430658773239     -1.26627107470047
  O   -2.67632109694882     -0.95719387196672      0.56673096365414
