15

C	-0.005236	-0.036233	-0.050502
C	-0.248505	-0.451128	-1.530972
Cl	1.80938	-0.026024	0.18877
H	0.45049	0.171891	-2.099199
N	-0.527231	1.274763	0.150431
H	-1.583318	1.100291	0.185335
H	-0.24577	1.58346	1.076387
C	-0.494716	-1.062416	0.895402
N	-0.813834	-1.86901	1.688838
N	-1.595019	-0.238639	-2.019294
H	-2.258392	-0.26216	-1.215112
H	-1.637572	0.72565	-2.327192
C	0.163986	-1.853619	-1.735936
N	0.494903	-2.962573	-1.934817
F	-2.903426	0.34148	0.179352
