15

C	0.010723	-0.0329	0.017775
C	-0.531952	-0.098174	-1.411835
Cl	1.857246	0.094312	-0.051261
H	-1.633551	-0.094142	-1.221901
N	-0.548893	1.088021	0.665731
H	-0.362016	1.043087	1.660979
H	-1.602599	0.987463	0.465121
C	-0.227844	-1.3299	0.686004
N	-0.427878	-2.298479	1.321441
N	-0.091114	-1.303038	-2.093431
H	0.845044	-1.177632	-2.460353
H	-0.71495	-1.494873	-2.866178
C	-0.19704	1.13837	-2.134128
N	0.072053	2.046821	-2.830072
F	-2.867235	0.428805	-0.148947
