14

C	0.0	0.0	0.0
C	-0.722812	0.018114	-1.322069
F	1.337913	0.0	0.0
H	-1.817905	0.145723	-1.060243
H	-0.408557	-0.773171	0.648639
N	-0.302999	1.371964	0.695768
O	-1.470326	1.662223	0.880105
O	0.677709	2.037368	1.011182
N	-0.648087	-1.325082	-2.001419
O	-1.07089	-1.376073	-3.149536
O	-0.229849	-2.269716	-1.34067
C	-0.225767	1.037886	-2.227956
N	0.207906	1.870009	-2.93408
Cl	-3.729616	0.0	0.0
