14

C	0.0	0.0	0.0
C	-0.368434	0.350526	-1.462142
F	1.347744	0.0	0.0
H	0.549307	0.089032	-1.999842
H	-0.400986	-0.968209	0.282669
N	-0.392122	0.945204	1.10763
O	-0.625433	2.116086	0.852175
O	-0.31108	0.442139	2.223868
N	-0.465229	1.836763	-1.750878
O	-1.525741	2.303058	-2.130572
O	0.597586	2.438694	-1.626618
C	-1.429323	-0.402855	-2.1254
N	-1.915664	-1.061864	-2.971542
Cl	-2.987532	0.0	0.0
