15

C	0.0	0.0	0.0
C	-0.563601	-0.050836	-1.41942
Br	1.951293	0.0	0.0
H	-1.620479	-0.338471	-1.284132
H	-0.331077	0.933917	0.454259
C	-0.389366	-1.106468	0.874512
N	-0.590657	-1.970603	1.644197
N	0.093072	-1.144739	-2.199161
O	0.146019	-2.249499	-1.663994
O	0.515457	-0.891663	-3.328551
C	-0.480041	1.283815	-2.121174
H	0.543873	1.661406	-2.163187
H	-0.861184	1.200513	-3.137871
H	-1.119108	1.979485	-1.57347
Cl	-3.387217	0.0	0.0
