15

C	0.0	0.0	0.0
C	-0.558858	-0.018385	-1.42437
Br	1.951337	0.0	0.0
H	-1.605125	-0.342463	-1.311173
H	-0.334187	0.919712	0.479048
C	-0.397881	-1.134626	0.832984
N	-0.601155	-2.030612	1.565557
N	0.137253	-1.067923	-2.233698
O	0.627721	-0.750116	-3.317733
O	0.157786	-2.201627	-1.760923
C	-0.508384	1.340162	-2.080256
H	-1.185797	1.991599	-1.524066
H	-0.863189	1.277427	-3.108157
H	0.502303	1.754705	-2.085938
Cl	-3.382348	0.0	0.0
