15

C	0.0	0.0	0.0
C	-0.399867	-0.258887	-1.479315
Br	1.94916	0.0	0.0
H	0.507054	-0.140196	-2.079068
H	-0.347348	0.97736	0.32504
C	-0.408531	-1.043722	0.931596
N	-0.581545	-1.877112	1.741867
N	-1.21778	0.887027	-2.030825
O	-0.991887	2.001726	-1.572668
O	-1.894376	0.653926	-3.023768
C	-0.977053	-1.624608	-1.781527
H	-1.909376	-1.759697	-1.237628
H	-1.154628	-1.714329	-2.852525
H	-0.246345	-2.381765	-1.481414
Cl	-3.148708	0.0	0.0
