15

C	0.0	0.0	0.0
C	-0.562415	-0.075372	-1.420341
Br	1.951267	0.0	0.0
H	-1.615692	-0.373685	-1.285597
H	-0.328601	0.94297	0.437063
C	-0.398125	-1.08919	0.8898
N	-0.610873	-1.945167	1.665598
N	0.108335	-1.171471	-2.185888
O	0.182312	-2.265586	-1.632493
O	0.519836	-0.93168	-3.32158
C	-0.493957	1.250803	-2.138391
H	-1.139372	1.945893	-1.597717
H	0.525893	1.638351	-2.186424
H	-0.876428	1.151119	-3.153059
Cl	-3.390649	0.0	0.0
