15

C	0.0	0.0	0.0
C	-0.57523	-0.001865	-1.424706
Cl	1.779916	0.0	0.0
H	-1.695055	0.002565	-1.162249
N	-0.450615	1.239829	0.590441
H	-1.479037	1.144502	0.592818
H	-0.141377	1.26963	1.556851
N	-0.448963	-1.239565	0.592729
H	-0.135295	-1.26942	1.557745
H	-1.47809	-1.14677	0.595803
C	-0.249462	-1.204004	-2.176962
N	-0.020168	-2.152206	-2.832331
C	-0.24193	1.193275	-2.183598
N	-0.004098	2.134375	-2.844918
H	-2.902663	0.0	0.0
