15

C	0.0	0.0	0.0
C	-0.587299	0.022419	-1.41905
Cl	1.779914	0.0	0.0
H	-1.710375	0.020364	-1.146297
N	-0.44726	1.229767	0.613419
H	-0.132152	1.240674	1.578318
H	-1.475879	1.133462	0.617444
N	-0.448487	-1.246735	0.576835
H	-1.477435	-1.150969	0.578398
H	-0.139534	-1.282359	1.543534
C	-0.263901	-1.165207	-2.196635
N	-0.035277	-2.098548	-2.873479
C	-0.259715	1.232719	-2.158518
N	-0.029962	2.187137	-2.804458
H	-2.897176	0.0	0.0
