15

C	0.0	0.0	0.0
C	-0.57372	-0.00951	-1.437087
Cl	1.790845	0.0	0.0
H	-1.698011	-0.017796	-1.158925
N	-0.430153	1.162921	0.735592
H	-0.126428	2.012211	0.269317
H	-1.45972	1.10867	0.702873
N	-0.47075	-1.211569	0.600822
H	-1.500795	-1.124414	0.546753
H	-0.220773	-1.162063	1.583836
C	-0.224499	-1.188196	-2.213613
N	0.013539	-2.135792	-2.866718
C	-0.269493	1.212822	-2.16127
N	-0.050849	2.222734	-2.723746
H	-2.876105	0.0	0.0
