15

C	0.0	0.0	0.0
C	-0.563006	0.029358	-1.442492
Cl	1.792842	0.0	0.0
H	-1.685524	0.037221	-1.178716
N	-0.472526	1.205978	0.612971
H	-1.50281	1.115036	0.560591
H	-0.222058	1.148502	1.595675
N	-0.432583	-1.171445	0.71793
H	-0.122299	-2.016844	0.247275
H	-1.462214	-1.119027	0.681346
C	-0.255763	-1.185879	-2.179688
N	-0.035883	-2.187828	-2.754129
C	-0.201027	1.215761	-2.202373
N	0.049945	2.166882	-2.846475
H	-2.88851	0.0	0.0
