13
Coordinates from ORCA-job run
  C   0.99624265245774      0.47845838959445     -0.23586645825845
  C   -0.31981014585438      0.19237736631423     -0.12843669356946
  H   1.28290459756157      1.33487595331065     -0.83615409224381
  N   2.02051157213211     -0.16244460551562      0.41095803990641
  H   2.93828839655394     -0.02485613619517      0.02457487408604
  H   1.85425171938768     -1.09905025144269      0.73957182167107
  C   -0.95132587185972     -0.90704953950035      0.65848954860384
  H   -1.41102632133048     -1.65452296249683      0.00796337095534
  H   -0.21334426516921     -1.40128622284802      1.29385321512222
  H   -1.73790650473812     -0.51418693139571      1.30436749244342
  N   -1.23431218240178      1.03730640210365     -0.88271991949432
  O   -0.79712223365159      1.99697339897245     -1.51892614701318
  O   -2.42735141308776      0.72240513909895     -0.83767505220913
