13
Coordinates from ORCA-job run
  C   0.99415754850057      0.53693938115210      0.02333644616700
  C   -0.30967488125342      0.21287200627266     -0.11994650690237
  H   1.28121071679388      1.57065290732065     -0.13465106455891
  N   2.02292592075293     -0.33270855208756      0.27382791220943
  H   1.79728939561550     -1.21978516671729      0.69206566104859
  H   2.87158457653277      0.07767144140985      0.62275286916407
  C   -0.93374592399770     -1.13575143697417      0.01672196663444
  H   -1.60076002747128     -1.18343675420444      0.88041212987500
  H   -0.16877222083484     -1.90796290666268      0.12174307087592
  H   -1.53023986052692     -1.37430562503542     -0.86509584562340
  N   -1.22286512830372      1.30424980962376     -0.42535090695752
  O   -0.78186068986134      2.44119214561403     -0.59825755221462
  O   -2.42024942594641      1.00937275028852     -0.48855817971762
