13
Coordinates from ORCA-job run
  C   0.94091493092852      0.59189679759229      0.20379830665151
  C   -0.32797389101580      0.21119622985595     -0.06153230088699
  H   1.16912375859346      1.65178281622349      0.17914018236974
  N   1.97039847851998     -0.22810404642662      0.58618008238650
  H   2.89590442575148      0.14762413897328      0.47292933659628
  H   1.89889110392104     -1.20594437955323      0.35901410391081
  C   -0.88207392268346     -1.17452429217900     -0.05744504839353
  H   -1.77926308991755     -1.22725767722794      0.56099017798378
  H   -0.15475120578164     -1.88076775995350      0.34842284505057
  H   -1.16306106973699     -1.49843895534090     -1.06209539134945
  N   -1.26595111841902      1.26730180577814     -0.41246174007193
  O   -0.90191859819183      2.44357640282090     -0.38349884918317
  O   -2.40123980196820      0.90165891943715     -0.73144170506409
