13
Coordinates from ORCA-job run
  C   1.03697224168133     -0.19595887953882      0.26542704909658
  C   -0.30041694633115     -0.07698655974250      0.03091115683851
  H   1.34985214294554     -1.09386990077933      0.79205524844414
  N   2.03897989317888      0.67497751601743     -0.00177995645005
  H   2.98183660854875      0.33136395788216      0.02905708666324
  H   1.82618870696814      1.44746878441710     -0.61257193224417
  C   -1.31022450351128     -1.09868409659445      0.44596025671189
  H   -2.05972670825248     -0.66400208152879      1.11083083009637
  H   -0.81528266894084     -1.91918681690319      0.96899099778962
  H   -1.84260406935796     -1.50298412942082     -0.41751115423763
  N   -0.82319565861653      1.05761172457253     -0.67724460719269
  O   -0.04243801572060      1.94892550357590     -1.05346258185938
  O   -2.03994102259180      1.09032497804277     -0.88166239365644
