13
Coordinates from ORCA-job run
  C   0.99789550805361      0.51255265618473     -0.13653262067441
  C   -0.29792637225457      0.13825615800760     -0.21891559765626
  H   1.30808988860479      1.39281949618900     -0.68874390921925
  N   1.99610052938054     -0.15883044685930      0.51873524727123
  H   2.82697747925750      0.37007883123732      0.71890486030176
  H   1.73340134600986     -0.79924724822618      1.24908699708424
  C   -0.94878162244596     -1.04005878290564      0.42515062941387
  H   -1.66888123884350     -0.73410512535936      1.18735209228581
  H   -1.49250657450031     -1.63043968350944     -0.31388647104563
  H   -0.20290132752097     -1.68957198188383      0.88815341040375
  N   -1.17430286431429      0.99341886994469     -1.00587773124675
  O   -0.70609815231675      1.95961397522693     -1.60950027703712
  O   -2.37006659910995      0.68551328195349     -1.01392662988125
