13
Coordinates from ORCA-job run
  C   1.00905030730416      0.50888250285468     -0.00431019678775
  C   -0.30668289568608      0.22143394162573     -0.11275758204522
  H   1.34633843820710      1.48189707415667     -0.34408684638593
  N   1.96696983023651     -0.28178471336278      0.57375229006107
  H   2.91962616196628     -0.06487981330463      0.33778948676129
  H   1.78000602995317     -1.26752923087839      0.65125671916516
  C   -1.00370443707151     -1.02878784557418      0.30916428256988
  H   -0.32804641982672     -1.67870774219207      0.86922343910169
  H   -1.85336256635490     -0.79655020601525      0.95299851030337
  H   -1.39065239556120     -1.58220404619499     -0.54936976724741
  N   -1.14692757162354      1.23644454292107     -0.73088028554294
  O   -0.65695031875664      2.31567126155278     -1.06584402429309
  O   -2.33466416278662      0.93711427441135     -0.88693602566011
