13
Coordinates from ORCA-job run
  C   1.05524709947663     -0.21995774039784      0.14755747761746
  C   -0.28763458487689     -0.10600420258821     -0.05717451974928
  H   1.43287043543943     -1.23072720662967      0.27889542525085
  N   2.01054770708366      0.73971673382381      0.14760099042936
  H   2.90788110949937      0.51167086842249      0.53583247223188
  H   1.70111554247967      1.69814452101625      0.17480269156007
  C   -1.22270673381524     -1.27222102380357     -0.09704329240072
  H   -1.75087286881476     -1.32098517081093     -1.05171958518078
  H   -0.66480127350742     -2.20051724339986      0.03996089427773
  H   -1.98069683407289     -1.19936485970633      0.68573326473192
  N   -0.89776603193447      1.18300637632333     -0.22277121488291
  O   -0.18180955516724      2.19917999171706     -0.19999677445304
  O   -2.12137401178985      1.21805895603346     -0.38167782943254
