13
Coordinates from ORCA-job run
  C   0.98361875372939      0.55320276733496      0.06454942068489
  C   -0.32395477273668      0.22393435381577     -0.02014487122300
  H   1.24933155097489      1.60217366576687     -0.00603167818868
  N   2.02140960227897     -0.30583374166336      0.31564790759082
  H   1.88072657051539     -1.28239426219712      0.11719446149755
  H   2.93795765176409      0.02969300812067      0.07508620137417
  C   -0.92914238568902     -1.13654096648442      0.07802766505420
  H   -1.37079439242645     -1.44921160293454     -0.87078431812340
  H   -0.17976268242092     -1.87309932563562      0.37548346529854
  H   -1.72501255321570     -1.15010538473976      0.82421604301157
  N   -1.25735471722766      1.31625898430075     -0.25346235335634
  O   -0.84364471215291      2.47538310392408     -0.30006427747225
  O   -2.44137791339340      0.99753940039172     -0.39871766614808
