13
Coordinates from ORCA-job run
  C   1.06498207650511     -0.22279228918195     -0.00664593609242
  C   -0.29261580548466     -0.10359839427438      0.02964174941163
  H   1.45498080518392     -1.23737313692008     -0.00581272083580
  N   2.01402304951311      0.74188594402538      0.01963748207170
  H   1.71200153555407      1.69292229492613     -0.11839912255373
  H   2.95355371974371      0.49111128216562     -0.22911594547900
  C   -1.22773384560986     -1.26993003001407      0.06226518183234
  H   -0.65918987419742     -2.20189137664779      0.06354795845337
  H   -1.89441421894818     -1.26681937348918     -0.80260715434691
  H   -1.85778854545426     -1.24537949196696      0.95398739787073
  N   -0.91624621467879      1.18942588994295      0.01562822053099
  O   -0.20160523114687      2.20634269026008     -0.01554167910950
  O   -2.14994745097986      1.22709599117426      0.03341456824660
