13
Coordinates from ORCA-job run
  C   0.99157913157991      0.54226344969774     -0.00880418566911
  C   -0.31934656123766      0.22075075458148     -0.06694112158839
  H   1.26118916552275      1.59033695534282     -0.07805661391884
  N   2.04091187193809     -0.33734779498480      0.04797936120673
  H   1.85605101543657     -1.26752177886896      0.38478100663512
  H   2.91622771878086      0.04267060169090      0.36407728159632
  C   -0.92682798395318     -1.14149408512454     -0.02212597284394
  H   -1.51640156888070     -1.28811727441662      0.88555780125151
  H   -1.59698252466634     -1.29159516895890     -0.86994478727258
  H   -0.15432472323999     -1.91207169648321     -0.06643775989488
  N   -1.25838698729338      1.32875294956772     -0.16616655247673
  O   -2.45606061343223      1.02871475898658     -0.15225474997260
  O   -0.83662794055469      2.48265832896979     -0.25266370705261
