13
Coordinates from ORCA-job run
  C   1.00817466561709     -0.13666116570255      0.38665349820896
  C   -0.29535504064156     -0.09746432307641     -0.00958657901498
  H   1.31039940001010     -1.02132890504447      0.94113799120314
  N   1.97878243726352      0.79739880965012      0.24791479585699
  H   1.79356890637318      1.56431544629029     -0.37858142084718
  H   2.93059469662097      0.51314283718854      0.39332236920452
  C   -1.28371963363077     -1.18176525848201      0.27875670710314
  H   -1.68534238355673     -1.60735434139769     -0.64325938854533
  H   -2.13126558412038     -0.79952008419238      0.85170461725835
  H   -0.80543914264713     -1.97738686541579      0.85314337214212
  N   -0.79950706684973      1.01424358076486     -0.76617649207923
  O   -1.98326773333345      0.97680362496064     -1.11346760709019
  O   -0.03562352110512      1.95557664445685     -1.04156186340032
