13
Coordinates from ORCA-job run
  C   1.00230882923833      0.49698840593017      0.15974756896708
  C   -0.31550975942171      0.23495476129225      0.01728273544419
  H   1.30449646589853      1.53202811324530      0.27526526286440
  N   2.00845751784477     -0.42801019529207      0.25547015230527
  H   2.93749994546186     -0.08812507926287      0.07721486430856
  H   1.83553340660214     -1.35096747933445     -0.10642963864930
  C   -0.97032918473328     -1.09828842782533     -0.12640448791687
  H   -0.24482830012509     -1.90335161734898      0.00775547078509
  H   -1.75318041994802     -1.22576794808410      0.62295787857882
  H   -1.43962264041258     -1.20985466609678     -1.10624278703544
  N   -1.20864002732671      1.38379548087039     -0.01379048486036
  O   -2.40461804747749      1.13730565483774     -0.19715557809827
  O   -0.75256778560076      2.51829299706872      0.13432904330682
