13
Coordinates from ORCA-job run
  C   1.04009187868175     -0.13671245981437      0.28939809474253
  C   -0.29321806998457     -0.10499194075296      0.00805259774443
  H   1.35517421019917     -0.87704393504028      1.02020493320239
  N   2.05216334964951      0.57835701466354     -0.25607869498328
  H   2.93470933464771      0.58847133692856      0.22227870681381
  H   1.80251021540062      1.36938543449110     -0.82783424530294
  C   -1.29826874805527     -1.00895248432670      0.64728013987784
  H   -0.79883357614880     -1.68961866254999      1.33939191868977
  H   -2.05054241133604     -0.43923982378780      1.19687716207790
  H   -1.82792974571153     -1.60116255854591     -0.10203799262625
  N   -0.82362512472210      0.84779528057329     -0.92611868998917
  O   -2.04329642179078      0.84183329855687     -1.11526192679374
  O   -0.04693489082968      1.63287949960463     -1.49715200345329
