13
Coordinates from ORCA-job run
  C   1.04062861346856     -0.21802444097624      0.23191082693322
  C   -0.29750234876698     -0.09244146243394      0.00441636505433
  H   1.34211632358222     -1.06361256557980      0.84471725305980
  N   2.06825559492983      0.52222852342851     -0.24695150286912
  H   1.83771115803527      1.39361209393543     -0.69703496234056
  H   2.96371282694371      0.43025668763835      0.19743609125120
  C   -1.32385432451465     -1.03302165438776      0.55011729576063
  H   -1.90058889033977     -1.49617867883219     -0.25340877008953
  H   -0.83616725258244     -1.82085111233920      1.12733487205326
  H   -2.03429761948964     -0.51280339036710      1.19603511510721
  N   -0.81021133748497      0.99986289047310     -0.77356354164357
  O   -2.03367560079980      1.06942314525622     -0.92085151364062
  O   -0.01512714298133      1.82254996418462     -1.26015752863625
