13
Coordinates from ORCA-job run
  C   0.98008321203082      0.01674867728634      0.47296891634170
  C   -0.26850972586150     -0.15088439035681     -0.04763333047056
  H   1.27719796203806     -0.69667457507032      1.23728000655924
  N   1.94151232349691      0.90770717848538      0.13337858793129
  H   2.70985281529517      1.03604495823124      0.76663201790391
  H   1.66985878177324      1.67475858900822     -0.46062721182532
  C   -1.20895202247435     -1.23115685856397      0.38181777921126
  H   -1.49295229505722     -1.86404020050272     -0.46166612525976
  H   -0.73546016815057     -1.85557028270774      1.14183630356942
  H   -2.13003328176965     -0.81390727598328      0.79428013822933
  N   -0.77363333051273      0.74812418781712     -1.04673866875287
  O   -1.92127322291448      0.55585734218242     -1.45833780851336
  O   -0.04769104789370      1.67199265017412     -1.45319060492429
