13
Coordinates from ORCA-job run
  C   0.96736951701980      0.55571426931670      0.18029529648029
  C   -0.30170110369229      0.21553028711658     -0.13482377217513
  H   1.23509194265393      1.60603390631214      0.14730509212064
  N   1.99133239491506     -0.30819072446041      0.46601741563062
  H   1.75348969158880     -1.23705695392263      0.77131642437958
  H   2.78369147495012      0.08741897821979      0.94128804075222
  C   -0.89218040040847     -1.15403037266827     -0.18550070229470
  H   -1.64854190448177     -1.29361557876947      0.59004040825555
  H   -1.37923193776194     -1.32760107980533     -1.14625998404533
  H   -0.11830744577444     -1.91443807387853     -0.06105547625283
  N   -1.21233753326387      1.30866470877611     -0.44136159244215
  O   -2.38606590704459      0.99324639540455     -0.65942699774682
  O   -0.79260878870033      2.46632423835876     -0.46683415266192
