13
Coordinates from ORCA-job run
  C   1.00806608801859     -0.13856001777918      0.38564306065382
  C   -0.29302344261545     -0.10490942253469     -0.01980683295022
  H   1.33687188272313     -1.06216644079554      0.85498750162152
  N   1.94576300468626      0.83703070702164      0.35023342995591
  H   2.90546557292138      0.57671472345197      0.48755583333344
  H   1.73866720711913      1.65814297897118     -0.19542853326437
  C   -1.24231535583199     -1.24897347478095      0.14099417455956
  H   -0.74107176837087     -2.08039641487928      0.64025768956513
  H   -1.61499763497725     -1.59326517275333     -0.82601051976252
  H   -2.11155775709704     -0.95906998117001      0.73524939685938
  N   -0.82831716368688      1.05644798165837     -0.67244841362934
  O   -2.00592642318793      1.01171330665172     -1.03947663495860
  O   -0.09662420970108      2.04729122693811     -0.84175015198370
