13
Coordinates from ORCA-job run
  C   1.01879125378718      0.44846008317291     -0.19748093972282
  C   -0.30956487169913      0.22595982165732     -0.09184071010418
  H   1.34481464710077      1.36155881450121     -0.68313406219613
  N   2.01518831401929     -0.33313268862394      0.32715107876079
  H   1.79849989989602     -1.29528130695610      0.52785254277184
  H   2.93154682431609     -0.19664023146329     -0.06305338119774
  C   -0.99103596819042     -0.93229979293234      0.55681348593165
  H   -1.73896781185244     -0.58578308418856      1.27149751724771
  H   -1.50856433667740     -1.55619524390804     -0.17536474932854
  H   -0.27204165819853     -1.55019948560524      1.09893581947819
  N   -1.18651189132232      1.21742741970836     -0.69847785157251
  O   -0.70504029906148      2.23005643732259     -1.20804965062149
  O   -2.39511410211762      0.96706925731512     -0.66484909944676
