13
Coordinates from ORCA-job run
  C   1.00598091230785      0.51421576821270      0.02427933967544
  C   -0.30570742883318      0.22151400747021     -0.11460363796707
  H   1.31487163128137      1.54364683459226     -0.12008091937241
  N   2.01711738301187     -0.38152857023778      0.25366064905626
  H   1.77513019389963     -1.27030518215840      0.65891447011514
  H   2.87681787988098      0.00472501166648      0.60309775271940
  C   -0.95893025295616     -1.11471215082436      0.00669157744708
  H   -1.56561283928812     -1.32750119096552     -0.87480619655336
  H   -0.21074189988163     -1.90513704970521      0.09604125038377
  H   -1.62185619358430     -1.16008046801298      0.87361233690599
  N   -1.19637785597161      1.33765764122304     -0.39636797861185
  O   -0.73107940709170      2.46669366640614     -0.55682551438410
  O   -2.40061212277499      1.07081168233342     -0.45361312941430
