13
Coordinates from ORCA-job run
  C   1.01591189339673     -0.13851699805568      0.36343335057306
  C   -0.28409406062214     -0.12015881277938     -0.04635058582429
  H   1.32180477988368     -1.00930866134127      0.93756399507901
  N   2.01132653646541      0.74295751875741      0.10908193214580
  H   2.84333861016175      0.69098656111656      0.66837213013063
  H   1.75194697609546      1.62936015403732     -0.29330487049629
  C   -1.26504685564119     -1.20734160503762      0.25626842566161
  H   -2.11162900270648     -0.82777179255824      0.83229669428943
  H   -1.66943783023678     -1.63986055107207     -0.66143728475957
  H   -0.77769184337944     -1.99874755065742      0.82890846399787
  N   -0.80219889767655      0.99034355416474     -0.79443008926205
  O   -1.99316509081628      0.95444886170274     -1.11653299498840
  O   -0.04406521492419      1.93260932172291     -1.08286916654681
