13
Coordinates from ORCA-job run
  C   1.05596915543998     -0.16810740455081      0.20018860066716
  C   -0.28719798791592     -0.11843780437744     -0.02693288422980
  H   1.49244785746242     -1.16177300360367      0.26001428570819
  N   1.92803982485900      0.84163182556231      0.43039806493419
  H   1.60744488567483      1.77892408363072      0.24674220457313
  H   2.90953359137970      0.64414453515517      0.35655391325226
  C   -1.14489186730321     -1.33124532810722     -0.19850246733053
  H   -1.62558283683924     -1.34109166375101     -1.17900893561782
  H   -0.53807158403509     -2.23289366685498     -0.09587949331339
  H   -1.94042248729383     -1.35995751075026      0.54922979467325
  N   -0.96500057790173      1.14132145503436     -0.14690844565071
  O   -2.17689929853103      1.11612911153227     -0.37981443250968
  O   -0.31536867499589      2.19335537108057     -0.01708020515626
