16

C	-0.609854	0.010431	-1.567476
C	0.128804	-0.039178	-0.20523
Cl	-2.396002	0.13283	-1.316432
H	1.197463	-0.091086	-0.446341
C	-0.192843	1.185827	-2.335941
N	0.148373	2.090832	-3.002555
C	-0.362663	-1.194595	-2.364504
N	-0.14517	-2.16649	-2.988257
C	-0.230605	-1.276711	0.60649
H	-1.275273	-1.242632	0.92894
H	-0.061444	-2.205723	0.054009
H	0.422178	-1.266678	1.481029
N	-0.090386	1.229458	0.455397
H	-0.89302	1.153011	1.070997
H	0.730839	1.376144	1.047728
Br	2.769503	0.41891	2.094608
