16

C	-0.664222	-0.037935	-1.587615
C	0.144434	-0.057431	-0.271433
Cl	-0.157842	1.366067	-2.607337
H	1.206027	-0.117646	-0.556185
C	-0.427991	-1.247151	-2.381648
N	-0.228511	-2.22091	-3.008321
C	-2.099985	0.092529	-1.322001
N	-3.261536	0.14401	-1.154435
C	-0.218206	-1.28535	0.550087
H	-0.028693	-2.214142	0.00657
H	0.415497	-1.265076	1.439319
H	-1.266961	-1.24064	0.855876
N	-0.194185	1.139036	0.473965
H	0.23657	1.938197	0.019492
H	0.311735	1.054006	1.360577
Br	2.437234	0.439289	2.521629
