16

C	-0.624228	-0.017988	-1.558491
C	0.131223	-0.03835	-0.204641
Cl	-2.407924	0.099835	-1.28779
H	1.201993	-0.090667	-0.459309
C	-0.223133	1.145127	-2.353541
N	0.104804	2.039997	-3.040188
C	-0.380412	-1.23645	-2.335799
N	-0.165784	-2.219323	-2.943113
C	-0.212367	-1.261991	0.634367
H	0.452469	-1.233876	1.499387
H	-0.048093	-2.200578	0.096823
H	-1.252556	-1.225079	0.97077
N	-0.08509	1.24129	0.434839
H	-0.87874	1.172878	1.062879
H	0.743575	1.402875	1.012747
Br	2.799309	0.47123	2.050352
