12

C	0.0	0.0	0.0
C	-0.47859	0.228953	-1.435606
F	1.375728	0.0	0.0
H	-0.17796	-0.636074	-2.033435
H	-1.577849	0.283581	-1.395918
C	-0.414662	1.077919	0.917673
N	-0.571104	1.929998	1.710664
C	-0.430268	-1.319698	0.496503
N	-0.526771	-2.43057	0.866844
C	0.115461	1.435811	-1.996729
N	0.590483	2.397895	-2.473072
Cl	-3.279189	0.0	0.0
