12

C	0.0	0.0	0.0
C	-0.474475	0.26909	-1.430355
F	1.375981	0.0	0.0
H	-0.17868	-0.582587	-2.049144
H	-1.573663	0.325678	-1.391682
C	-0.421272	1.047382	0.94836
N	-0.590507	1.888304	1.75061
C	-0.433592	-1.333591	0.451865
N	-0.527621	-2.45159	0.802335
C	0.12389	1.486577	-1.962486
N	0.60737	2.458294	-2.409606
Cl	-3.2699	0.0	0.0
