12

C	0.0	0.0	0.0
C	-0.439565	0.246999	-1.444632
F	1.37571	0.0	0.0
H	-0.055949	-0.585769	-2.046132
H	-1.538717	0.250823	-1.457125
C	-0.419978	1.040116	0.949523
N	-0.597348	1.809361	1.819518
C	-0.411158	-1.344987	0.453744
N	-0.704987	-2.409558	0.855384
C	0.135267	1.495781	-1.924153
N	0.60609	2.493099	-2.321609
Cl	-3.224335	0.0	0.0
