12

C	0.0	0.0	0.0
C	-0.519788	-0.357212	-1.392817
F	1.375581	0.0	0.0
H	-0.244579	0.444861	-2.080673
H	-1.620265	-0.40222	-1.307695
C	-0.423664	1.363573	0.373241
N	-0.731422	2.459969	0.658527
C	-0.413799	-0.967923	1.029416
N	-0.629027	-1.693121	1.927942
C	0.054711	-1.615324	-1.848771
N	0.523278	-2.622663	-2.231954
Cl	-3.372407	0.0	0.0
