11

C	-0.314071	-0.058549	-1.468832
C	0.0	0.0	0.0
Cl	-2.116724	-0.317382	-1.796076
H	1.09437	0.0	0.0
H	-0.14304	0.917339	-1.935829
H	-0.359015	-0.901541	0.499917
H	-0.405587	0.891433	0.479827
N	0.427074	-1.134886	-2.06057
H	0.501455	-1.007015	-3.061916
H	1.366671	-1.101328	-1.657001
H	3.032895	0.0	0.0
