16

C	-0.247248	-0.192383	-1.491791
C	0.0	0.0	0.0
F	-1.537627	-0.710431	-1.774702
H	1.094647	0.0	0.0
H	-0.416381	0.950496	0.345082
C	-0.207166	1.116474	-2.176772
N	-0.20541	2.159648	-2.716432
C	0.810413	-1.116399	-2.075281
H	0.624141	-2.127679	-1.703906
H	0.776126	-1.128261	-3.167465
H	1.77863	-0.775366	-1.67659
C	-0.513251	-1.164898	0.835786
H	-0.263851	-0.988006	1.88585
H	-1.59528	-1.306997	0.754444
H	-0.018858	-2.095858	0.547135
F	2.738009	0.0	0.0
