16

C	-0.251515	0.091606	-1.502126
C	0.0	0.0	0.0
F	-0.097758	-1.196142	-2.044836
H	1.09477	0.0	0.0
H	-0.430106	-0.938652	0.361983
C	-1.632054	0.501835	-1.849928
N	-2.72436	0.857659	-2.097726
C	0.7955	0.985453	-2.149819
H	0.599396	2.034531	-1.912069
H	1.75627	0.69131	-1.697368
H	0.780139	0.858125	-3.235549
C	-0.508484	1.20354	0.781582
H	-0.280973	1.066809	1.842211
H	-1.587817	1.369432	0.682009
H	0.012379	2.11158	0.465961
F	2.742086	0.0	0.0
