16

C	-0.259416	0.069259	-1.500207
C	0.0	0.0	0.0
F	-0.071058	-1.21924	-2.03113
H	1.094765	0.0	0.0
H	-0.426964	-0.933898	0.37821
C	-1.653792	0.434952	-1.845201
N	-2.755722	0.753301	-2.105458
C	0.759545	0.985102	-2.161133
H	0.748802	0.840985	-3.244341
H	0.534683	2.031566	-1.938995
H	1.727357	0.719694	-1.707724
C	-0.50987	1.21344	0.765425
H	-0.285399	1.090315	1.828079
H	0.01162	2.11728	0.439995
H	-1.588892	1.378123	0.662027
F	2.737112	0.0	0.0
