13
Coordinates from ORCA-job run
  C   1.01153310500354      0.15276521633576      0.24795599934204
  C   -0.40437037538926      0.37852703151603      0.72995808133815
  Br  2.23650952815676      1.49025345959860      0.91224041454561
  H   -0.38999356720394      0.33288743089567      1.82212554553398
  H   1.41222102854047     -0.82046777389205      0.52426421806662
  H   -0.70817812472325      1.38779172935176      0.44406032924948
  N   1.02919268575976      0.17764212472483     -1.25753939872939
  O   1.40965778833908     -0.85173028390887     -1.81082179194860
  O   0.61467048286900      1.18985012124154     -1.80828196657580
  C   -1.36362709867717     -0.66249496413138      0.15630067372333
  H   -1.46113020139560     -0.56141552070496     -0.92634032535537
  H   -2.35688661295521     -0.53283678300722      0.58982990351115
  H   -1.03059863832419     -1.67977178801972      0.37624831729881
