13
Coordinates from ORCA-job run
  C   0.83754852333166      0.60841789307409      0.19129343896201
  C   -0.67315330233531      0.56666881659524      0.25554891507743
  Br  1.51373230097759      2.40009179432417     -0.06016864635301
  H   -1.06883979883037      1.02827943163272     -0.65163957375344
  H   1.31940120218738      0.20088758201539      1.07775737259917
  H   -0.98203110767510      1.18325388544805      1.10381768403900
  N   1.30615792566475     -0.25609973821559     -0.94936023565781
  O   0.88695000314222      0.01288697906088     -2.06805634263810
  O   2.03206528392494     -1.20105116643611     -0.64859745345107
  C   -1.18772814707098     -0.86321680237452      0.40857007639862
  H   -0.96960467003976     -1.46260352339583     -0.47743964278266
  H   -0.74365245808176     -1.35942656320507      1.27499886137871
  H   -2.27084575519526     -0.85708858852342      0.54327554618114
