13
Coordinates from ORCA-job run
  C   0.84264634115052      0.71391927563890      0.07469614288873
  C   -0.21177047527385     -0.01053647150480      0.89890796497489
  Br  0.23035174244587      2.39676072572056     -0.63138243222304
  H   -0.53496213602583      0.67492875168648      1.68661433970990
  H   1.74154896685080      0.91540597452255      0.65431074682058
  H   0.29545172344683     -0.85093059597095      1.38330098767176
  N   1.29005818692821     -0.21917928719115     -1.03034630948132
  O   2.03446240315129     -1.11371462818526     -0.63449381440404
  O   0.85051646442447     -0.08714253901951     -2.16285412523854
  C   -1.40394271363790     -0.50612877272341      0.08959186058597
  H   -2.14149004812867     -0.95491881768520      0.75748649432616
  H   -1.10791256647869     -1.26720932250165     -0.63472869535398
  H   -1.88695788885304      0.30874570721345     -0.45110316027706
