15
Coordinates from ORCA-job run
  C   0.66300291405382     -0.22365390609884     -0.81885104152509
  C   -0.29673162935375      0.33048326906714      0.22563648546861
  Br  0.59852056131197      0.70474552935149     -2.51640915833773
  H   -0.03796298081158      1.38304492919498      0.36554920059136
  H   0.49940550030662     -1.28318385805167     -1.00879737943691
  N   2.06945527788206     -0.12086912840436     -0.29593240941629
  O   2.40105886198230      0.94553664653335      0.20791982113516
  O   2.77108195050357     -1.11844748325841     -0.41715615678241
  N   0.01159204124661     -0.41400343093357      1.44494517382972
  H   -0.72618295857272     -1.06497872533551      1.67748597765280
  H   0.16624401354208      0.20190886274810      2.22963715287308
  C   -1.75137459123599      0.19561624900502     -0.20208841681890
  H   -2.39725042744318      0.58840676259546      0.58615507423650
  H   -2.00385612646970     -0.85896823681558     -0.35443006099814
  H   -1.96700240694211      0.73436252040242     -1.12466426247177
