15
Coordinates from ORCA-job run
  C   0.63882155343543     -0.16725949212515     -0.82652083794707
  C   -0.32834543134443      0.33153485849211      0.23607398170278
  Br  0.62111298698378      0.90231967220982     -2.43913966900823
  H   -0.14132827817647      1.40164653582609      0.38538906442134
  H   0.44034704230148     -1.20230968126549     -1.09859928633031
  N   2.04865231030688     -0.15062955734460     -0.30057433559800
  O   2.77602701794293     -1.07284849396359     -0.64965514603082
  O   2.36367800274968      0.78826582272448      0.42591764553362
  N   -0.04688740310596     -0.47547335703224      1.42137974963127
  H   0.66610488999029     -0.03358411539368      1.98748610101109
  H   -0.88006972569487     -0.57989634612859      1.98532016469809
  C   -1.76586661739461      0.10878478688225     -0.20678727697924
  H   -1.95487807954333     -0.96052886183589     -0.33519349406934
  H   -1.98852254223410      0.62248716076725     -1.14137792023479
  H   -2.44884572621672      0.48849106818723      0.55728125919960
