15
Coordinates from ORCA-job run
  C   0.76981548333847      0.41059834282021     -0.79031917868304
  C   -0.43264686666425      0.51324107123413      0.15040984726150
  Br  1.94154596336486      1.93727408428649     -0.62038431479994
  H   -0.85319256605121      1.51230890404822     -0.04747379029388
  H   0.45813671690254      0.36098501366772     -1.83189229177229
  N   1.52247909153119     -0.87074563015410     -0.52648953728730
  O   1.03892186964562     -1.84677603079804     -1.09919559886511
  O   2.47741960556261     -0.87175755163541      0.23229505054717
  N   0.01898838566000      0.32190066897248      1.51829927881834
  H   0.65158485432290      1.06194370635413      1.79920147226005
  H   -0.77601987173149      0.33435826352746      2.14485817477732
  C   -1.49839579326811     -0.52558330611322     -0.17723644629652
  H   -2.38631155329044     -0.33060833862985      0.43065795936932
  H   -1.13954192736842     -1.52989482948477      0.04454541955117
  H   -1.79378339195427     -0.47824436809545     -1.22727604458678
