15
Coordinates from ORCA-job run
  C   1.06263472404695      0.19069800454495     -0.13041105424554
  C   -0.44040281909590      0.46113481099424      0.10731964804777
  Br  1.88915756503033     -0.84408868170060      1.26496855110514
  H   -0.73595287042364      1.08612776504176     -0.74337730838440
  H   1.61425339881840      1.12723508505624     -0.20702064982212
  N   1.21971775177168     -0.46788075282166     -1.48014535515204
  O   1.05852221134066      0.31310105231488     -2.41700936006498
  O   1.40542132802298     -1.67337853785748     -1.56343464408476
  N   -0.70711759302474      1.21600467704404      1.31427129002233
  H   -0.42745975004080      0.68711305605855      2.13190023106262
  H   -0.20669264091862      2.09678536657739      1.31930475102311
  C   -1.26959608668694     -0.81246783636317      0.09736567233708
  H   -2.31748453919818     -0.53998414401978      0.22567641315507
  H   -0.98222421171700     -1.47323305668185      0.91823258583008
  H   -1.16377646792518     -1.36616680818753     -0.83664077082936
