15
Coordinates from ORCA-job run
  C   0.73560025671411      0.42447120417773     -0.81611374011963
  C   -0.43538382777255      0.50612689012168      0.16547387546372
  Br  1.88835653648784      1.96906499452111     -0.68237714514804
  H   -0.88053094175579      1.49703964562087     -0.01982797010810
  H   0.38828313584512      0.37294215828238     -1.84625223632418
  N   1.51654069539665     -0.84541594228151     -0.58191592928684
  O   2.49726430882011     -0.83356257835529      0.14306733108111
  O   1.02797858215890     -1.82755876943437     -1.13986638883231
  N   0.06609872267183      0.32495770142524      1.51702227615411
  H   -0.70710173307087      0.32027391832208      2.17036534391985
  H   0.69248151290539      1.07777534879339      1.77690883255502
  C   -1.49288908708165     -0.55214288576294     -0.12419015952479
  H   -1.11006056000120     -1.54932949273182      0.08972619199014
  H   -1.82266143345555     -0.51498037203933     -1.16433408292066
  H   -2.36397616786233     -0.36966182065921      0.51131380110060
