15
Coordinates from ORCA-job run
  C   0.76672324852665      0.39988615635306     -0.86305724951640
  C   -0.39101485971829      0.58085148028464      0.13142777908816
  Br  1.95970075116472      1.90268472774180     -0.86866468216261
  H   -0.79251599301970      1.57349373016896     -0.09555307179795
  H   0.40398599304748      0.26138893297115     -1.88003732749398
  N   1.50439302193626     -0.87580006399555     -0.53547053403830
  O   1.00084837039863     -1.88444775877134     -1.03346042517422
  O   2.46601259679067     -0.84683179151674      0.21884672073751
  N   0.13868924550734      0.63026185289062      1.48266496507167
  H   -0.47954594516225      1.15254097998418      2.08772333786286
  H   0.24842607671957     -0.29958226392699      1.86894096432842
  C   -1.49361699492078     -0.45542502187592     -0.09270360827836
  H   -1.89219286776814     -0.41523547078574     -1.10997686762200
  H   -1.12959320169053     -1.46886429969873      0.08510249916811
  H   -2.31029944181164     -0.25692118982339      0.60521749982708
