15
Coordinates from ORCA-job run
  C   0.70333114583722     -0.14808323208854     -0.80375919809728
  C   -0.30407363357387      0.30902766903309      0.24304758920979
  Br  0.71458331172678      0.93948491668038     -2.40314616382050
  H   -0.04958328361044      1.34183095169234      0.49399140079283
  H   0.54841002783814     -1.18378258572764     -1.10251272925462
  N   2.08295242121189     -0.10395788817877     -0.20524602618079
  O   2.40163163637208      0.92064458725578      0.38517325645186
  O   2.77629644402895     -1.10260975840048     -0.36065190915980
  N   -0.04939924092024     -0.54162330235063      1.40403487123378
  H   -0.76275527451430     -1.25219792436896      1.50140526150042
  H   -0.01108688193744     -0.00119702556934      2.25617110774850
  C   -1.73754066320265      0.22650456577656     -0.26422354420801
  H   -1.91356068071339      0.87398621140202     -1.12335143441495
  H   -2.42012866519980      0.52203268778824      0.53546303466657
  H   -1.97907666334297     -0.80105987294403     -0.55539551646781
