15
Coordinates from ORCA-job run
  C   1.08452072878597      0.03116329493421     -0.05935583977899
  C   -0.37055687729109      0.50950618517046      0.14543980700279
  Br  1.65091482242513     -1.28270358525484      1.22731477446054
  H   -0.51244193357653      1.26922084723729     -0.63198014860791
  H   1.77785186784687      0.86899198187757      0.00871060572575
  N   1.22440734532482     -0.47836579251918     -1.47378144709281
  O   1.22951427156570     -1.67929905206340     -1.70244071782570
  O   1.24588053166339      0.42456003810710     -2.30921526415316
  N   -0.59269773027098      1.15022918428963      1.42502862122537
  H   -0.44788234903378      0.49161948862319      2.18113429611979
  H   0.03422847729804      1.93405455222355      1.56198964232196
  C   -1.38338749829228     -0.60467399573905     -0.06053267214052
  H   -2.38321577207665     -0.18402923805902      0.04984289810477
  H   -1.25644291977881     -1.39166488045167      0.68611642213267
  H   -1.30169296458980     -1.05860902837585     -1.04927097749453
