15
Coordinates from ORCA-job run
  C   1.07201376338330      0.08800091119108     -0.16870450458674
  C   -0.37518138194089      0.48894980598653      0.19811273092958
  Br  1.83366079332577     -1.22054820514642      1.01796364894530
  H   -0.63036391855416      1.26212320075260     -0.53594883889167
  H   1.72715844182628      0.95849250801650     -0.15209477279887
  N   1.08472792777448     -0.38528888680473     -1.60216036919202
  O   0.97367930559270      0.53383543793900     -2.41241682854487
  O   1.11218331097390     -1.58023775991522     -1.85905540046987
  N   -0.49409324675220      1.08249112237865      1.51380127816095
  H   0.11403911053860      1.88638315766606      1.61480949738181
  H   -0.25011693586424      0.40823538927873      2.22958421400946
  C   -1.35169131279487     -0.66725933356571      0.05880076684367
  H   -1.36845871403159     -1.07193689314771     -0.95413149186426
  H   -1.09910703223011     -1.47898873741686      0.74464636153161
  H   -2.34945011124693     -0.30425171721249      0.30679370854593
