11

C	0.0	0.0	0.0
C	-0.534879	0.209534	-1.42339
Br	1.942159	0.0	0.0
H	-1.198691	1.081081	-1.385533
H	-0.326268	0.772813	0.687363
H	-0.320645	-0.969074	0.367023
H	0.291283	0.40596	-2.117425
N	-1.260066	-1.000398	-1.818896
H	-1.591306	-0.863471	-2.770885
H	-2.087372	-0.888304	-1.18639
F	-2.785143	0.0	0.0
