17

C	-0.41998	-0.006249	-1.451057
C	0.0	0.0	0.0
Br	0.463445	1.366673	-2.47103
H	1.093973	0.0	0.0
N	-0.097338	-1.324927	-2.156018
O	0.849573	-1.951018	-1.704863
O	-0.760003	-1.589568	-3.151676
N	-1.937972	0.137934	-1.587677
O	-2.549063	-0.819575	-1.123895
O	-2.409095	1.207959	-1.948606
C	-0.429684	-1.208189	0.682744
N	-0.723681	-2.161151	1.312422
C	-0.531038	1.231142	0.734737
H	-1.622206	1.212775	0.819029
H	-0.229257	2.149528	0.228581
H	-0.114326	1.242908	1.744372
Br	2.746456	0.0	0.0
