17

C	-0.40562	-0.00561	-1.45109
C	0.0	0.0	0.0
Br	-2.304366	0.229707	-1.768236
H	1.094721	0.0	0.0
N	0.359517	1.044183	-2.278448
O	0.090886	1.085162	-3.473718
O	1.051673	1.850965	-1.65485
N	0.07761	-1.323978	-2.106746
O	1.29993	-1.386786	-2.191186
O	-0.737545	-2.140008	-2.505097
C	-0.449675	-1.24617	0.594034
N	-0.820617	-2.241172	1.101486
C	-0.511284	1.189481	0.806273
H	-0.057716	1.146624	1.799283
H	-1.599042	1.165109	0.914474
H	-0.209481	2.125867	0.338994
Br	2.90791	0.0	0.0
