17

C	-0.50554	0.00704	-1.430822
C	0.0	0.0	0.0
Br	-2.427114	0.019379	-1.554419
H	1.091941	0.0	0.0
N	0.048981	1.210193	-2.220765
O	-0.501459	1.481518	-3.278893
O	1.032493	1.753204	-1.73628
N	0.034165	-1.21161	-2.223796
O	0.982179	-1.790673	-1.713225
O	-0.496723	-1.452468	-3.298269
C	-0.461769	-1.232235	0.636696
N	-0.835281	-2.200183	1.187582
C	-0.466218	1.212599	0.813657
H	-0.011773	1.143047	1.803004
H	-0.110364	2.132401	0.351871
H	-1.551789	1.240527	0.919865
Br	3.470264	0.0	0.0
