17

C	-0.501035	0.014897	-1.432778
C	0.0	0.0	0.0
Br	-2.400695	-0.277708	-1.598192
H	1.094869	0.0	0.0
N	-0.112926	1.358041	-2.054515
O	1.0759	1.446915	-2.326895
O	-0.969634	2.225262	-2.152286
N	0.167014	-1.045708	-2.308177
O	0.690538	-1.982419	-1.727082
O	0.071113	-0.871427	-3.515692
C	-0.472316	-1.188522	0.700586
N	-0.868753	-2.092568	1.337641
C	-0.418775	1.263652	0.763959
H	-0.082069	1.156797	1.795847
H	-1.499223	1.421035	0.749942
H	0.088659	2.133614	0.344997
Br	3.381494	0.0	0.0
