17

C	-0.438702	-0.001462	-1.457145
C	0.0	0.0	0.0
Br	0.472778	1.335766	-2.472016
H	1.093969	0.0	0.0
N	-0.179172	-1.333708	-2.161625
O	0.633429	-2.08262	-1.641884
O	-0.786409	-1.501312	-3.212581
N	-1.957372	0.182882	-1.535574
O	-2.414589	1.264131	-1.873986
O	-2.590162	-0.796974	-1.154812
C	-0.466237	-1.189809	0.70891
N	-0.86765	-2.094629	1.342248
C	-0.477581	1.255736	0.737126
H	-1.565931	1.282803	0.83712
H	-0.135292	2.152491	0.221036
H	-0.033092	1.247811	1.733144
Br	3.385153	0.0	0.0
