14

C	0.0	0.0	0.0
C	-0.581036	-0.010849	-1.383821
Cl	1.790103	0.0	0.0
H	-1.694553	-0.062294	-1.187228
H	-0.314517	-0.909273	0.510749
H	-0.292106	0.860176	-1.970912
C	-0.480427	1.229895	0.743119
H	-0.11789	2.13475	0.245521
H	-0.104224	1.226586	1.768803
H	-1.577577	1.191449	0.737985
N	-0.167967	-1.196467	-2.153677
O	0.201918	-1.032214	-3.321756
O	-0.249037	-2.293864	-1.599073
H	-3.117586	0.0	0.0
