13

C	0.0	0.0	0.0
C	-0.43296	-0.205712	-1.459643
Cl	1.787445	0.0	0.0
H	0.284398	-0.887705	-1.929553
H	-0.380482	0.89985	0.458976
N	-0.400011	-1.156646	0.861391
O	-0.436821	-2.25793	0.325469
O	-0.541086	-0.922553	2.053639
C	-0.310629	1.08875	-2.136611
N	-0.182505	2.118805	-2.685462
C	-1.787319	-0.764516	-1.692635
N	-2.514075	-1.355971	-2.414792
F	-2.345427	0.0	0.0
