13

C	0.0	0.0	0.0
C	-0.424843	-0.041697	-1.472165
Cl	1.754814	0.0	0.0
H	0.047615	0.84919	-1.909768
H	-0.385815	0.878016	0.498558
N	-0.445847	-1.179019	0.813119
O	-0.587779	-2.247984	0.23956
O	-0.52708	-0.984233	2.020447
C	-1.880179	0.065769	-1.787157
N	-2.63149	0.210174	-2.694297
C	0.160084	-1.176516	-2.20186
N	0.635036	-2.026514	-2.858472
F	-2.39619	0.0	0.0
