13

C	0.0	0.0	0.0
C	-0.449602	-0.048261	-1.468091
Cl	1.76594	0.0	0.0
H	0.249694	-0.694457	-2.009716
H	-0.387892	0.842928	0.55265
N	-0.411106	-1.242059	0.733904
O	-0.449248	-2.279084	0.083602
O	-0.561945	-1.134606	1.943091
C	-0.301822	1.305857	-2.012278
N	-0.154515	2.388343	-2.44392
C	-1.820159	-0.556797	-1.739694
N	-2.536874	-1.063493	-2.535026
F	-2.372741	0.0	0.0
