13

C	0.0	0.0	0.0
C	-0.442768	-0.326621	-1.431139
Cl	1.764424	0.0	0.0
H	0.161373	-1.174468	-1.769216
H	-0.389273	0.933161	0.380976
N	-0.42259	-1.080949	0.949536
O	-0.487863	-2.218337	0.502402
O	-0.564496	-0.749942	2.118647
C	-0.089165	0.812402	-2.284463
N	0.238719	1.701939	-2.97878
C	-1.872784	-0.685725	-1.652371
N	-2.618261	-1.151578	-2.448749
F	-2.390918	0.0	0.0
