14

C	0.0	0.0	0.0
C	-0.504843	0.024442	-1.419292
F	1.393767	0.0	0.0
H	-0.205728	-0.860309	-1.979799
H	-0.320665	0.913717	0.502188
H	-1.597645	0.128652	-1.389224
C	-0.489756	-1.22563	0.731877
H	-0.132544	-2.129474	0.23001
H	-1.581347	-1.216815	0.753086
H	-0.10432	-1.219466	1.754043
N	0.052116	1.187509	-2.163605
O	0.024296	2.285121	-1.612411
O	0.491275	0.982129	-3.29631
Br	-3.871167	0.0	0.0
