14

C	0.0	0.0	0.0
C	-0.501861	-0.129831	-1.426628
F	1.389903	0.0	0.0
H	-1.596564	-0.103049	-1.410182
H	-0.344589	0.971361	0.365895
H	-0.065586	0.645193	-2.056642
C	-0.46513	-1.110233	0.913338
H	-0.029248	-2.059656	0.595373
H	-1.553912	-1.174599	0.884871
H	-0.135054	-0.899842	1.933121
N	-0.063246	-1.42714	-2.00971
O	1.015788	-1.446569	-2.609246
O	-0.786183	-2.407393	-1.831934
Br	-3.869224	0.0	0.0
