14

C	0.0	0.0	0.0
C	-0.434744	-0.358034	-1.426408
F	1.386021	0.0	0.0
H	0.095976	0.341766	-2.084693
H	-0.350772	1.005861	0.225161
C	-0.414601	-0.984916	1.069844
H	-1.50079	-0.978971	1.109312
H	-0.023259	-1.9756	0.824363
H	0.022061	-0.670166	2.022182
C	-1.87855	-0.260281	-1.800458
N	-2.616377	-0.295109	-2.727407
C	0.062988	-1.693822	-1.780663
N	0.464897	-2.759137	-2.062407
F	-2.627693	0.0	0.0
