14

C	0.0	0.0	0.0
C	-0.525268	0.233302	-1.435788
F	1.385865	0.0	0.0
H	0.353905	0.180799	-2.098058
H	-0.344736	0.807821	0.638887
C	-0.388298	-1.344953	0.584649
H	-1.476278	-1.36406	0.624605
H	0.056359	-1.426654	1.580934
H	0.015226	-2.147717	-0.039773
C	-1.090981	1.577951	-1.572825
N	-1.410795	2.697688	-1.720602
C	-1.470452	-0.786894	-1.913417
N	-1.970546	-1.654445	-2.528893
F	-2.567869	0.0	0.0
