14

C	0.0	0.0	0.0
C	-0.421327	0.149979	-1.467759
F	1.385871	0.0	0.0
H	0.114031	-0.642698	-2.010007
H	-0.360558	0.841706	0.587308
C	-0.415053	-1.325144	0.600029
H	0.050008	-1.42545	1.585702
H	-0.050506	-2.141333	-0.032966
H	-1.500415	-1.321972	0.664711
C	0.098593	1.422423	-1.9933
N	0.538276	2.435852	-2.391692
C	-1.863233	0.019325	-1.841704
N	-2.600297	-0.062683	-2.766519
F	-2.614023	0.0	0.0
