14

C	0.0	0.0	0.0
C	-0.426154	-0.158927	-1.46623
F	1.386091	0.0	0.0
H	0.167903	0.577712	-2.025121
H	-0.358267	0.964848	0.354436
C	-0.414417	-1.121952	0.924542
H	-0.008038	-0.922688	1.921883
H	0.009934	-2.064952	0.56706
H	-1.501859	-1.139526	0.937868
C	-1.852288	0.093143	-1.838074
N	-2.581312	0.297358	-2.750609
C	-0.012222	-1.473745	-1.97731
N	0.322924	-2.519994	-2.391659
F	-2.622485	0.0	0.0
