16
Coordinates from ORCA-job run
  C   -0.85264769750750     -0.14180335005594     -0.32258916427945
  C   0.60988331301565      0.15887397266125     -0.65388512942561
  H   -1.38172793225563     -0.65185151799467     -1.12721796518952
  H   0.59999072735410      1.04460550812814     -1.29775714033204
  N   -1.65096642904883      1.09338240211626     -0.01006161497040
  O   -2.85263651147213      0.89745784787482      0.13010472359473
  O   -1.06373093882271      2.16681721327799      0.07284267058220
  N   -0.93135256753156     -1.03539165280918      0.88329338499954
  O   -1.08026696535955     -0.50169683091195      1.97527638084162
  O   -0.76107828257315     -2.22635473635541      0.65014023178038
  C   1.15690132358154     -0.95443491933063     -1.43340412051171
  N   1.62136185647425     -1.83565514731421     -2.05508057923168
  C   1.47985101137931      0.44340467679443      0.57579393856789
  H   2.47417355547280      0.74829626191180      0.24737937760897
  H   1.58604869516064     -0.44970939298789      1.19347548046929
  H   1.04519684213276      1.24505966499517      1.17068952549579
