16
Coordinates from ORCA-job run
  C   -0.61970425593991     -0.31112450384768      0.34194286369093
  C   0.64286691028353     -0.06264717023964     -0.46476776601867
  H   -0.44511635202494     -0.76153560634087      1.31788606852371
  H   0.33389284808945      0.26503822307908     -1.46141194003910
  N   -1.60898581019015     -1.19149474913065     -0.37764705957171
  O   -2.52718445145761     -1.60534594694355      0.32292866788144
  O   -1.43886767367296     -1.39337358883913     -1.57403419891019
  N   -1.31911366777289      0.99484069917709      0.57141757772306
  O   -1.75445340002676      1.55163311186564     -0.43166731505613
  O   -1.34983682869523      1.40750218243622      1.72544990219697
  C   1.35522177264381     -1.33500003890352     -0.59157074073496
  N   1.94930148233921     -2.34601795444799     -0.65184185871348
  C   1.52754793271520      0.99873101055347      0.20041940775347
  H   2.46045031720913      1.09557797668125     -0.35537258734163
  H   1.02816185848346      1.96870219040573      0.19718504176734
  H   1.76581931801665      0.72551416449458      1.23008393684895
