12
Coordinates from ORCA-job run
  C   -0.05066813591277     -0.08483523256449     -0.42091682624973
  C   -0.24707364233255      1.14919306373824      0.44438945624410
  Cl  -0.12618454179060      0.36705444371655     -2.12549654846992
  H   -0.17898471999175      0.86194382946318      1.49567066216181
  H   -1.23380712372031      1.57063734455409      0.24798419604282
  H   0.50980292498083      1.90428677981494      0.22413216125554
  N   1.35805100214958     -0.60970660778073     -0.08533894439898
  O   2.29561483444916     -0.36573878384283     -0.82665076607970
  O   1.41041238036056     -1.20054304403472      0.98991259028701
  N   -0.93096454708276     -1.19324567134389     -0.20394701095983
  H   -1.86407717484508     -0.96272902960379     -0.51831903574410
  H   -0.94312125626430     -1.43631709211655      0.77858006591099
