12
Coordinates from ORCA-job run
  C   -0.05825318394534     -0.09983134938676     -0.41683639004212
  C   -0.21882526227639      1.16968510463323      0.40341018208187
  Cl  -0.14904865539007      0.28849677891363     -2.13612690525392
  H   0.54936066825897      1.90066729744378      0.14442193654847
  H   -0.14139398023813      0.92096145392765      1.46387340920835
  H   -1.19997273197488      1.60289810772159      0.20465799276583
  N   1.34487523913560     -0.63850566024509     -0.08012570185313
  O   2.27752751351480     -0.43250645268074     -0.83899001263582
  O   1.40056388232033     -1.19675607208119      1.01206815559246
  N   -0.95638502315900     -1.18167033170697     -0.14589594056767
  H   -0.95911125017015     -1.38784205356989      0.84504474024209
  H   -1.88933721607574     -0.94559682296924     -0.45650146608642
