12
Coordinates from ORCA-job run
  C   -0.07386054597397     -0.11170229560521     -0.24463529716607
  C   -0.21438420889751      1.30136448520994      0.25643199500990
  Cl  -0.14377217186037     -0.08281435764531     -2.07801874503079
  H   -1.20995058365529      1.66817908755589      0.00021252671519
  H   -0.09081605766708      1.30863471508456      1.33984304821017
  H   0.52824151457970      1.94942930085089     -0.20065723734877
  N   1.32461883509906     -0.66525153290513      0.04144084587236
  O   1.44566708749653     -1.88120421576162     -0.03686109232459
  O   2.20929209189932      0.13836623344457      0.30567406998317
  N   -0.97853884865564     -0.99786064909280      0.35733824862966
  H   -1.93302510639159     -0.68613107429215      0.24425537755901
  H   -0.86447200597316     -1.94300969684364      0.01497625989078
