12
Coordinates from ORCA-job run
  C   -0.15853896552997     -0.03611393411897     -0.35693256428243
  C   -0.18678620931706      1.27834153281494      0.38233814755654
  Cl  -0.21162203593908      0.22224869067403     -2.12081391060009
  H   -1.15095844422407      1.75250735393006      0.20255210482488
  H   -0.06469458390523      1.09966623481498      1.45455955044194
  H   0.61665336877200      1.92644285985124      0.04330311592923
  N   1.24718221683056     -0.69314762686832     -0.12774413343079
  O   1.26031341371401     -1.91001249834998      0.02527273987312
  O   2.22207273802551      0.04639053802675     -0.12857712504961
  N   -1.20990180659376     -0.89063051238491      0.01679074510152
  H   -1.24600224914370     -0.99510701000845      1.02304370710221
  H   -1.11671744268922     -1.80158562838137     -0.41379237746652
