16

C	0.0	0.0	0.0
C	-0.493707	-0.355308	-1.412642
F	1.37763	0.0	0.0
H	-0.302035	-1.417211	-1.574758
C	-0.431518	1.332774	0.458739
N	-0.702988	2.396603	0.875295
C	-0.459494	-1.031534	0.943868
N	-0.734091	-1.90166	1.68371
N	0.40044	0.342949	-2.396487
O	0.574367	1.547594	-2.242647
O	0.858432	-0.339559	-3.309681
C	-1.930879	0.032058	-1.672214
H	-2.639322	-0.348478	-0.924811
H	-2.238312	-0.350434	-2.647602
H	-2.03373	1.117603	-1.664509
Cl	-4.796316	0.0	0.0
