16

C	0.0	0.0	0.0
C	-0.499073	-0.143585	-1.446681
F	1.372938	0.0	0.0
H	-1.56343	-0.4156	-1.376816
C	-0.420431	1.295991	0.569119
N	-0.549714	2.362178	1.044978
C	-0.424602	-1.077091	0.918024
N	-0.532694	-1.863929	1.784033
N	0.21107	-1.304945	-2.08492
O	0.502804	-2.258742	-1.367344
O	0.399824	-1.262036	-3.299216
C	-0.320918	1.123894	-2.251794
H	-0.587659	0.940306	-3.290253
H	0.709	1.486109	-2.209196
H	-0.993115	1.882395	-1.849723
Cl	-3.243517	0.0	0.0
