16

C	0.0	0.0	0.0
C	-0.499523	-0.175541	-1.442075
F	1.372516	0.0	0.0
H	-1.567793	-0.430247	-1.366361
C	-0.414758	1.311405	0.539741
N	-0.465622	2.404867	0.967415
C	-0.424151	-1.057951	0.939917
N	-0.572072	-1.873184	1.77225
N	0.194743	-1.358066	-2.055597
O	0.524857	-2.280589	-1.313223
O	0.331998	-1.360722	-3.278458
C	-0.302342	1.068739	-2.280301
H	-0.946489	1.856121	-1.887649
H	-0.591669	0.865878	-3.309465
H	0.73841	1.402766	-2.263208
Cl	-3.24284	0.0	0.0
