16

C	0.0	0.0	0.0
C	-0.482444	0.114127	-1.461338
F	1.37786	0.0	0.0
H	-1.479815	-0.329317	-1.502161
C	-0.426283	1.15555	0.80718
N	-0.551519	2.108716	1.484071
C	-0.405772	-1.251244	0.669193
N	-0.564159	-2.262069	1.246488
N	0.428736	-0.763729	-2.277568
O	0.486669	-1.944772	-1.940832
O	1.038963	-0.269458	-3.225253
C	-0.495547	1.536421	-1.966823
H	-0.707568	1.549435	-3.035154
H	-1.2934	2.066132	-1.445253
H	0.461656	2.033221	-1.797501
Cl	-3.211917	0.0	0.0
