16

C	0.0	0.0	0.0
C	-0.405038	-0.464568	-1.416612
F	1.377526	0.0	0.0
H	-0.128157	-1.517479	-1.492202
C	-0.459067	1.351134	0.35443
N	-0.719713	2.437755	0.716529
C	-0.46231	-0.987244	0.987066
N	-0.711994	-1.849046	1.74548
N	0.512134	0.232175	-2.384883
O	1.089927	-0.472836	-3.209708
O	0.581151	1.45559	-2.311159
C	-1.833722	-0.199986	-1.813968
H	-2.024134	0.87303	-1.855705
H	-2.565028	-0.600408	-1.104184
H	-2.016706	-0.640664	-2.796984
Cl	-4.579403	0.0	0.0
