12
Coordinates from ORCA-job run
  C   -0.46477565777209      0.04866640970695      0.47083390453942
  C   0.84100358351727     -0.72612780657585      0.30220379522143
  Br  -1.52140832377667     -0.76017263598172      1.88211190416913
  H   1.39839280053609     -0.67334100374566      1.24095373413515
  H   0.60592589919879     -1.77048226219031      0.09114306085895
  N   -1.30146525458069     -0.06260246550896     -0.82103971749917
  O   -2.03703072402384      0.87846728218479     -1.07447962526483
  O   -1.17685751027205     -1.10639310758931     -1.44353022731048
  C   -0.24346482013694      1.45400021618105      0.76601803904724
  N   -0.00794917605817      2.57618511503892      1.02742595143914
  C   1.63628516240447     -0.16067018408587     -0.78549067504201
  N   2.26934402096382      0.30347044256595     -1.65815014429398
