12
Coordinates from ORCA-job run
  C   -0.38263468345480      0.09127870777855      0.49284987352124
  C   1.06781491384734      0.14483311495935     -0.00776324620891
  Br  -0.60455051367396     -1.21574386537802      1.88227252519792
  H   1.13806342034410      0.93316172164004     -0.76271139695832
  H   1.71893720491731      0.40626996508524      0.83009564822839
  N   -1.26134389523554     -0.25100181461054     -0.74604346994305
  O   -1.83600372576635     -1.32146473331591     -0.78678440850153
  O   -1.23706407406513      0.62837441440903     -1.59722312669272
  C   -0.80142997944696      1.39971519873655      0.97193821657961
  N   -1.10229118228491      2.46438310494938      1.37039498421736
  C   1.48281291561763     -1.13006918447486     -0.58466972645105
  N   1.81868959920128     -2.14773662977880     -1.06335587298893
