14
Coordinates from ORCA-job run
  C   0.36759986985378      0.61326413874836     -0.38906363719690
  C   -0.73608113715051     -0.33741061986190      0.08398840278432
  H   0.10189542285564      0.98724756243469     -1.38135071220629
  H   -1.68762744371705      0.20056753018719      0.06906818995524
  C   1.67403320857104     -0.02555132698152     -0.40779797976284
  N   2.71192129698638     -0.57319461062584     -0.46558813559935
  N   0.36042832656716      1.83178121116421      0.52678299668676
  O   -0.74204328328529      2.34449312843214      0.67655702469561
  O   1.42510914012338      2.20374715457199      0.99466000996312
  C   -0.46676939845770     -0.87918450226333      1.40654492696120
  N   -0.25765655259826     -1.26578789376038      2.49607239676107
  N   -0.87333512580478     -1.44759602818066     -0.95149936981810
  O   -0.89231849538052     -2.60232108044620     -0.55518217992887
  O   -0.98515582856327     -1.05105466341875     -2.10519193329499
