14
Coordinates from ORCA-job run
  C   0.32966932333077      0.59000013371275     -0.45760490416058
  C   -0.71141374082733     -0.37597376820228      0.11569500598835
  H   0.05359160290875      0.82735066917038     -1.48821620853525
  H   -1.69837118147478      0.08698037080104      0.03146415943396
  C   1.67725035700391      0.04699599868163     -0.39297315011831
  N   2.74598147722693     -0.44023541723080     -0.36675605676414
  N   0.22324833442367      1.90203355987770      0.31032115950130
  O   -0.91410355188265      2.35068515803379      0.38773730435562
  O   1.25128840093334      2.39845408710737      0.74338537075162
  C   -0.42380319837216     -0.73716211532624      1.49487405109754
  N   -0.18468496001311     -0.97080187850201      2.62119890243595
  N   -0.75800828585756     -1.60926562932051     -0.77962851258019
  O   -0.76188535858384     -2.70517664662968     -0.24159889054180
  O   -0.82775921881592     -1.36488452217314     -1.97789823086406
