14
Coordinates from ORCA-job run
  C   -0.79654724511453     -0.22510278430377     -0.33614652471815
  C   0.32371093811842      0.80829908198168     -0.21041282505565
  H   -1.16512865846107     -0.21592744374641     -1.36866485877667
  H   -0.12790145759795      1.80366776842621     -0.12406913207783
  C   -1.91085625709852      0.02970491758748      0.56671163871021
  N   -2.83654976663858      0.29126875059984      1.24019644933179
  N   -0.26478991212386     -1.64159027926605     -0.13801981760861
  O   -1.10337063022263     -2.49792942714199      0.09074561475844
  O   0.93896064819675     -1.79124909814468     -0.29178275450141
  C   1.23655682964078      0.79854845332287     -1.34547800235405
  N   1.91008167877364      0.81641064000190     -2.30729486626564
  N   1.09435723399705      0.63073694719698      1.09424493502758
  O   2.18463546134645      1.17614980600895      1.14717747154041
  O   0.51784113718405      0.01701266747697      1.98079267198959
