13

C	-0.510526	-0.010911	-1.434199
C	0.0	0.0	0.0
Cl	-2.323512	-0.081742	-1.452949
H	1.092973	0.0	0.0
H	-0.376127	0.879745	0.519511
C	-0.13564	1.261763	-2.060917
N	0.132774	2.277894	-2.586597
C	-0.010657	-1.108845	-2.266633
N	0.347835	-1.935023	-3.02163
N	-0.462013	-1.180604	0.76224
O	-0.666354	-1.010575	1.961022
O	-0.572012	-2.247326	0.161938
Cl	3.177444	0.0	0.0
