13

C	-0.516114	0.009351	-1.430724
C	0.0	0.0	0.0
Cl	-2.329571	-0.060568	-1.444807
H	1.093071	0.0	0.0
H	-0.375591	0.869823	0.536364
C	-0.14315	1.290577	-2.040606
N	0.128471	2.317786	-2.541868
C	-0.019188	-1.076014	-2.282204
N	0.334291	-1.883857	-3.058458
N	-0.458819	-1.194895	0.744356
O	-0.662076	-1.045795	1.94628
O	-0.566829	-2.251549	0.126435
Cl	3.178377	0.0	0.0
