13

C	-0.527581	0.037313	-1.435099
C	0.0	0.0	0.0
Cl	0.262263	-1.178889	-2.472457
H	1.088828	0.0	0.0
H	-0.345396	0.877741	0.54917
C	-1.986556	-0.13359	-1.510523
N	-3.157279	-0.196668	-1.589277
C	-0.215976	1.361479	-1.983571
N	0.000117	2.425545	-2.429719
N	-0.477529	-1.182087	0.753463
O	-0.281462	-1.146598	1.962752
O	-1.010259	-2.106048	0.138081
Cl	3.209074	0.0	0.0
