13

C	-0.522665	-0.02017	-1.438214
C	0.0	0.0	0.0
Cl	0.302073	1.175737	-2.47669
H	1.090137	0.0	0.0
H	-0.353532	-0.881746	0.536403
C	-0.25168	-1.357843	-1.985397
N	-0.063215	-2.436149	-2.413207
C	-1.975792	0.194291	-1.507421
N	-3.143928	0.302431	-1.567415
N	-0.480667	1.174656	0.767942
O	-0.923931	2.143127	0.152367
O	-0.369043	1.093084	1.9855
Cl	3.200321	0.0	0.0
