13

C	-0.514843	-0.001375	-1.431841
C	0.0	0.0	0.0
Cl	-2.327977	0.052461	-1.450124
H	1.093106	0.0	0.0
H	-0.370306	-0.877208	0.528348
C	-0.018312	1.096656	-2.265067
N	0.345511	1.930732	-3.008663
C	-0.128826	-1.275459	-2.04984
N	0.1469	-2.292827	-2.568669
N	-0.461118	1.183705	0.759106
O	-0.619464	2.237968	0.147286
O	-0.614264	1.02811	1.967779
Cl	3.175856	0.0	0.0
