16

C	-0.57335	-0.014717	-1.410606
C	0.0	0.0	0.0
Cl	0.126621	-1.333856	-2.358766
H	1.08605	0.0	0.0
H	-0.37981	0.870831	0.529783
C	-2.085611	-0.059782	-1.50197
H	-2.45752	-0.988146	-1.072588
H	-2.387886	0.004602	-2.546176
H	-2.508857	0.77568	-0.938021
N	-0.16728	1.315499	-2.070749
O	-0.381911	1.413825	-3.272461
O	0.273662	2.196416	-1.341269
N	-0.513284	-1.18203	0.73795
O	0.132019	-2.224328	0.700967
O	-1.582665	-1.037121	1.340229
Br	3.542131	0.0	0.0
