16

C	-0.592181	-0.013285	-1.404104
C	0.0	0.0	0.0
Cl	0.216991	-1.169105	-2.448343
H	1.086042	0.0	0.0
H	-0.383168	0.869576	0.527521
C	-2.093705	-0.249141	-1.427868
H	-2.308026	-1.265952	-1.099989
H	-2.589901	0.457381	-0.761625
H	-2.467336	-0.127729	-2.446112
N	-0.397186	1.40973	-1.975205
O	-0.796666	2.314092	-1.245998
O	0.046448	1.54658	-3.103317
N	-0.510873	-1.174401	0.750091
O	-1.399069	-0.962147	1.583373
O	-0.051297	-2.281164	0.481089
Br	3.466117	0.0	0.0
