16

C	-0.649369	-0.010621	-1.368674
C	0.0	0.0	0.0
Cl	-0.033635	-1.468002	-2.196992
H	1.089526	0.0	0.0
H	-0.312616	-0.897578	0.535722
C	-2.161708	-0.055168	-1.345067
H	-2.477817	-0.893291	-0.721291
H	-2.549928	-0.189796	-2.351706
H	-2.552159	0.877003	-0.937271
N	-0.187225	1.168153	-2.224608
O	-0.93069	1.485522	-3.150763
O	0.892587	1.668847	-1.956808
N	-0.465622	1.139822	0.833535
O	-0.869495	2.156801	0.264649
O	-0.393465	0.994372	2.050331
Br	3.466609	0.0	0.0
