16

C	-0.497539	-0.026967	-1.429521
C	0.0	0.0	0.0
Cl	-0.178081	1.517912	-2.216493
H	1.088281	0.0	0.0
H	-0.376636	-0.882574	0.519474
C	0.202126	-1.140059	-2.187857
H	-0.135349	-1.155148	-3.226729
H	-0.027253	-2.096007	-1.714878
H	1.279657	-0.964809	-2.14271
N	-2.007697	-0.325121	-1.469313
O	-2.329397	-1.347313	-0.870642
O	-2.759762	0.395605	-2.106229
N	-0.536506	1.175491	0.736944
O	0.24683	1.900036	1.335121
O	-1.759722	1.32379	0.701934
Br	3.506031	0.0	0.0
