16

C	0.0	0.0	0.0
C	-0.40142	-0.049173	-1.490365
F	1.329644	0.0	0.0
H	0.460573	-0.544662	-1.955953
N	-0.329118	1.219684	0.867692
O	0.208848	1.172804	1.973136
O	-0.943204	2.176351	0.429229
N	-0.389762	-1.289069	0.706886
O	-0.143377	-2.27652	0.014353
O	-0.768611	-1.298923	1.862528
N	-0.467776	1.297108	-2.042999
H	-0.578718	1.197065	-3.045643
H	-1.314365	1.711089	-1.668051
C	-1.576477	-0.869517	-1.838222
N	-2.291129	-1.520231	-2.5148
F	-2.281119	0.0	0.0
