16

C	0.0	0.0	0.0
C	-0.452592	-0.190751	-1.46472
F	1.329745	0.0	0.0
H	0.477001	-0.447795	-1.992254
N	-0.296124	1.305374	0.785433
O	-1.004347	2.195115	0.356211
O	0.350355	1.355737	1.830937
N	-0.363053	-1.187073	0.892167
O	-0.851422	-1.033307	1.994189
O	0.014491	-2.251078	0.40189
N	-0.963552	1.04614	-2.037994
H	-1.192805	0.841373	-3.004587
H	-1.832696	1.171722	-1.515937
C	-1.372317	-1.32423	-1.683808
N	-1.96592	-2.216302	-2.170911
F	-2.319956	0.0	0.0
