16

C	0.0	0.0	0.0
C	-0.277975	0.153179	-1.574767
F	1.333893	0.0	0.0
H	-0.108892	1.227375	-1.704027
N	-0.460108	1.18149	0.826416
O	-0.726719	1.029062	2.004264
O	-0.387327	2.257214	0.24
N	-0.381961	-1.349261	0.55928
O	-0.679335	-2.204275	-0.265965
O	-0.192376	-1.543791	1.753899
N	-1.497254	-0.203929	-2.253463
H	-1.526779	-1.217387	-2.271448
H	-2.208807	0.035735	-1.529052
C	0.823581	-0.541861	-2.275082
N	1.634808	-1.145308	-2.872118
F	-2.382359	0.0	0.0
