16

C	0.0	0.0	0.0
C	-0.45875	-0.081911	-1.45153
F	1.340203	0.0	0.0
H	0.025281	-1.007856	-1.80009
N	-0.339859	1.268855	0.798712
O	0.281255	2.250292	0.398151
O	-1.077637	1.231211	1.766555
N	-0.350725	-1.244151	0.794284
O	-0.74881	-2.219321	0.172953
O	-0.048351	-1.218807	1.983167
N	0.00441	1.095883	-2.186733
H	-0.475179	1.070295	-3.078314
H	1.00243	1.033724	-2.350266
C	-1.919502	-0.231892	-1.69395
N	-2.656029	-0.399743	-2.614671
F	-2.419949	0.0	0.0
