16

C	0.0	0.0	0.0
C	-0.232027	0.214184	-1.567384
F	1.333917	0.0	0.0
H	0.225162	1.203203	-1.684582
N	-0.4691	1.150804	0.855182
O	-0.768169	0.962128	2.020226
O	-0.375956	2.242785	0.299804
N	-0.393745	-1.35861	0.519622
O	-0.825995	-2.159136	-0.297442
O	-0.090406	-1.604559	1.683293
N	-1.502106	0.202638	-2.241754
H	-1.72769	-0.770376	-2.420254
H	-2.158682	0.415351	-1.454847
C	0.671629	-0.733214	-2.249182
N	1.366585	-1.436416	-2.883432
F	-2.4084	0.0	0.0
