17
Coordinates from ORCA-job run
  C   -0.93669587634562     -0.23502663676182      0.10046664571533
  C   0.52148633835959     -0.45040537208715     -0.33774874466568
  H   -1.56894892128943     -1.01781795750604     -0.34552495107987
  H   0.76621531692980     -1.49755737352585     -0.12474968115633
  N   -1.32995070155599      1.10975695017764     -0.14313126196283
  H   -2.32993380530866      1.23582027091352     -0.07525139491300
  H   -1.00396874722113      1.35407365420420     -1.07137250448715
  N   -1.01551630793378     -0.56198523108135      1.58048451329649
  O   -1.34424544067538      0.31153749289500      2.37269844559412
  O   -0.73087829428314     -1.72412026742050      1.86828860194794
  C   1.47318722931019      0.45345380377361      0.43060424208860
  H   1.42910755632208      0.25370306035681      1.50242794523237
  H   1.22664303057732      1.50198037934874      0.26452529089526
  H   2.50133555299118      0.27057566210583      0.10515945250228
  N   0.57814854306393     -0.12758088025989     -1.76656698709668
  H   0.22567954373979     -0.90422102481888     -2.31502514218125
  H   1.53933498331926      0.02681346968612     -2.04528446972959
