17
Coordinates from ORCA-job run
  C   -0.81563316913954     -0.54970464090575      0.23693711592206
  C   0.51257554148265     -0.33013615199222     -0.50567616495191
  H   -0.81127560992364     -1.51822674939774      0.74091535790341
  H   0.60192406421461     -1.21422414771830     -1.14871249676621
  N   -1.89343100217445     -0.43317386545905     -0.67277913539355
  H   -1.86150625459256      0.49141397913409     -1.08689640527054
  H   -2.78426367750881     -0.55226371804836     -0.20932645945069
  N   -0.90679129223084      0.44722845569592      1.39789467214800
  O   -0.40613572441445      0.09864350212964      2.46704066806055
  O   -1.41814858258556      1.54107582608880      1.17245751812723
  C   1.71962493448946     -0.27223295794840      0.42000980022094
  H   1.73769759953766     -1.11007467910743      1.11753884280623
  H   2.63601535188650     -0.28951436039440     -0.17443523018005
  H   1.71224391754582      0.64737089328566      1.01063928030343
  N   0.40028666433797      0.87035272755201     -1.32905741649132
  H   1.14281222002331      1.52376509766445     -1.12327532485774
  H   0.43500501905186      0.64770078942108     -2.31327462212984
