17
Coordinates from ORCA-job run
  C   -0.98851417844536     -0.27947500531349      0.02995759491464
  C   0.50142978879839     -0.46111364593388     -0.33076772574253
  H   -1.56917503602218     -1.03269736280917     -0.51005349161738
  H   0.77226908749867     -1.49553578617371     -0.07436913590433
  N   -1.55352400695911      1.02176834647178     -0.18928561952084
  H   -1.21209050572648      1.66560387916874      0.51378434552864
  H   -1.23498217974836      1.32925532320910     -1.10215845363375
  N   -1.13812924862374     -0.65748977110555      1.47256148541271
  O   -1.11981057738327     -1.86042183976086      1.72260201715107
  O   -1.19461001655249      0.24514489860012      2.30472261366071
  C   1.40492700391908      0.49719687018966      0.42548008666120
  H   2.44967619581481      0.30975663901318      0.16328269271036
  H   1.30890649949427      0.37967360633644      1.50581665782180
  H   1.17149165703185      1.53051567461300      0.16150200814509
  N   0.58894817617563     -0.18441637343266     -1.76589605186575
  H   0.25853650243781     -0.98254539923216     -2.29696637707259
  H   1.55365083829049     -0.02522005384054     -2.03021264664905
