17
Coordinates from ORCA-job run
  C   -0.70098441354573      0.03258337702443      0.56962745387156
  C   0.40859327161445      0.11050035803834     -0.47866461835227
  H   -0.29572392049242      0.18682818174186      1.57268597146718
  H   -0.08335383215838      0.00846972347592     -1.45281795046024
  N   -1.52658864918245     -1.14247375589342      0.56085881004740
  H   -1.70873554210242     -1.45867970571839     -0.38243903635767
  H   -1.11716006547772     -1.88721126778756      1.10472723395526
  N   -1.60900750395542      1.21131972196086      0.33633730041064
  O   -2.21864774852999      1.20540073393877     -0.72916600024895
  O   -1.68360628200401      2.06686940595063      1.20994885085860
  C   1.40852016500998     -1.02722068719704     -0.28346451167468
  H   2.20378957168118     -0.95916417695753     -1.02947703525144
  H   0.94274632248019     -2.01072810241700     -0.38016273967247
  H   1.87151501662532     -0.96115164115843      0.70710390632701
  N   0.98229686428425      1.44959382848505     -0.42856585818851
  H   1.52202696308996      1.63627919435996     -1.26393019265154
  H   1.60431978266321      1.53878481215356      0.36739841592009
