17
Coordinates from ORCA-job run
  C   -0.66240049413662      0.05346259466764      0.47566828836846
  C   0.51451880213357      0.10658395270745     -0.48485713469203
  H   -0.29783396790053      0.27946398674180      1.48780319179931
  H   0.10372424523862      0.08363584917819     -1.50295527049404
  N   -1.44544195530569     -1.15851523932711      0.34796927810529
  H   -2.25040819300890     -1.08657791619824      0.96049491004071
  H   -0.89349413217006     -1.94383508761579      0.66870778240735
  N   -1.64487515204297      1.17356219774900      0.19704085871239
  O   -2.59865748278564      1.23636555378545      0.96877682523701
  O   -1.45436007540472      1.92744041206391     -0.75357075778223
  C   1.40476009051438     -1.11099025559583     -0.27429070346903
  H   0.89610309792800     -2.03425837001352     -0.55447582341489
  H   1.73622447151938     -1.17124648480916      0.76628696196271
  H   2.29500221251174     -1.03306711980648     -0.90392510584114
  N   1.28191286476995      1.31506395369033     -0.18908402373680
  H   0.81642591493911      2.11510956271864     -0.59864935209595
  H   2.19979975320038      1.24680241006372     -0.61093992510711
