17
Coordinates from ORCA-job run
  C   -0.86577046596786     -0.39376288745335      0.36030747514540
  C   0.42104444252206     -0.39206029002001     -0.48205747566070
  H   -0.91444116863603     -1.29473196349717      0.97406661203594
  H   0.39939022992250     -1.35503017434586     -1.00726154475513
  N   -2.05208087330944     -0.18474180943942     -0.39128070728583
  H   -2.63768551898574     -1.00305663471164     -0.42857833620086
  H   -1.82035251066199      0.16593089749207     -1.31227707982881
  N   -0.71988936485645      0.71829195029477      1.39059049886762
  O   -0.72206608467567      1.87172125454540      0.96696617012294
  O   -0.55919373146466      0.38902042443895      2.56422212062647
  C   1.67983513567947     -0.32683135736445      0.37988925621574
  H   1.76709193078426      0.64904875434084      0.86433251037126
  H   1.68018560719965     -1.09416910053248      1.15931566627898
  H   2.56598297107591     -0.47188109111139     -0.24276407487222
  N   0.31565177633490      0.63931982383169     -1.51030757800836
  H   0.40686265049069      1.55748070937611     -1.09086226462449
  H   1.05243497454838      0.52345149415593     -2.19430124842794
