17

C	-0.472711	-0.00597	-1.42456
C	0.0	0.0	0.0
Cl	-2.51893	-0.121939	-1.369085
H	1.095942	0.0	0.0
N	-0.098449	1.129082	-2.099878
H	-0.505146	1.244701	-3.015356
H	-0.188439	1.927763	-1.480159
C	-0.189154	-1.229085	-2.16609
N	0.039836	-2.211644	-2.768627
C	-0.441596	-1.194849	0.819866
H	-1.514637	-1.173989	1.033968
H	-0.205999	-2.133052	0.308959
H	0.120861	-1.184946	1.758203
N	-0.3281	1.304446	0.57201
H	0.457963	1.578587	1.155011
H	-1.167713	1.25137	1.137238
H	2.72004	0.0	0.0
