17

C	-0.555091	0.033746	-1.425914
C	0.0	0.0	0.0
Cl	-0.087265	-1.439742	-2.34886
H	1.099024	0.0	0.0
N	-1.998649	0.111927	-1.386813
H	-2.191364	0.880633	-0.749532
H	-2.356394	0.349228	-2.305724
C	0.025638	1.17178	-2.16875
N	0.377981	2.117623	-2.771076
C	-0.506344	-1.18237	0.800735
H	-1.581312	-1.119108	0.991611
H	0.036638	-1.197723	1.749845
H	-0.298469	-2.12247	0.29114
N	-0.442736	1.276718	0.610421
H	-0.69829	1.103598	1.574587
H	0.379791	1.872937	0.640401
H	2.872669	0.0	0.0
