17

C	-0.465457	0.007577	-1.426439
C	0.0	0.0	0.0
Cl	-2.525831	-0.109561	-1.379809
H	1.095899	0.0	0.0
N	-0.091573	1.144772	-2.09244
H	-0.475951	1.262871	-3.01797
H	-0.18272	1.942806	-1.470512
C	-0.184976	-1.211503	-2.175225
N	0.048875	-2.191981	-2.779468
C	-0.446697	-1.200253	0.808248
H	-1.523439	-1.186708	1.001419
H	0.096962	-1.191038	1.757183
H	-0.195492	-2.134978	0.29831
N	-0.330638	1.300327	0.577757
H	0.44914	1.568991	1.169008
H	-1.175214	1.246418	1.133277
H	2.712642	0.0	0.0
