17

C	-0.473409	-0.009708	-1.425132
C	0.0	0.0	0.0
Cl	-2.514686	-0.116793	-1.368469
H	1.095946	0.0	0.0
N	-0.093695	1.122117	-2.104655
H	-0.178192	1.923121	-1.487431
H	-0.504642	1.23795	-3.017981
C	-0.190703	-1.235893	-2.162789
N	0.032384	-2.220116	-2.765067
C	-0.441602	-1.192699	0.822877
H	-0.199649	-2.132075	0.316867
H	-1.515741	-1.174873	1.031749
H	0.11573	-1.177134	1.764118
N	-0.32918	1.30512	0.569562
H	0.452785	1.576725	1.15847
H	-1.173284	1.254906	1.128138
H	2.723655	0.0	0.0
