17

C	-0.479734	-0.008784	-1.423701
C	0.0	0.0	0.0
Cl	-2.518976	-0.120937	-1.361939
H	1.095944	0.0	0.0
N	-0.103941	1.12454	-2.10333
H	-0.52325	1.24386	-3.012637
H	-0.182614	1.923939	-1.483412
C	-0.197715	-1.232657	-2.165203
N	0.022525	-2.214579	-2.771743
C	-0.439701	-1.193808	0.822442
H	-0.192554	-2.132725	0.318287
H	0.114831	-1.175895	1.765447
H	-1.514539	-1.179086	1.027758
N	-0.330698	1.304878	0.568717
H	-1.177531	1.254798	1.12385
H	0.449588	1.57581	1.160909
H	2.722929	0.0	0.0
