13

C	-0.388582	0.130631	-1.461266
C	0.0	0.0	0.0
Cl	-0.203543	-1.536089	-2.277743
H	1.088701	0.0	0.0
H	-1.444943	0.343034	-1.626208
H	-0.362795	0.884878	0.527898
N	0.456054	1.126548	-1.990175
H	0.374079	1.204404	-2.99433
H	1.427149	0.946023	-1.71723
N	-0.647117	-1.15549	0.652508
O	-1.877113	-1.21371	0.553353
O	0.037383	-1.960393	1.274582
H	2.888863	0.0	0.0
