13

C	-0.502451	0.056439	-1.407396
C	0.0	0.0	0.0
Cl	-2.419812	0.132468	-1.368725
H	1.091258	0.0	0.0
H	-0.260312	1.005777	-1.875258
H	-0.36461	-0.876297	0.53575
N	-0.044766	-1.029125	-2.16325
H	-0.201204	-1.915503	-1.70575
H	-0.423178	-1.039572	-3.098392
N	-0.403928	1.169803	0.769634
O	-0.643227	1.012106	1.972193
O	-0.376944	2.268034	0.204541
H	2.655439	0.0	0.0
