13

C	-0.422071	0.121113	-1.462984
C	0.0	0.0	0.0
Cl	-0.344038	-1.490398	-2.264122
H	1.088897	0.0	0.0
H	-1.463026	0.434615	-1.566947
H	-0.360132	0.898592	0.509382
N	0.449495	1.037785	-2.151628
H	1.408106	0.853	-1.836261
H	0.216319	1.981685	-1.861471
N	-0.654809	-1.129013	0.688314
O	-1.876128	-1.019986	0.868844
O	0.016035	-2.102845	1.023935
H	2.883167	0.0	0.0
