13

C	-0.460255	0.033302	-1.447215
C	0.0	0.0	0.0
Cl	-0.187478	1.71689	-2.024516
H	1.089701	0.0	0.0
H	0.201143	-0.597972	-2.0402
H	-0.369887	0.829162	0.600965
N	-1.830377	-0.332627	-1.740612
H	-1.909116	-1.320837	-1.526074
H	-2.443951	0.172147	-1.108504
N	-0.386862	-1.229501	0.644119
O	-0.542501	-1.229598	1.875353
O	-0.408583	-2.264971	-0.052115
H	2.572364	0.0	0.0
