13

C	-0.553846	0.027335	-1.420903
C	0.0	0.0	0.0
Cl	-0.342793	1.657783	-2.136814
H	1.087843	0.0	0.0
H	0.090187	-0.634831	-2.004071
H	-0.348262	-0.932908	0.454006
N	-1.93443	-0.374727	-1.594865
H	-2.485977	0.079955	-0.874949
H	-1.985735	-1.373503	-1.424748
N	-0.601641	1.071396	0.81784
O	-1.766017	0.883783	1.214717
O	0.047109	2.08697	1.047027
H	2.841566	0.0	0.0
