17

C	-0.482627	0.021984	-1.428135
C	0.0	0.0	0.0
F	-1.868052	0.331459	-1.478981
H	1.09268	0.0	0.0
N	0.102749	1.181261	-2.242978
O	-0.268918	1.218661	-3.416263
O	0.871382	1.972072	-1.713419
N	-0.182442	-1.129422	-2.15904
H	-0.357505	-1.972379	-1.631873
H	-0.655214	-1.124603	-3.051335
C	-0.460303	-1.244371	0.589744
N	-0.824629	-2.261932	1.056759
C	-0.479437	1.184879	0.840553
H	-0.084963	2.10692	0.417856
H	-1.568982	1.244399	0.910158
H	-0.06028	1.079281	1.842869
F	2.516384	0.0	0.0
