17

C	-0.493311	0.021522	-1.424411
C	0.0	0.0	0.0
F	-1.879662	0.313835	-1.465275
H	1.092409	0.0	0.0
N	0.068379	1.191973	-2.244791
O	-0.293332	1.207348	-3.421495
O	0.802936	2.013645	-1.716536
N	-0.181478	-1.125209	-2.157445
H	-0.291636	-1.969803	-1.617805
H	-0.682044	-1.149723	-3.033558
C	-0.457221	-1.244074	0.594001
N	-0.820539	-2.25306	1.079693
C	-0.469949	1.180678	0.852066
H	-1.558919	1.24937	0.920855
H	-0.054042	1.05795	1.853867
H	-0.065035	2.103181	0.441492
F	2.517414	0.0	0.0
