17

C	-0.327921	-0.000481	-1.463607
C	0.0	0.0	0.0
F	0.226734	-1.07525	-2.089057
H	1.096261	0.0	0.0
N	-1.873392	-0.25252	-1.758049
O	-2.678489	-0.234763	-0.83091
O	-2.170726	-0.383336	-2.946004
N	0.056487	1.161963	-2.154527
H	-0.303748	1.998885	-1.717324
H	-0.238282	1.097297	-3.121734
C	-0.447538	-1.22988	0.624795
N	-0.767871	-2.216904	1.177937
C	-0.439664	1.239327	0.771089
H	-1.520926	1.404357	0.753746
H	-0.117638	1.128166	1.807942
H	0.08914	2.113307	0.381621
F	2.516301	0.0	0.0
