17

C	-0.464042	-0.017428	-1.430969
C	0.0	0.0	0.0
F	0.109315	1.058126	-2.092336
H	1.092433	0.0	0.0
N	0.062146	-1.229461	-2.205078
O	-0.151217	-1.196908	-3.417271
O	0.602733	-2.136901	-1.592624
N	-1.86461	-0.055882	-1.622158
H	-2.3164	0.619306	-1.021846
H	-2.086804	0.12289	-2.593777
C	-0.560277	-1.093993	0.765849
N	-1.021935	-1.924971	1.459313
C	-0.323105	1.341418	0.67104
H	0.168285	1.345376	1.645254
H	-1.392972	1.534636	0.822799
H	0.119701	2.142081	0.078858
F	2.523229	0.0	0.0
