17

C	-0.168715	-0.085593	-1.524049
C	0.0	0.0	0.0
F	-0.628223	-1.345621	-1.889543
H	1.096218	0.0	0.0
N	-1.345519	0.809048	-1.985734
O	-2.461892	0.466857	-1.61458
O	-1.09992	1.81453	-2.655865
N	1.005864	0.257456	-2.176452
H	0.918395	1.033171	-2.808718
H	1.814172	0.27849	-1.521428
C	-0.620455	-1.073584	0.741398
N	-1.11459	-1.914812	1.396683
C	-0.362202	1.378252	0.55325
H	-1.435636	1.582058	0.526563
H	-0.009767	1.449234	1.583364
H	0.169	2.13612	-0.025471
F	2.632435	0.0	0.0
