17

C	-0.460248	-0.033324	-1.431112
C	0.0	0.0	0.0
F	0.123566	1.026752	-2.107755
H	1.09241	0.0	0.0
N	0.050894	-1.262357	-2.188803
O	0.589906	-2.164214	-1.564633
O	-0.172842	-1.24834	-3.400726
N	-1.859605	-0.060795	-1.620232
H	-2.305654	0.618426	-1.01983
H	-2.084994	0.114637	-2.591298
C	-0.563233	-1.082052	0.780286
N	-1.024661	-1.900527	1.488006
C	-0.317734	1.351688	0.652268
H	0.171039	1.365427	1.628044
H	-1.387609	1.554157	0.798872
H	0.13202	2.142278	0.050683
F	2.523945	0.0	0.0
