17

C	-0.490672	0.01759	-1.423298
C	0.0	0.0	0.0
F	0.009976	1.105184	-2.085051
H	1.092415	0.0	0.0
N	0.108567	-1.173407	-2.235681
O	0.841962	-1.980774	-1.685435
O	-0.248619	-1.21318	-3.41605
N	-1.898926	0.029244	-1.575136
H	-2.141562	-0.146575	-2.543031
H	-2.321832	-0.666078	-0.973155
C	-0.54156	-1.15936	0.678227
N	-1.02503	-2.087536	1.217569
C	-0.394289	1.292674	0.720256
H	0.035457	2.132337	0.173757
H	-1.475373	1.430894	0.811079
H	0.059959	1.276995	1.712431
F	2.524525	0.0	0.0
