14
Coordinates from ORCA-job run
  C   0.90957599627701      0.22145123797344      0.38596766012552
  C   -0.53462474149700     -0.17695151873844      0.10924466164605
  Br  1.41923450997012      1.81320247330208     -0.54990971426345
  H   -0.76163002329285     -1.04270331716557      0.73522525371106
  H   1.07057757438248      0.38106550388890      1.44970398529447
  N   1.75884456232112     -0.97684188784727      0.00234739194216
  O   2.51704581715784     -0.91481674868553     -0.94892494583465
  O   1.56067765508730     -1.94512817649531      0.73063747512704
  N   -0.76072267369709     -0.46255024478837     -1.24744850282738
  H   -1.67091750920652     -0.87193716824227     -1.40240752135208
  H   -0.65332304871988      0.35430675101808     -1.83416140429325
  N   -1.40865489824439      0.94538838841738      0.70752958124675
  O   -2.19602903320751      1.50984374248401     -0.04156620896139
  O   -1.24805418733061      1.16567096487886      1.90376228843915
