14
Coordinates from ORCA-job run
  C   0.89849037146028      0.20038214764003      0.42108288873074
  C   -0.54339588990515     -0.16254549606494      0.08916245144990
  Br  1.48590740674163      1.77247694449287     -0.50299433358202
  H   -0.81799293267875     -1.01682845091294      0.71186902146994
  H   1.02075160911856      0.36340246180203      1.48943745664124
  N   1.73109895922533     -1.02140855455943      0.07870525356235
  O   2.52620658917042     -0.98605673815252     -0.84337147455825
  O   1.48039286099168     -1.97889521456417      0.80505554956398
  N   -0.72229026079622     -0.45319275812498     -1.27331759338134
  H   -0.56608126865583      0.35475227748220     -1.86144783993822
  H   -1.63739826540615     -0.83633721331288     -1.46276708442316
  N   -1.41115626109366      0.98696590184781      0.64418530033368
  O   -1.29204099834853      1.21343966574175      1.84401782909795
  O   -2.15449191982359      1.56384502668516     -0.13961742496680
