14
Coordinates from ORCA-job run
  C   0.75928582354105     -0.64362415079902     -0.06619158290768
  C   -0.56021739159908      0.03047121970455      0.24703737191014
  Br  1.00783676770167     -2.18413632861723      1.07278591195295
  H   -0.55643912834482      0.41536982165919      1.27153017419179
  H   0.81818693967920     -0.96587258225070     -1.10222314638571
  N   1.91510821688522      0.28855614967150      0.17507896489707
  O   2.90655819874480      0.10414573887580     -0.51694879358553
  O   1.77468220433298      1.13260509213173      1.05387874903944
  N   -1.66787474524727     -0.81419057213792     -0.12517320966601
  H   -1.62871902530047     -1.68487011405212      0.38934202983375
  H   -2.53296450310545     -0.34266381023915      0.11227636740110
  N   -0.69558217949939      1.25996924993958     -0.62412458826587
  O   0.12144333678651      1.43876164046534     -1.52157429460200
  O   -1.66230451457494      1.96747864564845     -0.36569395381344
