14
Coordinates from ORCA-job run
  C   0.73465375038272     -0.52641504379778     -0.27626424213800
  C   -0.60062827875842     -0.09346968818009      0.31999116717259
  Br  1.11289031694476     -2.35169423228046      0.20871459013752
  H   -0.57552725966699     -0.16812330025777      1.40504458052042
  H   0.74901155986518     -0.44435995452855     -1.36071127702285
  N   1.85579311197153      0.34188827310555      0.22547735839777
  O   2.76037089422372      0.57624764592757     -0.56683526078610
  O   1.77057723655041      0.73051151519147      1.38716817047109
  N   -1.75186328463978     -0.74467436154684     -0.21237310354604
  H   -1.97207814744873     -1.59120197891133      0.28980298026778
  H   -1.67296068071934     -0.93125477064495     -1.20300015552018
  N   -0.75268999267632      1.38254978872871      0.01594757975877
  O   -0.48962006173848      1.71407543276941     -1.14066055791455
  O   -1.16792916429027      2.10692067442505      0.90869817020176
