16
Coordinates from ORCA-job run
  C   0.96283414215687     -0.62791783818215     -0.28549903097202
  C   -0.40506587099494      0.06377956228441     -0.26724364209800
  Br  1.43760964709931     -1.08922425586105     -2.15019903374317
  H   -1.12711832632739     -0.63020119624417     -0.71805221594507
  H   1.73608553313716      0.08145928878936      0.02403501636767
  N   1.10451052053202     -1.81922395725456      0.50238691532792
  H   1.21368549583676     -1.59295516938001      1.48191353107117
  H   0.31124432693673     -2.43650245572185      0.38051315607753
  C   -0.40982183154834      1.36972001840252     -1.05753487072294
  H   0.34311493751476      2.05855204041646     -0.66022866204794
  H   -1.38361829247933      1.85931468294472     -0.97720742590343
  H   -0.19823587727958      1.20737605874536     -2.11369043545338
  C   -0.81460953625968      0.32992710531299      1.18358670851726
  H   -1.76842389129549      0.86163967246472      1.21488781339266
  H   -0.07035929273653      0.95601029565648      1.68777076557405
  H   -0.93183168429234     -0.59175385237323      1.75556141055772
