16
Coordinates from ORCA-job run
  C   0.69467618260840     -0.89557554501755     -0.56450417902405
  C   -0.50696003217765      0.04820859298503     -0.41893625384042
  Br  0.03443078321904     -2.74838295589013     -0.79880001882728
  H   -1.17005503495303     -0.15211484361754     -1.26808896280439
  H   1.19903195537564     -0.68510447379993     -1.51036448276255
  N   1.68307765440446     -0.88541733591212      0.47215848200092
  H   1.27217447136712     -0.90930750683899      1.39515492366417
  H   2.30072603436455     -0.09028132570908      0.38283727124946
  C   -0.01476292369377      1.49305348882821     -0.52174101173085
  H   0.55526320556193      1.66074768273318     -1.44040923587656
  H   -0.86132816459126      2.18409173951761     -0.52480607394369
  H   0.62035947326397      1.75501350425532      0.32897563225455
  C   -1.29615886309409     -0.16246843183438      0.86873654439543
  H   -2.17266249110422      0.48995158169586      0.87960359097054
  H   -0.69873821395838      0.09120474256974      1.74966948841208
  H   -1.64107403659270     -1.19261891396521      0.96751428586264
