15
Coordinates from ORCA-job run
  C   -0.80417496330840      0.12186895116074      0.04262157990782
  C   0.51084062209481      0.51292252192935     -0.64657600408690
  Cl  -2.15637836171826      0.52311331249614     -0.96805049079664
  H   0.57880777227329      1.60280891810886     -0.64473502219907
  N   -0.99055266334226      0.87051608126695      1.36926635385492
  O   -0.32423296186548      1.88446070002934      1.51944117471452
  O   -1.84119899965364      0.40696780545348      2.10961767353164
  N   -0.77653306194294     -1.37495514980546      0.39202922771007
  O   -0.14506483121310     -1.62750842020157      1.40838849248300
  O   -1.32124581571934     -2.14268884877535     -0.37997343495339
  C   0.56727182714854     -0.02845742915647     -1.99652443753491
  N   0.62823399300959     -0.42612108146764     -3.10026500032064
  N   1.73524830431495      0.00870405165324      0.12271479219726
  O   2.07869617954637     -1.14189402409182     -0.11318664568032
  O   2.26028296037586      0.80926261140021      0.88323174117265
