15
Coordinates from ORCA-job run
  C   -0.38154150637170     -0.44071408945867      0.34679283395447
  C   0.53413985916481      0.33900680089442     -0.59094821299023
  Cl  0.19265889788341     -2.02198307028806      0.68992509019783
  H   0.14449055392872      1.35367204699464     -0.70306453392934
  N   -1.79682902495691     -0.49619034935261     -0.27889378604419
  O   -2.56071764731189     -1.31485943312646      0.20266710025007
  O   -2.02747834305552      0.33725313437683     -1.14529954503713
  N   -0.65099330283982      0.38487521824214      1.63494184971782
  O   -0.90167754932859      1.56021202360755      1.40685808448214
  O   -0.64422562296340     -0.19850414613861      2.69873961801551
  C   0.64657526173015     -0.32198376499511     -1.88050119092877
  N   0.72421004740903     -0.86840214977085     -2.91758160240855
  N   1.91871031951886      0.50095990865393      0.03108156615600
  O   2.85271343156540      0.60728523533690     -0.74736832918908
  O   1.95096462562747      0.57937263502396      1.25165105775346
