14

C	-0.376436	-0.005077	-1.490378
C	0.0	0.0	0.0
Cl	0.141637	-1.591406	-2.160864
H	1.091874	0.0	0.0
C	-1.820519	0.115389	-1.718024
N	-2.980335	0.168579	-1.902753
C	0.329709	1.036797	-2.245019
N	0.815834	1.850357	-2.938946
C	-0.542103	-1.133199	0.711631
N	-0.959429	-2.072183	1.283885
N	-0.447096	1.248689	0.652207
O	-0.392994	1.284409	1.876262
O	-0.803006	2.180228	-0.074583
F	2.405567	0.0	0.0
