14

C	-0.295163	0.038053	-1.493285
C	0.0	0.0	0.0
Cl	-2.05574	0.277364	-1.862054
H	1.094236	0.0	0.0
C	0.46615	1.075465	-2.201373
N	1.025719	1.844595	-2.891031
C	0.088873	-1.259633	-2.062543
N	0.36057	-2.297262	-2.542436
C	-0.55306	-1.165769	0.642204
N	-0.969173	-2.136913	1.159072
N	-0.41718	1.235355	0.685821
O	-0.641062	1.162936	1.892343
O	-0.439039	2.268741	0.01832
F	2.394097	0.0	0.0
