14

C	-0.304526	0.091653	-1.488149
C	0.0	0.0	0.0
Cl	-2.071938	0.322165	-1.837394
H	1.094254	0.0	0.0
C	0.439686	1.16468	-2.159184
N	1.017665	1.953941	-2.809605
C	0.091173	-1.178244	-2.108975
N	0.375285	-2.189352	-2.635556
C	-0.547287	-1.189712	0.602348
N	-0.959055	-2.18048	1.084282
N	-0.412894	1.208028	0.736462
O	-0.472411	2.261508	0.103456
O	-0.590231	1.094029	1.946563
F	2.393434	0.0	0.0
