14
Coordinates from ORCA-job run
  C   0.74463699386820     -0.04162685642448      0.58294206093592
  C   -0.36774975929960     -0.20256565105740     -0.44186837803078
  Cl  1.84092467104271     -1.48383981394492      0.43274322829163
  H   0.04970097466201     -0.40708004280578     -1.43467773946136
  H   0.30942698619237     -0.10301928844993      1.57852077254801
  N   1.39634363934112      1.21027605432440      0.40266678784473
  H   1.94580937119031      1.21880984216736     -0.44864278277959
  H   2.00590438972485      1.42088306973938      1.18157826965672
  N   -1.27832825456035      0.89751856966099     -0.34888146739787
  H   -1.79593227598086      1.02122373467305     -1.20835998509123
  H   -0.76201083596531      1.73912734809959     -0.12832436092135
  N   -1.15363768774932     -1.45962319717890     -0.12451780406682
  O   -1.40287513839650     -1.69730471696732      1.05043703036352
  O   -1.53221307406963     -2.11277905183603     -1.09461563189155
