14
Coordinates from ORCA-job run
  C   0.78363388011078      0.61797354714094     -0.20279540494556
  C   -0.64647812109986      0.10401013095113     -0.41077221450557
  Cl  0.68329599925116      2.40089467583609     -0.09527382076196
  H   -1.13539018990825      0.66737308041555     -1.20517105575834
  H   1.38275681201198      0.41167851918932     -1.09645892589396
  N   1.32782812266058      0.12052768325306      1.03668805953536
  H   1.49505263851951     -0.87408897650652      0.93296751924648
  H   2.19994008713592      0.58759721591602      1.24952821759806
  N   -1.42245773442946      0.05349917218499      0.77634253721422
  H   -0.82744414661297      0.16941489032788      1.58763224313981
  H   -2.17822829337269      0.71874292713620      0.77174247633527
  N   -0.56389565656148     -1.30749350253104     -0.98481864517445
  O   -1.41258482611314     -1.61538134291216     -1.81304384530945
  O   0.31297142840793     -2.05374802040146     -0.54756714071991
