14
Coordinates from ORCA-job run
  C   0.73321044471330      0.40942832441812      0.67866751479292
  C   -0.36844053586243      0.27537380548140     -0.38410437788626
  Cl  0.06215174978770     -0.23627433058699      2.24231377324852
  H   0.05600539286414      0.59292088209775     -1.33933519680095
  H   0.83240135092240      1.48063509453968      0.84978684689102
  N   1.98782098059312     -0.17739659143689      0.37487538808414
  H   1.92621348034052     -0.95235802642599     -0.26843437330561
  H   2.66693373713414      0.50486764702984      0.07590946825824
  N   -1.50891917828251      1.04652525432907     -0.06539223405527
  H   -1.99287305331549      0.66875035559190      0.73877970488024
  H   -2.15010598045223      1.09712793497260     -0.84534014350962
  N   -0.67079593568353     -1.21362718190682     -0.60658892889866
  O   -1.75298594986141     -1.64145718023321     -0.22743023501650
  O   0.18038349710230     -1.85551598787044     -1.22370720668221
