16

C	0.0	0.0	0.0
C	-0.472711	0.019996	-1.449216
F	1.389046	0.0	0.0
H	0.379248	-0.248727	-2.080205
H	-0.352791	-0.931645	0.430055
C	-0.411134	1.187687	0.844625
H	-0.0051	1.043062	1.850458
H	0.02279	2.102538	0.432319
H	-1.50271	1.1963	0.851463
N	-0.810509	1.410495	-1.91551
O	-1.954525	1.809038	-2.018306
O	0.206187	2.081445	-2.129343
N	-1.504085	-1.007483	-1.794102
O	-1.372418	-2.095416	-1.24863
O	-2.202687	-0.78233	-2.775765
F	-2.592297	0.0	0.0
