16

C	0.0	0.0	0.0
C	-0.290129	-0.276642	-1.467734
F	1.390872	0.0	0.0
H	0.328797	0.390144	-2.066645
H	-0.384234	-0.801045	0.620821
C	-0.451063	1.363736	0.456975
H	-0.07786	2.132923	-0.224722
H	-0.035311	1.54401	1.453306
H	-1.544967	1.311846	0.472741
N	-1.670675	-0.126257	-2.056208
O	-1.955415	1.022124	-2.363555
O	-2.258441	-1.142509	-2.391594
N	0.183289	-1.653541	-1.838746
O	0.06873	-2.56128	-1.02205
O	0.647047	-1.771795	-2.973419
F	-2.61961	0.0	0.0
