16

C	0.0	0.0	0.0
C	-0.670721	-0.013119	-1.342171
F	1.383241	0.0	0.0
H	-1.815839	0.0199	-0.990399
H	-0.334588	-0.91494	0.490268
C	-0.446927	1.207491	0.803052
H	-1.536617	1.197162	0.81965
H	-0.069416	2.129131	0.353686
H	-0.037297	1.123015	1.812297
N	-0.433525	-1.246239	-2.123176
O	-0.038487	-2.246701	-1.526411
O	-0.742266	-1.218853	-3.313161
N	-0.234043	1.138608	-2.166896
O	-0.94021	2.145553	-2.141239
O	0.832266	1.042545	-2.775621
F	-2.853762	0.0	0.0
