16

C	0.0	0.0	0.0
C	-0.280376	0.110368	-1.493489
F	1.39195	0.0	0.0
H	0.163501	1.028491	-1.873121
H	-0.374028	-0.939415	0.392677
C	-0.451118	1.197873	0.797228
H	-1.543188	1.116854	0.840202
H	-0.126345	2.121098	0.30625
H	0.016672	1.147603	1.785858
N	-1.675756	0.078773	-2.066905
O	-2.126092	1.177193	-2.364117
O	-2.121419	-1.008902	-2.399809
N	0.460932	-0.986528	-2.21252
O	0.493016	-2.102117	-1.708058
O	0.970228	-0.675107	-3.290819
F	-2.61348	0.0	0.0
