16

C	0.0	0.0	0.0
C	-0.27629	-0.106059	-1.492607
F	1.389639	0.0	0.0
H	0.326878	0.644167	-2.002085
H	-0.38154	-0.87009	0.521693
C	-0.453156	1.300553	0.615176
H	-1.547583	1.241597	0.62785
H	-0.086025	2.147094	0.026266
H	-0.031318	1.365325	1.623071
N	-1.656185	0.061425	-2.072506
O	-1.967623	1.223456	-2.291624
O	-2.227572	-0.940696	-2.475015
N	0.247074	-1.415612	-2.016598
O	0.715022	-1.38623	-3.155472
O	0.169353	-2.411199	-1.306469
F	-2.620209	0.0	0.0
