16

C	0.0	0.0	0.0
C	-0.343832	-0.073163	-1.488275
F	1.382763	0.0	0.0
H	-0.175788	0.886736	-1.971522
H	-0.367993	-0.883736	0.512504
C	-0.454826	1.285179	0.638284
H	-0.004215	2.132732	0.113188
H	-0.117407	1.302125	1.677726
H	-1.548522	1.26572	0.573538
N	-1.697766	-0.539428	-1.972693
O	-2.315748	0.278028	-2.643694
O	-1.940167	-1.732634	-1.872549
N	0.606863	-1.027738	-2.169432
O	0.833202	-2.103142	-1.626946
O	1.047536	-0.674662	-3.266524
F	-2.619861	0.0	0.0
