16

C	0.0	0.0	0.0
C	-0.669488	-0.031705	-1.343987
F	1.381517	0.0	0.0
H	-1.814335	0.017274	-0.990348
H	-0.338145	-0.905219	0.503337
C	-0.440108	1.221522	0.78721
H	-1.529428	1.222019	0.802556
H	-0.051119	2.132376	0.32557
H	-0.033579	1.147792	1.799186
N	-0.430624	-1.275278	-2.109107
O	-0.72936	-1.26071	-3.302785
O	-0.041063	-2.269684	-1.49681
N	-0.225761	1.105136	-2.185002
O	0.845339	0.99575	-2.784277
O	-0.927426	2.116957	-2.176541
F	-2.846775	0.0	0.0
