18

C	-0.269078	-0.002213	-1.495528
C	0.0	0.0	0.0
Br	-2.253901	0.190921	-1.846665
H	1.105243	0.0	0.0
N	0.38581	1.118907	-2.12417
H	0.167192	1.922372	-1.538596
H	1.385538	0.947129	-1.970669
C	0.192333	-1.286237	-2.151598
H	0.128255	-1.182443	-3.235882
H	1.23863	-1.441899	-1.858079
H	-0.411723	-2.139724	-1.840468
N	-0.551225	-1.16561	0.705906
H	-0.100728	-1.99398	0.326052
H	-0.191049	-1.094313	1.65539
N	-0.434355	1.240815	0.602291
H	-1.382147	1.126457	0.946252
H	0.184744	1.461693	1.374323
H	2.911609	0.0	0.0
