18

C	-0.464176	-0.027988	-1.461137
C	0.0	0.0	0.0
Br	-0.07132	1.742149	-2.298245
H	1.102336	0.0	0.0
N	0.301438	-1.001775	-2.211978
H	1.286312	-0.809945	-2.01371
H	0.106624	-1.884502	-1.742324
C	-1.950738	-0.270431	-1.626572
H	-2.211559	-0.272105	-2.686334
H	-2.184279	-1.248278	-1.196374
H	-2.525397	0.493205	-1.100669
N	-0.369655	-1.297584	0.578326
H	0.421585	-1.617065	1.129045
H	-1.161523	-1.151099	1.195692
N	-0.592039	1.08418	0.79011
H	-0.450702	1.94995	0.279322
H	-0.005378	1.167163	1.615937
H	2.953605	0.0	0.0
