14

C	-0.296713	-0.000434	-1.499017
C	0.0	0.0	0.0
Cl	-0.093212	-1.762167	-2.128534
H	1.095268	0.0	0.0
H	-0.339494	0.971989	0.371714
C	-1.688525	0.317573	-1.841685
N	-2.798908	0.614919	-2.084942
N	0.60928	0.898234	-2.091734
H	1.549548	0.735338	-1.706936
H	0.608992	0.845801	-3.101555
N	-0.671449	-1.066052	0.730836
H	-0.099318	-1.899468	0.64741
H	-0.660249	-0.813489	1.711692
H	2.961785	0.0	0.0
