14

C	-0.294846	0.104277	-1.502506
C	0.0	0.0	0.0
Cl	-0.252721	-1.66693	-2.185164
H	1.094153	0.0	0.0
H	-0.41299	-0.92142	0.409984
C	-1.65936	0.546122	-1.819269
N	-2.763375	0.868535	-2.057126
N	0.671898	0.937875	-2.075095
H	0.653749	0.953464	-3.085082
H	1.602415	0.720273	-1.696256
N	-0.481165	1.202341	0.675398
H	0.325845	1.713367	1.013374
H	-1.054556	0.957535	1.469601
H	2.928353	0.0	0.0
