14

C	-0.57812	-0.029639	-1.408057
C	0.0	0.0	0.0
Cl	0.159534	1.420702	-2.295109
H	1.097053	0.0	0.0
H	-0.349462	0.932532	0.459885
C	-0.142945	-1.215133	-2.158229
N	0.172836	-2.175761	-2.755058
N	-2.000928	0.015298	-1.425338
H	-2.351503	0.224047	-2.351232
H	-2.328556	0.709112	-0.767312
N	-0.498881	-1.161382	0.761803
H	0.223368	-1.873293	0.669059
H	-0.476356	-0.896895	1.743401
H	2.932713	0.0	0.0
