14

C	-0.393395	0.072653	-1.474722
C	0.0	0.0	0.0
Cl	-0.089446	-1.539916	-2.228378
H	1.093342	0.0	0.0
H	-0.405326	-0.896758	0.480901
C	-1.833686	0.348948	-1.624365
N	-2.985152	0.579356	-1.68163
N	0.375942	1.068061	-2.196629
H	1.354045	0.8409	-1.985845
H	0.190377	1.937604	-1.698562
N	-0.395864	1.263081	0.624837
H	-1.202274	1.152516	1.221685
H	0.384123	1.588011	1.183321
H	2.914466	0.0	0.0
