14

C	-0.342867	0.050359	-1.488697
C	0.0	0.0	0.0
Cl	-0.097773	-1.596214	-2.199461
H	1.101355	0.0	0.0
H	-0.327936	0.962429	0.413638
C	-1.749534	0.404623	-1.729631
N	-2.861136	0.740836	-1.910778
N	0.534377	0.963002	-2.196882
H	0.313275	1.904217	-1.88402
H	1.481156	0.757947	-1.853347
N	-0.663656	-1.083701	0.718627
H	-0.658167	-0.849575	1.704756
H	-0.077737	-1.906884	0.624754
H	2.969742	0.0	0.0
