14

C	-0.613742	-0.007806	-1.397721
C	0.0	0.0	0.0
Cl	0.151181	1.366734	-2.375414
H	1.095007	0.0	0.0
H	-0.361934	-0.908151	0.493087
C	-0.289467	-1.234107	-2.135848
N	-0.059024	-2.225852	-2.719186
N	-2.027235	0.141164	-1.303758
H	-2.432264	0.357742	-2.206007
H	-2.175229	0.910073	-0.65377
N	-0.509968	1.190858	0.70486
H	-0.646062	0.94919	1.67799
H	0.246174	1.869587	0.688769
H	2.927304	0.0	0.0
