16
Coordinates from ORCA-job run
  C   0.71575570205496     -0.78583174240568     -0.33412417386898
  C   -0.66859192015815     -0.15408976559276     -0.49784070028584
  Br  0.48870816467413     -2.65436056874739      0.19562145071637
  H   -1.24399171955522     -0.75241368067497     -1.21042731557626
  H   1.18510662163367     -0.83593105784779     -1.31489718160273
  C   1.60925599287607     -0.06268553397439      0.65516666099198
  H   2.60581639681070     -0.50580460849853      0.65629241933941
  H   1.70631047877035      0.98919859412751      0.36839724636770
  H   1.21284139368032     -0.11594564082555      1.66958310973835
  N   -0.45890431019269      1.16160979285074     -1.23047977539226
  O   0.23409003124546      1.11530843772452     -2.24488098850442
  O   -0.99849982876798      2.17134863518184     -0.78801018925060
  C   -1.44726350331152      0.06848018806931      0.78031994867836
  H   -1.51481617464923     -0.87224917817346      1.32788558517435
  H   -2.45587794997139      0.41474958391649      0.55713731728658
  H   -0.97093937513947      0.81761654487012      1.41125658618799
