16
Coordinates from ORCA-job run
  C   0.88846505056752      0.24687449438733      0.39301529179395
  C   -0.35368846641123      0.32783872011457     -0.47931064109649
  Br  2.17538478878328      1.59048919015458     -0.21672936603299
  H   -0.08592978879706      0.24861261444915     -1.53445265998792
  H   0.62695074661092      0.54732471895267      1.40876995946731
  C   1.53911434399431     -1.12429603544109      0.36721123587759
  H   0.88048215998068     -1.86642292745169      0.82457052543501
  H   2.47228859706204     -1.10956621641718      0.93072970467062
  H   1.76424726113874     -1.43121379417708     -0.65679768142811
  N   -0.96894747248163      1.69129004915764     -0.34129313296906
  O   -1.20953374718191      2.07398119492786      0.80122331088005
  O   -1.22464882250276      2.30208530344051     -1.37492522394153
  C   -1.42287924559320     -0.68638315286365     -0.09616748817190
  H   -2.34094490911929     -0.48228508477468     -0.65146881045110
  H   -1.09827874508626     -1.69672696444391     -0.34523917695277
  H   -1.64108175096416     -0.62960211001504      0.97186415290735
