16
Coordinates from ORCA-job run
  C   0.77073216302941     -0.71746819361649     -0.33725491425867
  C   -0.63996382346577     -0.15496261938389     -0.54613849078298
  Br  0.62157382727447     -2.62493440817548      0.06945152573329
  H   -1.12228514120223     -0.72450514016737     -1.34323990896178
  H   1.28761679023626     -0.68506088587098     -1.29741656171112
  C   1.57740138240948     -0.01422192951264      0.73710593372755
  H   1.13272700051791     -0.14813204424507      1.72353415933737
  H   2.59152843145189     -0.41451908937338      0.76551860296396
  H   1.63715524598306      1.05658189502483      0.52262954915500
  N   -0.43236986669152      1.21494656326216     -1.15363114613257
  O   -0.04084111214361      1.23104937803645     -2.31917037487859
  O   -0.62154947814582      2.20546506371535     -0.45138785687873
  C   -1.51847868615888     -0.06911243454760      0.68116348178723
  H   -1.67197516204252     -1.07025250471985      1.08530301704673
  H   -1.07984051918887      0.56674308433834      1.44772540749267
  H   -2.49043105186325      0.34938326523563      0.41580757636065
