16
Coordinates from ORCA-job run
  C   0.90666570670408      0.24470381036038      0.35124682164651
  C   -0.36794959030535      0.32071473525625     -0.47366228717587
  Br  2.18657662593461      1.55250664841194     -0.34440369812534
  H   -0.14260431425346      0.21082132598344     -1.53593063436604
  H   0.68957419802213      0.57579913988634      1.36793763364655
  C   1.53623914627090     -1.13648653376483      0.33699467587060
  H   2.49254233479555     -1.12081492240362      0.86024086043359
  H   1.71342011225872     -1.47498177186076     -0.68650172597987
  H   0.88683076348876     -1.85528974082076      0.84225263494187
  N   -0.95925662174772      1.69544599280022     -0.34708983828440
  O   -1.24603307117932      2.28405264178488     -1.38560722550556
  O   -1.15055531182599      2.11049213422532      0.79353751890018
  C   -1.43363667819718     -0.66912775644334     -0.02312377799716
  H   -1.13245299555102     -1.68942744389329     -0.26060900901660
  H   -2.37091562538112     -0.46537953952444     -0.54546506530459
  H   -1.60744467903360     -0.58402871999774      1.05118311631613
