16
Coordinates from ORCA-job run
  C   0.62165369159864     -0.56631195411942      0.50314490718520
  C   -0.55432468298181     -0.06829169130625     -0.34058873442474
  Br  0.60493856599787      0.18877848198554      2.30705417224074
  H   -0.46606670627053     -0.57713379468458     -1.30526494539943
  H   0.44895668230946     -1.63501339287254      0.65510768459884
  C   1.98542096688637     -0.34156723293588     -0.12670627396823
  H   2.75348236362147     -0.84655560446806      0.46018646709413
  H   2.23244245466451      0.71861056394209     -0.17789089216781
  H   1.99533111464236     -0.74295936846093     -1.14386788057396
  N   -0.35813220237533      1.38127971811448     -0.68397752784521
  O   0.32931608054950      1.62134424709254     -1.67718695317667
  O   -0.86733778601833      2.22155222185698      0.05271723037930
  C   -1.92484365399651     -0.29102957109146      0.26120133983988
  H   -2.04533942183995      0.27602303726287      1.18135770036072
  H   -2.70094241531274      0.01641616456328     -0.44235460840373
  H   -2.05555505147500     -1.35414182487866      0.47706831426098
