14

C	-0.206694	0.253922	-1.505402
C	0.0	0.0	0.0
Cl	-0.357749	-1.414157	-2.423341
H	1.094494	0.0	0.0
H	-1.169099	0.715809	-1.737446
N	0.892994	1.009449	-1.913789
H	1.761909	0.679732	-1.459562
H	0.962301	1.142418	-2.910524
C	-0.599133	-1.209507	0.525237
N	-1.116355	-2.126186	1.049241
N	-0.441545	1.197288	0.737007
H	0.381621	1.571624	1.191391
H	-1.115087	0.949412	1.449665
F	2.652361	0.0	0.0
