14

C	-0.549261	-0.047093	-1.417616
C	0.0	0.0	0.0
Cl	0.308532	1.273529	-2.390101
H	1.097449	0.0	0.0
H	-0.240575	-0.96345	-1.91873
N	-1.960511	0.112881	-1.426199
H	-2.166957	0.908934	-0.831661
H	-2.304903	0.282791	-2.361587
C	-0.488455	-1.165604	0.722564
N	-0.88013	-2.107734	1.307721
N	-0.478637	1.249856	0.649206
H	0.321995	1.877556	0.601868
H	-0.630609	1.066222	1.634522
F	2.581213	0.0	0.0
