14

C	-0.476874	0.07097	-1.443139
C	0.0	0.0	0.0
Cl	0.003506	1.620451	-2.191196
H	1.09442	0.0	0.0
H	0.08138	-0.687543	-2.005113
N	-1.924534	-0.043703	-1.55164
H	-2.191232	-0.946407	-1.170072
H	-2.187784	-0.032226	-2.530644
C	-0.439052	-1.295921	0.526817
N	-0.830775	-2.321866	0.95285
N	-0.448315	1.121652	0.809204
H	0.253456	1.280935	1.519342
H	-1.345813	0.954053	1.243811
F	2.567522	0.0	0.0
