14

C	-0.584332	-0.049671	-1.403206
C	0.0	0.0	0.0
Cl	0.371651	1.118347	-2.466279
H	1.098048	0.0	0.0
H	-0.400524	-1.020451	-1.864012
N	-1.972251	0.26128	-1.387118
H	-2.329589	0.369886	-2.327601
H	-2.062092	1.144162	-0.891838
C	-0.480108	-1.155837	0.743025
N	-0.849765	-2.088187	1.358628
N	-0.398168	1.267257	0.653815
H	0.475214	1.7191	0.903792
H	-0.910882	1.090368	1.507334
F	2.560604	0.0	0.0
