14

C	-0.13316	-0.058795	-1.509383
C	0.0	0.0	0.0
Cl	-1.828404	-0.464687	-2.083191
H	1.097438	0.0	0.0
H	0.000256	0.968804	-1.86157
N	0.810312	-1.022601	-1.989889
H	1.682647	-0.835028	-1.466017
H	0.968869	-0.893879	-2.981593
C	-0.478622	-1.214228	0.65513
N	-0.885328	-2.134772	1.26372
N	-0.53142	1.231074	0.563804
H	0.028899	1.472969	1.371369
H	-1.488869	1.101875	0.868236
F	2.631122	0.0	0.0
