14

C	-0.417747	0.033278	-1.467795
C	0.0	0.0	0.0
Cl	0.205704	1.52614	-2.249054
H	1.094522	0.0	0.0
H	0.09765	-0.780177	-1.990422
N	-1.863919	0.043416	-1.616876
H	-2.229018	-0.787907	-1.162934
H	-2.108661	0.000586	-2.599306
C	-0.509348	-1.257448	0.543696
N	-0.9505	-2.280253	0.924125
N	-0.466275	1.127674	0.796099
H	0.280634	1.810807	0.775988
H	-1.291669	1.532342	0.367009
F	2.564004	0.0	0.0
