14
Coordinates from ORCA-job run
  C   0.43541662385964     -0.49787811757666      0.61951088190195
  C   -0.24723703775833      0.82943273801380      0.31944537407118
  F   -0.40351036724849     -1.26877892340739      1.41196969223075
  H   -0.42859876595420      1.31803059046645      1.28061645305731
  H   0.45748360750769      1.46294242636158     -0.23023461266041
  N   0.68219295103612     -1.24377192116892     -0.57672104571715
  H   1.23220269503381     -2.07147966949822     -0.38147066839035
  H   1.16493620624962     -0.67888443942498     -1.26349756475977
  C   1.65959743198598     -0.26767542749087      1.43529770960565
  N   2.65805556132489     -0.07011609515517      2.02183414174016
  C   -1.55299288690434      0.65333323777797     -0.44747888683868
  H   -2.04189540514087      1.62119350141016     -0.57578211326299
  H   -1.38629197633604      0.21574384989461     -1.43116478632845
  H   -2.22935863765546     -0.00209175020237      0.10167542535081
