14
Coordinates from ORCA-job run
  C   0.57166304345002     -0.56681289775647      0.55730484715629
  C   -0.86892887735862     -0.07873918573251      0.57654976204872
  F   0.67671107524819     -1.56879037094266      1.54586819316976
  H   -1.49199673797744     -0.93889523286478      0.30618227989905
  H   -1.10986023312523      0.17337768344810      1.61223399355298
  N   0.94853379047428     -1.04067229526683     -0.72180981447272
  H   1.90079287753139     -1.38366631852383     -0.72751021192685
  H   0.31943362001028     -1.77319650413572     -1.02677079286412
  C   1.50602976481913      0.50310452067020      0.96883037539667
  N   2.22900729016320      1.36399877387793      1.30521719884866
  C   -1.12057055862988      1.10113333145638     -0.35336281996118
  H   -0.51468155579549      1.96301262374050     -0.06566653171864
  H   -0.87660951858587      0.84597091181651     -1.38452965193535
  H   -2.16952398022396      1.40017496021317     -0.30753682719328
