14
Coordinates from ORCA-job run
  C   0.61269063609950     -0.40712438911358      0.53196382098153
  C   -0.35308293487674      0.76982741479410      0.48187653308552
  F   -0.04362596295990     -1.45565817208392      1.21865694113078
  H   0.19681965855261      1.63896789101684      0.11276510775092
  H   -0.65216948138910      0.97666621605727      1.51238684511764
  N   1.04668254771272     -0.80768882608664     -0.75371047173378
  H   1.70046238267026     -1.57848333782452     -0.69752776833349
  H   0.25978627002061     -1.07644381260022     -1.32960580168531
  C   1.79487151630116     -0.07205974259312      1.35379839926785
  N   2.72173073122040      0.21130001102618      2.01522897802462
  C   -1.58139202271555      0.49403761618753     -0.37949186356767
  H   -2.31306234869522      1.29347690796803     -0.25119317897907
  H   -2.05696103787296     -0.44450266586834     -0.08987529726411
  H   -1.33274995406778      0.45568488912040     -1.44227224379543
