14
Coordinates from ORCA-job run
  C   0.51422138585522     -0.46562610755973      0.65814832344570
  C   -0.27686943505576      0.79420040268839      0.30933179854328
  F   -0.28478147635384     -1.19910226713201      1.54937363792469
  H   0.36694398632434      1.44500312288594     -0.28962523966682
  H   -0.49143187643208      1.31333484749268      1.24674601857914
  N   0.86098928640847     -1.27418442002585     -0.45158281147236
  H   1.84540431501847     -1.41468448371636     -0.60218940163120
  H   0.36871185495055     -1.05124046389528     -1.30013151542989
  C   1.73463052416243     -0.10542886309605      1.41131501017800
  N   2.71015810613435      0.21176962481883      1.98166080788438
  C   -1.58273564310055      0.48746731913916     -0.41955952083350
  H   -2.17034971029777     -0.24251623327663      0.13700989385243
  H   -1.42162058416113      0.10272173914294     -1.42960527601876
  H   -2.17427073345270      1.39928578253397     -0.51889172535508
