14
Coordinates from ORCA-job run
  C   0.49432655038693     -0.54562595384788      0.53750546867878
  C   -0.60084804424774     -0.01141382871771     -0.37964374144984
  F   -0.12163582112975     -0.86081917808420      1.75701371576682
  H   -0.13579821811411      0.25591772161850     -1.33330667888767
  H   -1.27520104297829     -0.85640490382088     -0.56322163297898
  N   1.15032916381858     -1.69050617979337      0.02145271830563
  H   0.68699123941550     -2.10311461354383     -0.77211124536630
  H   2.14347940968380     -1.60530426885365     -0.11452398172804
  C   1.48476684456887      0.50904509078785      0.84466773708709
  N   2.27063829066457      1.35739473440919      1.04529144321904
  C   -1.37525309014011      1.16351169179816      0.20221069766117
  H   -0.71388191568209      2.00683258893325      0.41352784963007
  H   -2.13487650358968      1.50343151961106     -0.50436126283582
  H   -1.87203686265648      0.87605557950352      1.12849891289805
