14
Coordinates from ORCA-job run
  C   0.46607535850092     -0.69665760971438      0.62926926286384
  C   -0.91257226468981     -0.05916863902955      0.58670870260681
  F   0.45935253457210     -1.68375397911815      1.60292316677218
  H   -1.14258195098742      0.26342948858917      1.60562906392935
  H   -1.60360731898645     -0.86607205600809      0.32848255343478
  N   0.79055574983062     -1.33512493574731     -0.60961528407185
  H   1.74320818113359     -1.67944776056080     -0.59802113567755
  H   0.68152938269653     -0.69980527772000     -1.38845153159489
  C   1.48552998038003      0.29834919284670      1.06652363715014
  N   2.28917583029647      1.10808325237486      1.34709861276171
  C   -1.03185213254675      1.10942894420536     -0.38570189529031
  H   -0.28295594468570      1.87859876447443     -0.18321621661578
  H   -2.01507330597734      1.57361330656395     -0.29340778542507
  H   -0.92878409953680      0.78952730884383     -1.42522115084337
