14
Coordinates from ORCA-job run
  C   0.53606681205333     -0.45071624698154      0.55505623639147
  C   -0.36912812473231      0.76315328738176      0.39691715629885
  F   -0.12048419745118     -1.40825513589429      1.31513521804896
  H   -0.56910734681541      1.14502941655343      1.40176609127370
  H   0.18920783574013      1.54260193148585     -0.13307731607094
  N   0.83342295983890     -1.05277595453971     -0.70905011776355
  H   1.18305285901956     -0.36551299502743     -1.36422748047240
  H   1.51851215074190     -1.79173391826153     -0.60647700811695
  C   1.75060891365757     -0.08212043262719      1.33386184573780
  N   2.73512112412701      0.23499941604518      1.89055932171955
  C   -1.67308134047538      0.42834992546208     -0.31866536207456
  H   -1.49697305253008      0.09696828313151     -1.34141816917533
  H   -2.19992917781628     -0.36813776315145      0.20723844332466
  H   -2.31928941535777      1.30815018642334     -0.34461885912125
