14
Coordinates from ORCA-job run
  C   0.56515472284947     -0.44627472928958      0.49554227223345
  C   -0.82812560988100     -0.11946816017021     -0.01708891774133
  F   0.62622547080418     -0.15021971328528      1.85056786005087
  H   -0.86787968160878     -0.35978701297589     -1.08502641068154
  H   -1.50139501166765     -0.80491736645770      0.50534090618117
  N   0.84412212852373     -1.84207045998573      0.35692277359613
  H   1.81652890626243     -2.04465495080991      0.55437648017106
  H   0.61720296528891     -2.16855851820783     -0.57293074190232
  C   1.58003267528821      0.42997795819516     -0.15184478512593
  N   2.37901877050066      1.08040490977455     -0.71612413240912
  C   -1.22720781307574      1.33135896419088      0.22074258971344
  H   -2.25629745999911      1.49613603571833     -0.10365750393609
  H   -0.58590356077919      2.01939015582033     -0.33445621658024
  H   -1.16147650250613      1.57868288748287      1.28063582643045
