14
Coordinates from ORCA-job run
  C   0.58420800301112     -0.47702157079161      0.51131596099950
  C   -0.75744860597006     -0.08625065145935     -0.10040794980814
  F   0.44900560340385     -0.32886725888966      1.89751222322734
  H   -0.67425256357958     -0.20596029581058     -1.18475104254412
  H   -1.47729557478506     -0.83028570830084      0.26078976602076
  N   0.98816395907882     -1.80676169865979      0.21748823299792
  H   0.22636806128979     -2.39124581014283     -0.09169770887627
  H   1.79133441045901     -1.88962007714181     -0.38432004728988
  C   1.64587244266377      0.46518936040026      0.09671560823853
  N   2.46901672955008      1.21561128442706     -0.27289873404066
  C   -1.22090101819471      1.31735928980789      0.26504080442367
  H   -1.31654366452869      1.42096818286877      1.34577925595631
  H   -2.19242686894067      1.52645144792346     -0.18712435070100
  H   -0.51610091345767      2.07143350576903     -0.09244201860397
