16

C	0.0	0.0	0.0
C	-0.595719	-0.027942	-1.400701
Cl	1.785731	0.0	0.0
H	0.023857	0.577277	-2.063329
H	-1.583568	0.433494	-1.307198
N	-0.317356	1.375709	0.604406
O	-0.35208	2.322156	-0.175652
O	-0.43904	1.453914	1.820131
C	-0.514795	-1.084161	0.90631
H	-0.091531	-0.98234	1.903494
H	-0.228242	-2.041959	0.472703
H	-1.604747	-0.99877	0.948213
N	-0.677178	-1.406647	-1.88534
H	-0.701831	-1.384493	-2.897246
H	-1.581703	-1.760988	-1.58728
Cl	-3.776366	0.0	0.0
