16

C	0.0	0.0	0.0
C	-0.578143	-0.156296	-1.395314
Cl	1.765203	0.0	0.0
H	-1.666359	-0.090941	-1.261924
H	-0.333021	-1.17973	-1.695303
N	-0.387848	1.362129	0.586384
O	-0.161727	1.532161	1.779671
O	-0.871273	2.199407	-0.168152
C	-0.532566	-1.063663	0.935215
H	-0.238158	-2.044712	0.556961
H	-1.624727	-0.985861	0.951736
H	-0.12691	-0.923942	1.935373
N	-0.020618	0.758429	-2.387969
H	-0.522961	1.632676	-2.318569
H	-0.201637	0.374877	-3.307437
Cl	-3.89576	0.0	0.0
