15

C	-0.654427	-0.000315	-1.359293
C	0.0	0.0	0.0
Cl	-0.134106	-1.42537	-2.287961
H	1.086155	0.0	0.0
H	-1.741428	0.004143	-1.320038
N	-0.262398	1.227463	-2.146229
O	0.761681	1.81559	-1.825929
O	-0.975386	1.468134	-3.119211
N	-0.396081	-1.264899	0.718267
O	-1.609047	-1.514597	0.709001
O	0.466009	-1.923154	1.297268
N	-0.50164	1.047767	0.792067
O	-1.289551	1.868475	0.268458
O	-0.054016	1.119436	1.97042
H	2.378686	0.0	0.0
