15

C	-0.487869	0.015125	-1.42023
C	0.0	0.0	0.0
Cl	0.236717	1.272189	-2.422685
H	1.089705	0.0	0.0
H	-0.249122	-0.942596	-1.875483
N	-1.991077	0.145092	-1.558069
O	-2.521944	-0.545491	-2.421879
O	-2.55342	0.94913	-0.822477
N	-0.42238	-1.225319	0.654981
O	0.126993	-1.48264	1.728594
O	-1.208888	-1.981389	0.053002
N	-0.369034	1.169337	0.815107
O	-1.04028	1.016202	1.833518
O	0.083523	2.238862	0.405873
H	2.381247	0.0	0.0
