15

C	-0.618853	-0.006816	-1.372023
C	0.0	0.0	0.0
Cl	0.161572	-1.238733	-2.391293
H	1.086188	0.0	0.0
H	-1.689441	-0.187864	-1.378072
N	-0.399652	1.30988	-2.073419
O	-1.265259	1.630383	-2.883117
O	0.635898	1.916962	-1.83502
N	-0.369161	-1.193408	0.743551
O	-1.186769	-1.983919	0.229999
O	0.204967	-1.365426	1.826976
N	-0.41905	1.158915	0.76655
O	-1.309	1.88468	0.275911
O	0.158471	1.366721	1.839663
H	2.322097	0.0	0.0
