15

C	-0.447683	0.010022	-1.426459
C	0.0	0.0	0.0
Cl	0.365401	1.245452	-2.37166
H	1.0895	0.0	0.0
H	-0.191241	-0.959732	-1.850825
N	-1.966554	0.10875	-1.574311
O	-2.44761	0.785116	-2.469996
O	-2.588157	-0.598173	-0.788327
N	-0.31643	-1.266733	0.658214
O	-0.026644	-2.269467	-0.005908
O	-0.740741	-1.281072	1.812904
N	-0.44501	1.154613	0.756
O	-1.218854	1.955437	0.201458
O	0.066881	1.314194	1.867684
H	2.344209	0.0	0.0
