17

C	-0.183034	-0.107448	-1.486602
C	0.0	0.0	0.0
Br	-2.077948	-0.450773	-2.080667
H	1.097869	0.0	0.0
H	-0.431859	0.926728	0.374289
N	0.101925	1.264822	-2.112905
O	-0.346953	2.252336	-1.540601
O	0.735682	1.295393	-3.163934
C	0.739374	-1.138289	-2.089268
H	0.730563	-1.112026	-3.176344
H	1.729142	-0.898404	-1.668616
H	0.432793	-2.128541	-1.747142
C	-0.46434	-1.214853	0.787552
H	-1.524382	-1.446629	0.640812
H	0.130582	-2.093261	0.529427
H	-0.298229	-1.027263	1.852016
F	2.683988	0.0	0.0
