17

C	-0.516829	0.015429	-1.422484
C	0.0	0.0	0.0
Br	0.222702	1.530028	-2.41234
H	1.094159	0.0	0.0
H	-0.35423	-0.943321	0.433414
N	-0.041443	-1.279819	-2.091801
O	0.775324	-1.265271	-3.000728
O	-0.568775	-2.294247	-1.630818
C	-2.029172	0.049661	-1.583859
H	-2.466785	-0.769885	-1.011119
H	-2.31532	-0.047444	-2.634303
H	-2.411202	0.998428	-1.208563
C	-0.476804	1.173949	0.843841
H	-0.144723	2.118584	0.408222
H	0.00152	1.093459	1.823151
H	-1.56212	1.218827	0.996999
F	2.648612	0.0	0.0
