17

C	-0.444706	-0.012902	-1.441181
C	0.0	0.0	0.0
Br	0.643969	-1.294204	-2.440012
H	1.093344	0.0	0.0
H	-0.323052	-0.95533	0.435958
N	-1.918037	-0.429017	-1.644474
O	-2.734532	0.280179	-1.037438
O	-2.235666	-1.314859	-2.431073
C	-0.280047	1.3281	-2.132794
H	0.762377	1.629415	-1.986505
H	-0.501977	1.251937	-3.202415
H	-0.948685	2.061435	-1.675455
C	-0.484391	1.167976	0.848767
H	-1.571019	1.256631	0.96524
H	-0.034459	1.036057	1.838215
H	-0.088011	2.11334	0.466792
F	2.605578	0.0	0.0
