17

C	-0.568898	0.018646	-1.402641
C	0.0	0.0	0.0
Br	0.363445	1.367338	-2.479233
H	1.09069	0.0	0.0
H	-0.339839	0.928314	0.477633
N	-0.280994	-1.33855	-2.038119
O	0.857594	-1.59487	-2.396956
O	-1.228861	-2.130659	-2.064808
C	-2.056125	0.304329	-1.504419
H	-2.232889	1.313981	-1.1303
H	-2.405943	0.242241	-2.536553
H	-2.617417	-0.408298	-0.89993
C	-0.443044	-1.2168	0.81003
H	0.016776	-2.122728	0.40724
H	-0.051604	-1.097637	1.823414
H	-1.526525	-1.373669	0.872654
F	2.641464	0.0	0.0
