16

C	-0.454485	0.099666	-1.450058
C	0.0	0.0	0.0
F	-0.22909	1.410291	-1.909284
H	1.096304	0.0	0.0
H	-1.54331	-0.047419	-1.495804
C	0.296141	-0.84263	-2.363333
H	0.061852	-1.881625	-2.12022
H	1.3699	-0.685814	-2.236653
H	0.017917	-0.660744	-3.40438
N	-0.409998	-1.248286	0.625962
H	0.234268	-1.985422	0.374154
H	-1.350954	-1.501969	0.345777
N	-0.614881	1.090777	0.75171
H	-0.255	1.961125	0.375876
H	-0.264761	1.007301	1.699855
Cl	3.582508	0.0	0.0
