16

C	-0.50738	-0.070435	-1.430703
C	0.0	0.0	0.0
F	-0.340773	1.189997	-2.040797
H	1.10139	0.0	0.0
H	-1.58902	-0.253935	-1.419252
C	0.239039	-1.094142	-2.249217
H	1.30629	-0.863767	-2.225107
H	0.086666	-2.081009	-1.8123
H	-0.117031	-1.092734	-3.283076
N	-0.439185	-1.218796	0.673646
H	-1.302195	-0.998099	1.160734
H	0.257991	-1.481071	1.359463
N	-0.556164	1.191212	0.657678
H	-0.411143	1.975937	0.030706
H	0.025031	1.376779	1.471021
Cl	3.563751	0.0	0.0
