16

C	-0.453035	-0.027019	-1.453981
C	0.0	0.0	0.0
F	-0.223961	1.239239	-2.026733
H	1.103289	0.0	0.0
H	-1.542125	-0.175774	-1.488566
C	0.297915	-1.04598	-2.279956
H	0.061218	-2.059968	-1.949073
H	0.02307	-0.953546	-3.333416
H	1.371277	-0.880464	-2.164806
N	-0.412366	-1.186421	0.735007
H	-1.361472	-1.45007	0.490429
H	0.219606	-1.951041	0.535964
N	-0.612715	1.153675	0.652735
H	-0.25491	1.157576	1.601819
H	-0.255053	1.986394	0.197572
Cl	3.588518	0.0	0.0
