16

C	0.0	0.0	0.0
C	-0.519574	-0.243701	-1.481607
Cl	1.787202	0.0	0.0
H	-1.298933	-0.994183	-1.347516
C	-0.441395	1.269507	0.582545
N	-0.581622	2.309034	1.112988
C	-0.419481	-1.119632	0.851081
N	-0.564943	-2.078083	1.514761
C	0.527767	-0.753078	-2.45943
H	1.276424	0.007848	-2.685962
H	1.027792	-1.654624	-2.099854
H	0.006661	-1.013046	-3.388338
N	-1.092337	1.01218	-1.946689
H	-1.372672	0.883524	-2.914292
H	-1.945861	1.044164	-1.370593
F	-2.492754	0.0	0.0
