16

C	0.0	0.0	0.0
C	-0.37724	-0.405794	-1.5331
Cl	1.794789	0.0	0.0
H	0.575612	-0.736187	-1.956252
C	-0.461962	1.314545	0.432788
N	-0.616464	2.431485	0.767073
C	-0.431965	-1.048323	0.921208
N	-0.576218	-1.961068	1.647518
C	-0.861728	0.831026	-2.269584
H	-0.146036	1.655872	-2.208158
H	-1.807904	1.122329	-1.814613
H	-1.014213	0.566408	-3.318211
N	-1.321078	-1.478462	-1.689555
H	-2.113591	-1.16586	-1.101239
H	-0.939869	-2.32704	-1.283545
F	-2.470534	0.0	0.0
