16

C	0.0	0.0	0.0
C	-0.372648	-0.284992	-1.563552
Cl	1.793406	0.0	0.0
H	0.579118	-0.596426	-2.003601
C	-0.463678	1.277682	0.530769
N	-0.59896	2.373919	0.935735
C	-0.437745	-1.118707	0.831295
N	-0.572338	-2.095161	1.472273
C	-0.830687	1.013688	-2.204477
H	-0.975021	0.839443	-3.27327
H	-1.778336	1.286689	-1.740084
H	-0.105572	1.821057	-2.066416
N	-1.328401	-1.329114	-1.811789
H	-2.119355	-1.062101	-1.199324
H	-0.953805	-2.212252	-1.48267
F	-2.463919	0.0	0.0
