12
Coordinates from ORCA-job run
  C   0.64896544381884      0.75976757818102      0.40861285302971
  C   -0.43635386536660     -0.02389289332146     -0.34828424830333
  H   0.64679055187057      0.46032854272536      1.46151162401786
  H   -0.37991833448933      0.24284928163612     -1.40799608593968
  H   0.43878254955208      1.83242335899847      0.37462504481913
  C   1.96808161561257      0.50432986127826     -0.16544275195586
  N   3.02608607144967      0.32675442340832     -0.63958744200505
  C   -1.76338583801839      0.39887425090488      0.14989075782560
  N   -2.82025850156643      0.69011363624953      0.57253010396668
  N   -0.18089908821888     -1.44836870946418     -0.23296127396884
  H   -0.76060888831975     -1.97050848817704     -0.87776545837358
  H   -0.38728171632435     -1.77167084241929      0.70486687688736
