12
Coordinates from ORCA-job run
  C   0.96884194481910      0.07186083621940      0.10517495370197
  C   -0.51150758644537     -0.04725004248770     -0.33545418053577
  H   1.59919884917850     -0.37526216172253     -0.66942239498166
  H   -0.65514887633881      0.57203886717431     -1.22685492975149
  H   1.12021785038060     -0.49640494399583      1.02784685279596
  C   1.37669983919649      1.45928843778761      0.31324931831399
  N   1.68255572615068      2.58313898072969      0.45730627135064
  C   -1.37741311579834      0.49299245074437      0.72263709169353
  N   -2.03937140408922      0.90384571962053      1.60028232081622
  N   -0.94182424241291     -1.39644348488470     -0.65966531179678
  H   -0.79512537471925     -2.02088478554891      0.12446872522204
  H   -0.42712360992147     -1.74791987363626     -1.45756871682865
