12
Coordinates from ORCA-job run
  C   0.58769457966827      0.82307817950195      0.40468478506776
  C   -0.47014910214005     -0.02813220337462     -0.32142017060415
  H   0.47585916703012      1.87925252342101      0.14647643211834
  H   -0.34565437671661      0.11707859653141     -1.40553986193836
  H   0.44726315769285      0.70651831238786      1.48196620587440
  C   1.92540692536831      0.36634172393446      0.03393679712683
  N   2.97321454768942     -0.04455550964658     -0.29848980813740
  C   -1.80254583006468      0.47674772287043      0.03348827647431
  N   -2.86742661650227      0.88762873708821      0.30637560866514
  N   -0.34675877353805     -1.41416330522895      0.11546001818739
  H   0.52581932125237     -1.79812948667437     -0.23138182487289
  H   -1.10272299973968     -1.97066529081084     -0.26555645796137
