12
Coordinates from ORCA-job run
  C   0.67627994952966      0.66849322251224      0.50854924192323
  C   -0.43983751862191      0.04139756783745     -0.34380919848777
  H   0.50084197937122      1.74013028780667      0.63776821794926
  H   -0.38229992559012      0.46151964714866     -1.35244654975464
  H   0.67213066700702      0.21471273508223      1.50460911056375
  C   1.98193482297082      0.46159809680461     -0.11378388784314
  N   3.03004678070491      0.32510938203828     -0.62211742650363
  C   -1.74740601755476      0.42752820671785      0.22976130599352
  N   -2.78756164637337      0.69065265396981      0.70844869438850
  N   -0.23043738203389     -1.39172909174607     -0.44526340116687
  H   -0.43659373887677     -1.84363164765899      0.43808830970190
  H   -0.83609797053281     -1.79378106051276     -1.14980441676412
