12
Coordinates from ORCA-job run
  C   0.61122971794322      0.71622790119812      0.54559249773252
  C   -0.47137276996703      0.04412190655876     -0.31888312674350
  H   0.46745384467577      0.40705705071143      1.58361912505246
  H   -0.34383431153717      0.38360628446891     -1.35832582000788
  H   0.52986458435906      1.80467519806211      0.48721972751747
  C   1.93530685259742      0.29845602714158      0.08980176458770
  N   2.97156944618711     -0.07242188991244     -0.31747656376103
  C   -1.78750044881264      0.51389201301586      0.13212718357039
  N   -2.83693493997477      0.90255137196176      0.48548736845625
  N   -0.38785552462357     -1.40164807908758     -0.14620375468737
  H   0.47289503215973     -1.73906622390769     -0.56393586276273
  H   -1.15982148300712     -1.85645156021083     -0.61902253895429
