19

C	-0.358088	-0.185825	-1.512574
C	0.0	0.0	0.0
Cl	-0.241529	1.463394	-2.274154
H	1.092369	0.0	0.0
C	0.718732	-1.040134	-2.168997
H	1.690271	-0.692323	-1.797961
H	0.596652	-2.078127	-1.850789
H	0.645932	-0.983865	-3.25872
C	-1.77153	-0.679369	-1.77408
H	-1.882974	-1.6971	-1.391446
H	-1.97317	-0.690045	-2.847975
H	-2.51703	-0.044624	-1.286818
N	-0.528875	-1.232562	0.675196
O	-1.580992	-1.144085	1.312797
O	0.078473	-2.290674	0.505134
N	-0.492392	1.142755	0.696166
H	-1.389564	1.464716	0.358553
H	0.194686	1.874775	0.586934
F	2.633758	0.0	0.0
