19

C	-0.176761	0.077978	-1.522798
C	0.0	0.0	0.0
Cl	-1.937484	0.214284	-1.998373
H	1.094657	0.0	0.0
C	0.550751	1.338636	-1.968154
H	0.070702	2.237786	-1.579493
H	0.575568	1.399853	-3.058336
H	1.564055	1.247875	-1.557966
C	0.445472	-1.122556	-2.212078
H	0.473369	-0.958583	-3.292486
H	1.459623	-1.197397	-1.807349
H	-0.092899	-2.046687	-2.006121
N	-0.574967	-1.275115	0.524707
O	-1.685643	-1.233291	1.057542
O	0.076949	-2.309566	0.370576
N	-0.498314	1.090488	0.774058
H	-1.354248	1.48019	0.401863
H	0.22343	1.793396	0.839917
F	2.641526	0.0	0.0
