19

C	-0.38752	-0.128336	-1.505208
C	0.0	0.0	0.0
Cl	-0.198679	1.533499	-2.229046
H	1.101146	0.0	0.0
C	0.628938	-1.013929	-2.210851
H	1.622305	-0.721781	-1.85104
H	0.538729	-0.914172	-3.296333
H	0.462129	-2.056489	-1.931526
C	-1.830332	-0.53781	-1.746136
H	-1.991767	-1.553139	-1.377124
H	-2.058544	-0.515948	-2.813276
H	-2.525911	0.128762	-1.231806
N	-0.531746	-1.249408	0.648879
O	0.037875	-2.312057	0.395555
O	-1.538786	-1.169337	1.355182
N	-0.468278	1.132585	0.73026
H	0.284789	1.806205	0.743019
H	-1.295796	1.560864	0.34049
F	2.619153	0.0	0.0
