19

C	-0.245249	-0.171776	-1.496048
C	0.0	0.0	0.0
Cl	-2.03984	-0.214586	-1.867611
H	1.101485	0.0	0.0
C	0.371156	1.049585	-2.161567
H	-0.135673	1.95992	-1.849384
H	0.331129	0.949621	-3.249534
H	1.408852	1.077816	-1.812352
C	0.412444	-1.42585	-2.04597
H	-0.075647	-2.337166	-1.70789
H	0.398317	-1.396527	-3.13876
H	1.440754	-1.407577	-1.671642
N	-0.493874	-1.193722	0.784536
O	-1.425697	-1.023864	1.58047
O	0.066926	-2.276089	0.620715
N	-0.519017	1.223242	0.517196
H	0.007718	1.463005	1.347671
H	-1.492527	1.112043	0.774762
F	2.616136	0.0	0.0
