19

C	-0.237735	-0.045199	-1.50695
C	0.0	0.0	0.0
Cl	-2.030093	-0.047231	-1.890183
H	1.091925	0.0	0.0
C	0.389823	1.224217	-2.063827
H	-0.113682	2.108574	-1.679577
H	0.357729	1.21564	-3.156213
H	1.424895	1.215696	-1.705441
C	0.416909	-1.252799	-2.155063
H	0.406232	-1.134551	-3.2415
H	-0.075965	-2.186675	-1.894266
H	1.444206	-1.269045	-1.777358
N	-0.499061	-1.256046	0.676924
O	0.065962	-2.319873	0.429594
O	-1.442557	-1.154076	1.469731
N	-0.522273	1.174924	0.613444
H	-1.500777	1.047981	0.841222
H	-0.010016	1.343092	1.469466
F	2.61964	0.0	0.0
