19

C	-0.463999	0.117515	-1.463431
C	0.0	0.0	0.0
Cl	-0.17881	-1.449993	-2.322462
H	1.095788	0.0	0.0
C	-1.936678	0.452412	-1.626692
H	-2.179128	0.568142	-2.686173
H	-2.563989	-0.334944	-1.20876
H	-2.147758	1.389249	-1.109525
C	0.468246	1.148996	-2.092776
H	0.350463	1.171154	-3.179525
H	1.494246	0.893972	-1.804042
H	0.226226	2.131426	-1.678638
N	-0.559525	-1.242438	0.642237
O	-1.696851	-1.164133	1.138524
O	0.1155	-2.265266	0.639957
N	-0.413781	1.179143	0.72159
H	-1.300317	1.026445	1.190023
H	0.310685	1.381638	1.399739
F	2.625219	0.0	0.0
