19

C	-0.412591	-0.100186	-1.489596
C	0.0	0.0	0.0
Cl	-0.044369	1.518726	-2.213043
H	1.094389	0.0	0.0
C	0.487025	-1.095238	-2.213128
H	0.407867	-0.956052	-3.294318
H	0.202454	-2.11887	-1.965518
H	1.509624	-0.920212	-1.865448
C	-1.897718	-0.342544	-1.690401
H	-2.176782	-1.321708	-1.288813
H	-2.479851	0.428316	-1.180498
H	-2.14917	-0.319834	-2.753829
N	-0.446773	-1.29279	0.658943
O	0.143591	-2.332162	0.372612
O	-1.39872	-1.253887	1.451693
N	-0.547818	1.127549	0.684326
H	0.142512	1.445652	1.351934
H	-1.393202	0.871075	1.177691
F	2.6062	0.0	0.0
