19

C	-0.372296	0.042866	-1.498895
C	0.0	0.0	0.0
Cl	-0.054795	-1.596259	-2.206223
H	1.101198	0.0	0.0
C	-1.817692	0.375406	-1.831766
H	-2.501503	-0.343884	-1.381656
H	-2.071716	1.375587	-1.467324
H	-1.955308	0.372651	-2.916312
C	0.625142	1.002797	-2.141058
H	1.621851	0.756932	-1.754347
H	0.583762	0.932512	-3.231168
H	0.375911	2.028338	-1.849508
N	-0.637894	-1.180735	0.661951
O	-1.853412	-1.102995	0.879705
O	0.053584	-2.152064	0.953028
N	-0.378087	1.170547	0.744717
H	-1.208053	1.642809	0.419506
H	0.418026	1.790113	0.782673
F	2.639403	0.0	0.0
