16
Coordinates from ORCA-job run
  C   0.46535953615696      0.15670937777349     -0.39007236090986
  C   -0.99829429253439      0.09816351901520     -0.00244105705601
  F   0.68425251203601     -0.65917072817870     -1.46553909147267
  H   -1.55860991261237      0.47156664305528     -0.86539930183091
  H   -1.15977438609701      0.79230160858738      0.82495358077431
  N   1.26742474796110     -0.42770780270032      0.76698887533329
  O   1.19965464788665      0.20854380633090      1.81547334269549
  O   1.88512859906803     -1.46719001979248      0.58405596707516
  C   1.00762578785233      1.53122000797967     -0.69361639154466
  H   0.45049708088752      1.95215936216760     -1.53212933780776
  H   0.90971284036953      2.18159638501184      0.17390674694740
  H   2.05985370257972      1.45626547056051     -0.97494734429838
  C   -1.46062265423547     -1.30735789989558      0.36739801725102
  H   -0.98778360984414     -1.65147184331745      1.28963336298654
  H   -1.22411950867538     -2.01795884488412     -0.42542081650452
  H   -2.54030509079910     -1.31866904171323      0.52615580836157
