16
Coordinates from ORCA-job run
  C   0.58486629398628     -0.06125038316678     -0.28851606570535
  C   -0.51653196212472     -0.73646467821839      0.50614002297367
  F   0.61554438657539     -0.58550576401248     -1.55129443194838
  H   -0.44588406016188     -0.40062911314887      1.54264634627684
  H   -0.30327287985139     -1.81059426244034      0.49228438136762
  N   1.90847086909006     -0.43985744728020      0.36973311781903
  O   2.07041401986337      0.00487467337374      1.50315851718369
  O   2.68825896212386     -1.14609162335207     -0.25390833294452
  C   0.53066895014136      1.44386410629632     -0.38161453563980
  H   -0.35500731835151      1.73798570672732     -0.94475489221484
  H   1.41249849321808      1.80694790471745     -0.91296266049877
  H   0.50063915038852      1.88964372601090      0.61136125710096
  C   -1.90414425376776     -0.47117872063803     -0.06792444109573
  H   -2.19390114415454      0.57578669211311      0.03795838995005
  H   -1.94612180219259     -0.73846072328071     -1.12484110425987
  H   -2.64649770478253     -1.07207009370096      0.46053443163540
