16
Coordinates from ORCA-job run
  C   0.46466087047940      0.16735886806988     -0.38629503207672
  C   -1.00041583651867      0.08100221371115     -0.00896498939274
  F   0.70468657995537     -0.63703790109007     -1.46578396751237
  H   -1.18013228764924      0.76794392980218      0.82059216612010
  H   -1.56121750736768      0.44858108953242     -0.87414264336544
  N   1.26850209074780     -0.41114033763485      0.77206777231669
  O   1.18093387215628      0.21592561841447      1.82464461477693
  O   1.90602169412247     -1.43813857138851      0.58696791048792
  C   0.98554245938196      1.55296792562021     -0.67671361356260
  H   0.43016059958604      1.96814640099442     -1.51926850038268
  H   0.86659716233214      2.19695121042007      0.19295355460512
  H   2.04193253634302      1.49846153242119     -0.94699703031890
  C   -1.43931149400762     -1.33472830332587      0.35074198801485
  H   -1.17349270029223     -2.03873021561473     -0.43871270496995
  H   -0.97532471330013     -1.66964106272895      1.28083235534934
  H   -2.52114332596889     -1.36992239720299      0.49007811991045
