16
Coordinates from ORCA-job run
  C   0.66208204245788      0.06839332110350     -0.49409222282072
  C   -0.64049446787842     -0.69910883394106     -0.60815707781923
  F   1.43770035161486     -0.23770113182812     -1.58499669562625
  H   -1.16227801504358     -0.29983376749085     -1.48333992142352
  H   -0.36874484306441     -1.73373282902505     -0.83573581855889
  N   1.40544971424448     -0.50386123661009      0.70926459538520
  O   1.36185686440581      0.13952466236256      1.75544922489987
  O   1.93278429177866     -1.59883472222737      0.55449973959924
  C   0.56044107219651      1.56585029000507     -0.38083267675526
  H   0.08692993870121      1.94184331227176     -1.28961587885641
  H   1.55844337963081      1.99781660424294     -0.29905154603373
  H   -0.02129061360775      1.86771758952342      0.48632404243416
  C   -1.52611237988200     -0.63403108569632      0.63139263488122
  H   -1.79216310120401      0.39204467842732      0.89079583248708
  H   -1.04052111785664     -1.08618432112544      1.49778837768032
  H   -2.45308311649340     -1.18090252999227      0.45030739052692
