10
Coordinates from ORCA-job run
  C   -0.55028033225244     -0.46377623747971      0.21118629045983
  C   0.53232284450710      0.52289774386070     -0.24523581136520
  Cl  -0.04621421882862     -1.30104025657862      1.70094434575605
  H   0.15832722479588      1.09597652961603     -1.09934636917256
  H   -0.70212098084972     -1.23467049048148     -0.54736181345290
  H   0.74868891242014      1.22432036451235      0.56417080678674
  C   -1.80946248852070      0.24277821629784      0.43023191524282
  N   -2.81308035922140      0.83327724644492      0.58170914359967
  C   1.75500821415572     -0.17445538648490     -0.63504569338255
  N   2.72581118379404     -0.74630772970712     -0.96125281447190
