10
Coordinates from ORCA-job run
  C   -0.69158212560100     -0.28499873252041      0.07910558093797
  C   0.69368148036947      0.35501711054978     -0.07970184093112
  Cl  -0.55267521133120     -1.90847250493965      0.80006573845300
  H   0.57482146185237      1.38468235833043     -0.43083855304211
  H   -1.16255187388545     -0.41316509697879     -0.89779341137190
  H   1.19301812109225      0.38423577762642      0.89188313897434
  C   -1.53937938020557      0.56536521307181      0.91032325627265
  N   -2.20191190262690      1.27784620216133      1.56757275825899
  C   1.51673837998286     -0.38524313451280     -1.03259823518957
  N   2.16984105035317     -0.97526719278812     -1.80801843236226
