10
Coordinates from ORCA-job run
  C   -0.54743652190419     -0.48641894807138      0.17110445703594
  C   0.52696099547434      0.54169687547842     -0.20740017367082
  Cl  -0.09348435741069     -1.34626002893168      1.66387115496345
  H   0.67940054544121      1.23069589515238      0.62689915984075
  H   -0.63961078941260     -1.24157052237039     -0.61234828873862
  H   0.17983637009597      1.12226372516096     -1.06772188421225
  C   -1.83440788798999      0.18194148431963      0.34432750443176
  N   -2.85441483795064      0.75141733412575      0.46264197847812
  C   1.78910434882652     -0.10995052918779     -0.54719853103564
  N   2.79305213483008     -0.64381528567590     -0.83517537709270
