10
Coordinates from ORCA-job run
  C   -0.65312461784428     -0.56803680057259      0.17193431813258
  C   0.59982292672590     -0.24063218122206     -0.64761708160577
  Cl  -0.20640029335294     -1.35140536640212      1.70799109736873
  H   0.29270563614959      0.16369134878939     -1.61752526738311
  H   -1.25836422064785     -1.28808163228174     -0.38320560547566
  H   1.15567058904331     -1.16504426126098     -0.82419310903097
  C   -1.45444813843674      0.62663083427089      0.42177561766539
  N   -2.09911129544171      1.59494144921564      0.58214344100099
  C   1.46450284444049      0.72502016514867      0.02560376714353
  N   2.15874656936424      1.50291644431489      0.56309282218430
