11

C	0.0	0.0	0.0
C	-0.561395	-0.312321	-1.348319
F	1.356858	0.0	0.0
H	-0.245091	-1.319323	-1.6303
H	-0.365481	-0.64677	0.795309
H	-1.652327	-0.271085	-1.283187
H	-0.188524	0.407746	-2.075828
N	-0.349359	1.403161	0.445374
O	-0.63557	1.550361	1.628488
O	-0.199647	2.301955	-0.378976
Cl	-3.74124	0.0	0.0
