18

C	0.0	0.0	0.0
C	-0.531458	-0.061181	-1.438546
F	1.3875	0.0	0.0
H	-1.551324	-0.458608	-1.376538
C	-0.48123	1.225497	0.75051
H	-0.118911	1.168461	1.778858
H	-0.076842	2.123386	0.281131
H	-1.573802	1.239169	0.743808
C	-0.37204	-1.218741	0.753913
N	-0.564985	-2.188476	1.387084
N	0.298608	-1.079372	-2.170996
O	1.092724	-0.684411	-3.023453
O	0.140868	-2.255795	-1.852884
C	-0.520486	1.263625	-2.166698
H	-1.294409	1.896677	-1.731806
H	0.453899	1.751951	-2.10958
H	-0.764788	1.106101	-3.21727
Br	-3.782507	0.0	0.0
