18

C	0.0	0.0	0.0
C	-0.530184	-0.058501	-1.435183
F	1.387853	0.0	0.0
H	-1.584284	-0.355957	-1.364321
C	-0.483852	1.227239	0.74598
H	-1.576578	1.24682	0.730785
H	-0.128275	1.172793	1.776706
H	-0.070992	2.121796	0.276959
C	-0.371642	-1.217998	0.755598
N	-0.526789	-2.159029	1.440523
N	0.197087	-1.171821	-2.13417
O	-0.180515	-2.318223	-1.895995
O	1.132927	-0.876938	-2.879104
C	-0.373144	1.23724	-2.199851
H	-0.591172	1.071036	-3.2555
H	-1.096569	1.956767	-1.815355
H	0.639607	1.633804	-2.117713
Br	-3.794485	0.0	0.0
