18

C	0.0	0.0	0.0
C	-0.348819	-0.050575	-1.507902
F	1.390224	0.0	0.0
H	0.02687	-1.002212	-1.887337
C	-0.577141	1.15178	0.785345
H	-1.668578	1.060356	0.795276
H	-0.206215	1.105932	1.811652
H	-0.287859	2.095481	0.326898
C	-0.412254	-1.289187	0.587617
N	-0.677716	-2.334516	1.052203
N	0.517006	0.95703	-2.216881
O	0.348946	2.1463	-1.955577
O	1.322235	0.524441	-3.040335
C	-1.790644	0.175885	-1.884016
H	-1.901581	0.051311	-2.96478
H	-2.459628	-0.521282	-1.375948
H	-2.12933	1.171345	-1.602011
Br	-4.646286	0.0	0.0
