18

C	0.0	0.0	0.0
C	-0.274995	-0.401093	-1.476906
F	1.390248	0.0	0.0
H	0.254676	-1.345478	-1.617575
C	-0.591047	1.286231	0.513997
H	-1.683759	1.200861	0.478165
H	-0.262466	2.125226	-0.095695
H	-0.280177	1.431866	1.550486
C	-0.414336	-1.135499	0.846336
N	-0.669586	-2.05408	1.531446
N	0.491581	0.543197	-2.363877
O	0.168473	1.729707	-2.357837
O	1.363883	0.053943	-3.082032
C	-1.689071	-0.48931	-1.994942
H	-2.254773	0.423812	-1.834464
H	-1.644322	-0.719395	-3.065632
H	-2.240788	-1.279186	-1.487929
Br	-4.354253	0.0	0.0
