17

C	-0.482979	0.001234	-1.452298
C	0.0	0.0	0.0
Br	0.192048	1.688418	-2.347833
H	1.087287	0.0	0.0
N	0.134769	-1.144054	-2.027306
H	1.144737	-1.110548	-1.888087
H	-0.069443	-1.20331	-3.017223
N	-1.906307	0.093604	-1.573591
H	-2.171345	0.224474	-2.540745
H	-2.310683	-0.754835	-1.195595
N	-0.427185	-1.255598	0.717081
O	-1.477499	-1.812296	0.404304
O	0.320264	-1.615344	1.621607
N	-0.537124	1.126674	0.821895
O	-1.498382	0.88903	1.551141
O	0.025532	2.206464	0.701777
Cl	3.228531	0.0	0.0
