17

C	-0.475494	-0.023112	-1.486013
C	0.0	0.0	0.0
Br	0.108307	1.70678	-2.289598
H	1.104905	0.0	0.0
N	0.129179	-1.102697	-2.215411
H	-0.184336	-1.048737	-3.184968
H	1.146761	-1.001723	-2.20461
N	-1.912986	-0.094088	-1.665257
H	-2.240092	-0.918098	-1.156486
H	-2.347978	0.722407	-1.2378
N	-0.347496	-1.203019	0.785524
O	-0.201913	-1.0679	2.068137
O	-0.015846	-2.327112	0.234473
N	-0.47202	1.174926	0.771348
O	-1.719063	1.161101	1.106391
O	0.393612	1.657694	1.612488
Cl	2.626493	0.0	0.0
