17

C	-0.574211	-0.013227	-1.425098
C	0.0	0.0	0.0
Br	0.375604	-1.385735	-2.456228
H	1.086344	0.0	0.0
N	-1.961088	-0.418712	-1.402195
H	-2.319794	-0.429824	-2.349818
H	-2.478375	0.261785	-0.854161
N	-0.217067	1.253976	-2.035128
H	-0.929736	1.940247	-1.825138
H	-0.09034	1.156839	-3.032029
N	-0.507974	-1.159584	0.805547
O	0.051405	-2.230465	0.615616
O	-1.457246	-0.958547	1.563277
N	-0.452571	1.214302	0.757965
O	0.18177	1.475972	1.770299
O	-1.435841	1.844771	0.353399
Cl	3.22745	0.0	0.0
