17

C	-0.580488	0.020576	-1.428362
C	0.0	0.0	0.0
Br	-0.269125	1.8206	-2.188119
H	1.08898	0.0	0.0
N	0.197465	-0.870977	-2.237076
H	-0.192151	-0.933666	-3.168434
H	0.23159	-1.788222	-1.809628
N	-2.023922	-0.117639	-1.403411
H	-2.235084	-1.065699	-1.11382
H	-2.384258	0.031047	-2.338526
N	-0.365396	-1.254404	0.748351
O	-0.146608	-1.246448	1.95148
O	-0.786742	-2.223742	0.110696
N	-0.535201	1.122234	0.835264
O	0.175542	2.111143	0.946854
O	-1.652998	0.973536	1.322556
Cl	3.184027	0.0	0.0
