18
Coordinates from ORCA-job run
  C   0.83436276050689      0.19026200755184     -0.11353952320890
  C   -0.64538058079251      0.57631034615157     -0.18629612272191
  Br  1.70915411466936      1.05993649469567     -1.63468850246642
  H   -0.72260702513605      1.65322780453919     -0.32785196769708
  N   1.44436841009562      0.87172732756416      1.11470432631224
  O   2.37717677999328      0.30448493917791      1.66558924498240
  O   0.96558139048139      1.95566622216050      1.42722274960072
  C   1.16993740984750     -1.28110014242669     -0.13274920178162
  H   0.71743780631249     -1.77338966720608      0.72700339706878
  H   2.24881428176158     -1.41454743423826     -0.09038664497996
  H   0.80008944583073     -1.72763834183173     -1.05579862058031
  N   -1.33276437993938      0.33900238553758      1.13657658751153
  O   -2.40738369806936      0.90975928180329      1.27851440631331
  O   -0.80712782859991     -0.41904705966240      1.94848731996882
  C   -1.43650899572288     -0.17655358185524     -1.24435146480605
  H   -0.96367032279333     -0.06917146535112     -2.22063736521718
  H   -2.44287735550620      0.23903203180896     -1.29710518881193
  H   -1.50960221293922     -1.23696114841914     -0.99669342948645
