18
Coordinates from ORCA-job run
  C   0.82733278277103      0.31939365676963     -0.00789811621703
  C   -0.66289483284960      0.39660020126341     -0.37060772522253
  Br  1.59104716608158      2.09271649763422     -0.19495248877827
  H   -0.70476048183017      0.79123709258196     -1.38765167106119
  N   1.02729854062843     -0.17584668097333      1.43133715053828
  O   1.49484123126257      0.56495670923530      2.27809441217375
  O   0.69708671337975     -1.34862057508592      1.59107456574425
  C   1.57688747845480     -0.63691615698050     -0.92120691326525
  H   1.45990899644378     -0.32130746751692     -1.95893601407482
  H   1.20031399841689     -1.65115233568000     -0.79665512305262
  H   2.63937908177150     -0.62335788683121     -0.67379132149407
  N   -1.35074880050730      1.43674968319896      0.46438597673334
  O   -1.95268170153864      2.32584491265649     -0.12990406377572
  O   -1.28909838441644      1.28566901745304      1.68194712939641
  C   -1.47956358040214     -0.88258345731730     -0.26201323289732
  H   -2.48852374725768     -0.67160795175990     -0.62457458906458
  H   -1.05425221167858     -1.67058338508567     -0.88296635199834
  H   -1.53257224872979     -1.23219187356225      0.76631837631574
