18
Coordinates from ORCA-job run
  C   0.82275601380633      0.33098416609380      0.00661897130378
  C   -0.66076541330905      0.38568156544431     -0.38607635330292
  Br  1.56545997389710      2.11381367312256     -0.17601457346717
  H   -0.68779081004342      0.77493947377861     -1.40569406488316
  N   1.00137516329511     -0.15337960699595      1.45255422828434
  O   0.68184091142333     -1.32912299062176      1.61267863651960
  O   1.44500993688105      0.59734476491559      2.30339844284220
  C   1.60371913902094     -0.62011442935278     -0.88547991390149
  H   2.66039966556735     -0.59150759016595     -0.61534892022580
  H   1.23781533225594     -1.63861133559857     -0.76389978238617
  H   1.50517433865948     -0.31088074996474     -1.92703834852995
  N   -1.37938862312061      1.41999937916970      0.42995681225051
  O   -1.98233826140992      2.29731499883984     -0.18069997429794
  O   -1.33972206039888      1.27547037047748      1.64923117318452
  C   -1.46208261872107     -0.90402887889413     -0.28759845838712
  H   -1.52952092169417     -1.25079540423598      0.74081800287473
  H   -2.46690016826891     -0.70777603068689     -0.66949189835952
  H   -1.01504159784060     -1.68833137532514     -0.89791397951844
