15

C	0.0	0.0	0.0
C	-0.216849	-0.31814	-1.528813
Br	2.012072	0.0	0.0
H	0.516506	0.306662	-2.046879
H	-0.240841	-0.871427	0.616234
N	-0.631421	1.211408	0.344536
H	-1.667862	0.887378	0.2293
H	-0.490912	1.369036	1.337981
C	-1.562371	-0.040419	-2.206291
H	-1.42698	-0.22605	-3.279941
H	-1.83076	1.003652	-2.055223
H	-2.362133	-0.625165	-1.76663
C	0.172499	-1.709214	-1.782772
N	0.452558	-2.824707	-2.023349
F	-2.874443	0.0	0.0
