15

C	0.0	0.0	0.0
C	-0.533353	0.030344	-1.43114
Br	1.952861	0.0	0.0
H	-1.630696	0.083309	-1.218621
H	-0.262176	-0.980993	0.410105
N	-0.537865	1.110138	0.721639
H	-1.5653	0.912219	0.610992
H	-0.296736	1.007125	1.702329
C	-0.222168	-1.234157	-2.225639
H	0.852736	-1.378235	-2.360457
H	-0.693617	-1.187573	-3.210681
H	-0.634475	-2.09602	-1.694709
C	-0.100006	1.222708	-2.15041
N	0.221927	2.141235	-2.809796
F	-2.818605	0.0	0.0
