15

C	0.0	0.0	0.0
C	-0.434313	0.402364	-1.424617
Br	2.029766	0.0	0.0
H	0.271313	-0.036569	-2.133713
H	-0.313406	-1.00872	0.244452
N	-0.354144	0.952895	1.006389
H	0.437395	1.486026	1.319958
H	-0.836145	0.494636	1.750857
C	-0.430309	1.924352	-1.597878
H	-1.158492	2.304071	-0.904039
H	-0.706894	2.173315	-2.624734
H	0.565496	2.340087	-1.37077
C	-1.770114	-0.116845	-1.834657
N	-2.436371	-0.453943	-2.754064
F	-2.498988	0.0	0.0
