15

C	0.0	0.0	0.0
C	-0.522903	-0.088425	-1.443402
Br	1.960006	0.0	0.0
H	-1.6214	-0.053889	-1.213013
H	-0.294214	-0.927435	0.492172
N	-0.526275	1.089038	0.761362
H	-0.351497	1.951306	0.251526
H	-1.551447	0.872165	0.687075
C	-0.163665	-1.37929	-2.171229
H	0.911852	-1.465819	-2.344202
H	-0.492522	-2.22867	-1.566174
H	-0.679163	-1.432706	-3.133552
C	-0.147214	1.08727	-2.215905
N	0.149675	2.031631	-2.851245
F	-2.801347	0.0	0.0
