15

C	0.0	0.0	0.0
C	-0.222817	-0.049994	-1.586681
Br	1.967457	0.0	0.0
H	0.5879	0.541291	-2.023844
H	-0.315852	-0.946191	0.435591
N	-0.624428	1.054878	0.693295
H	-0.468646	1.927932	0.198219
H	-1.652691	0.773122	0.57966
C	-1.527689	0.501541	-2.169067
H	-1.505867	0.357604	-3.254921
H	-1.575195	1.574632	-1.966593
H	-2.388537	0.05194	-1.67009
C	0.002774	-1.422759	-2.0435
N	0.169947	-2.523902	-2.419317
F	-2.912737	0.0	0.0
