15

C	0.0	0.0	0.0
C	-0.224043	-0.19709	-1.568331
Br	1.949443	0.0	0.0
H	0.475826	0.502342	-2.041325
H	-0.313004	-0.903259	0.522219
N	-0.6408	1.110783	0.583749
H	-0.492162	1.929812	0.000172
H	-1.671303	0.801507	0.494275
C	-1.59649	0.071949	-2.189112
H	-2.35965	-0.576187	-1.774745
H	-1.484778	-0.023015	-3.275451
H	-1.918914	1.081096	-1.941837
C	0.218924	-1.541062	-1.952197
N	0.522093	-2.631469	-2.269597
F	-2.915342	0.0	0.0
