15

C	0.0	0.0	0.0
C	-0.429811	0.061521	-1.520187
Br	1.960019	0.0	0.0
H	0.464845	-0.033323	-2.144271
H	-0.264759	-0.982995	0.384799
N	-0.538062	0.963214	0.893328
H	-0.381343	1.893234	0.518447
H	-1.567373	0.724534	0.782573
C	-1.151699	1.357778	-1.885841
H	-0.505741	2.222805	-1.703382
H	-1.408821	1.348149	-2.949422
H	-2.057328	1.379285	-1.27951
C	-1.248993	-1.105005	-1.863553
N	-1.760417	-2.079575	-2.2758
F	-2.738194	0.0	0.0
