15

C	0.0	0.0	0.0
C	-0.420512	0.04612	-1.502665
Br	2.036821	0.0	0.0
H	0.487814	-0.042931	-2.106128
H	-0.178227	-1.002806	0.396006
N	-0.546746	1.058935	0.755119
H	-0.338194	0.884001	1.733721
H	-1.586198	0.823414	0.59223
C	-1.138413	1.332275	-1.918088
H	-0.53193	2.196553	-1.642326
H	-2.095005	1.348649	-1.400421
H	-1.288232	1.326795	-3.002089
C	-1.20705	-1.142479	-1.848298
N	-1.694002	-2.129566	-2.25833
F	-2.729088	0.0	0.0
