15

C	0.0	0.0	0.0
C	-0.249382	0.028989	-1.552448
F	1.379732	0.0	0.0
H	-0.004581	1.04256	-1.876095
H	-0.361286	0.91486	0.45685
C	-0.573502	-1.154553	0.695004
N	-0.578285	-2.154057	1.333478
C	-1.506609	-0.469436	-2.242507
H	-1.797979	-1.436542	-1.838345
H	-2.327872	0.213455	-2.06529
H	-1.288746	-0.555969	-3.318182
N	0.859884	-0.796078	-2.172897
O	0.860506	-2.000751	-1.93987
O	1.659881	-0.223087	-2.913873
H	-2.295928	0.0	0.0
