15

C	0.0	0.0	0.0
C	-0.221549	-0.025979	-1.552468
F	1.379703	0.0	0.0
H	0.167777	0.932066	-1.904968
H	-0.36719	0.934733	0.413022
C	-0.56186	-1.119084	0.756296
N	-0.557972	-2.07296	1.460676
C	-1.519515	-0.358612	-2.260762
H	-1.302502	-0.430619	-3.338613
H	-1.927919	-1.294159	-1.886793
H	-2.258059	0.409663	-2.062218
N	0.781807	-1.012145	-2.107962
O	1.630864	-0.588317	-2.894129
O	0.652334	-2.188854	-1.783158
H	-2.324815	0.0	0.0
