19
Coordinates from ORCA-job run
  C   -0.48162977749348     -0.03103513509257     -0.63955852005721
  C   0.93745023737422      0.09023405376529     -0.05555871557289
  Br  -0.35105085857173      0.52818659333333     -2.54999743069496
  H   1.58327168963521     -0.53491889785103     -0.69454379219616
  C   -0.96697570146692     -1.47238341982639     -0.65850832187550
  H   -1.17634837102835     -1.80658404339973      0.36130046140129
  H   -0.22152496997078     -2.13700659979842     -1.10194947095252
  H   -1.88913590654978     -1.55726556671037     -1.23583603740067
  C   -1.48885893325375      0.89102552370905      0.02630187167869
  H   -2.45443529972128      0.82756764073261     -0.47933333659970
  H   -1.14014219536598      1.92197372393081      0.01796724597103
  H   -1.62915421846388      0.58308023368164      1.06698890909697
  C   1.02302917217352     -0.44979787707336      1.37011446886936
  H   0.76989766534767     -1.50882266932000      1.42753628092120
  H   2.05009938377832     -0.34341604965199      1.73200313228498
  H   0.37735530110969      0.11776804457333      2.04234723281729
  N   1.35450079426563      1.48963840917991     -0.03174142822161
  H   1.42639175824205      1.83805174995319     -0.98110849706390
  H   2.27626022995961      1.55470428586470      0.38457594759428
