19
Coordinates from ORCA-job run
  C   -0.65687534145868      0.03200940067451     -0.10997209339090
  C   0.86877791813170      0.14713019169093      0.13716017816575
  Br  -1.62266909648881      0.58264119731617      1.53074493289445
  H   1.31128243551280     -0.12807674079321     -0.83226536394430
  C   -1.10829934050348      0.97281451806084     -1.21880543544289
  H   -2.18052891529374      0.87247915846473     -1.39639395772960
  H   -0.90814945350657      2.01647965740658     -0.97580339825530
  H   -0.57968865426532      0.71772870755113     -2.14453892095774
  C   -1.07909638855729     -1.39592645970966     -0.42655160839172
  H   -2.13662100256041     -1.43224671614387     -0.69606782419146
  H   -0.92313195745562     -2.06611006623280      0.41770094041356
  H   -0.49431556385939     -1.76352961087512     -1.27772341433455
  C   1.40440986004957     -0.82207125250764      1.18393061369478
  H   2.48005164261437     -0.66631785096399      1.27366568033227
  H   0.94879882919453     -0.63149591321640      2.15871240055100
  H   1.22630525794157     -1.86459307562351      0.91772339537470
  N   1.36707852027868      1.47872344434401      0.45077203004789
  H   0.92560557656862      1.81656331052830      1.29897630012999
  H   1.15806567365747      2.13379810002898     -0.29126445496592
