19
Coordinates from ORCA-job run
  C   -0.40698981236403     -0.09303418161429     -0.62826237159486
  C   0.94460258507728      0.26441340317868      0.04645990489558
  Br  0.01276419160783     -1.00859996634096     -2.33641011293924
  H   1.53569084514895      0.78694920163712     -0.71494354754688
  C   -1.26437844537234     -1.04085899318145      0.19592145346779
  H   -1.47285346526284     -0.59370181105568      1.17406529318004
  H   -2.22027199862413     -1.21977654863871     -0.30048506632852
  H   -0.77647347012430     -2.00341796396724      0.34882562944234
  C   -1.18886270941720      1.15936169145315     -1.00333234185220
  H   -2.04930315461532      0.90400506863802     -1.62394092692245
  H   -1.56261013643367      1.65273289450029     -0.10175838429812
  H   -0.56307258917423      1.86206297393171     -1.55975573007197
  C   1.73084346337264     -0.94871658582339      0.52567837717598
  H   1.83958141533198     -1.70189467229226     -0.25459720303647
  H   1.24233892661634     -1.41032390795319      1.38885776239496
  H   2.72098769205466     -0.62149529213835      0.84549219571459
  N   0.81792266386635      1.18266902005766      1.17435812793192
  H   0.27167982856067      0.77211069771571      1.92200484326278
  H   0.39040416975135      2.05751497189319      0.90182209712473
