17

C	0.0	0.0	0.0
C	-0.501315	0.075277	-1.473539
Br	1.966492	0.0	0.0
H	0.068185	0.782258	-2.042722
N	-0.29091	1.231489	0.724913
O	-0.148048	1.16187	1.965838
O	-0.088109	2.277521	0.050983
N	-0.409265	-1.201604	0.756324
H	-0.064399	-2.016767	0.267631
H	-1.427227	-1.282502	0.767207
N	-1.94288	0.358465	-1.608449
O	-2.204478	1.090048	-2.605269
O	-2.766913	-0.5797	-1.23362
N	-0.276176	-1.195858	-2.325854
O	0.843157	-1.719121	-2.195593
O	-0.980594	-1.298901	-3.335487
H	-1.688977	0.0	0.0
