17

C	0.0	0.0	0.0
C	-0.527181	0.008194	-1.432216
Br	1.98547	0.0	0.0
H	-0.143072	-0.86656	-1.95703
N	-0.425047	1.254719	0.712767
O	-0.303821	2.331392	0.089614
O	-0.660623	1.149001	1.94097
N	-0.573619	-1.100153	0.700468
H	-0.489844	-0.952758	1.697893
H	-0.160259	-1.976033	0.406989
N	-0.194758	1.199027	-2.316049
O	0.988898	1.332941	-2.58954
O	-1.12482	1.905802	-2.681123
N	-2.008441	-0.120811	-1.409676
O	-2.705193	0.662542	-0.646648
O	-2.479748	-1.014449	-2.129289
H	-1.560909	0.0	0.0
