17

C	-0.126544	-0.014554	-1.512821
C	0.0	0.0	0.0
Br	-2.045598	-0.12392	-2.163759
H	1.101974	0.0	0.0
N	0.399125	1.239831	-1.992792
H	0.491167	1.201667	-3.00163
H	1.34019	1.304693	-1.590703
N	0.512322	-1.226045	-1.971183
H	0.572846	-1.205576	-2.986519
H	1.467056	-1.174715	-1.5868
C	-0.515074	-1.234546	0.723792
H	-0.178234	-1.211	1.764015
H	-1.607536	-1.274043	0.703795
H	-0.11856	-2.128316	0.244658
C	-0.503021	1.22256	0.598282
N	-0.906548	2.161801	1.178365
H	2.719654	0.0	0.0
