17

C	-0.124585	-0.016787	-1.51274
C	0.0	0.0	0.0
Br	-2.034745	-0.112028	-2.173582
H	1.102052	0.0	0.0
N	0.402959	1.239018	-1.990569
H	1.353567	1.290132	-1.606345
H	0.469523	1.214018	-3.003442
N	0.52348	-1.226387	-1.967084
H	0.601909	-1.197146	-2.9783
H	1.472078	-1.17466	-1.569286
C	-0.515474	-1.235119	0.7219
H	-0.204958	-1.197636	1.769675
H	-0.091848	-2.126299	0.260061
H	-1.60666	-1.293989	0.674699
C	-0.50831	1.221728	0.595441
N	-0.919168	2.16358	1.167068
H	2.718924	0.0	0.0
