17

C	-0.574817	-0.018344	-1.412379
C	0.0	0.0	0.0
Br	0.422637	-1.445427	-2.477378
H	1.093333	0.0	0.0
N	-1.974899	-0.343058	-1.403895
H	-2.308302	-0.415343	-2.359714
H	-2.127858	-1.239763	-0.957157
N	-0.292249	1.205263	-2.108649
H	-0.591157	1.137787	-3.073974
H	-0.799879	1.955001	-1.649897
C	-0.385023	-1.210471	0.852946
H	-0.146449	-2.126369	0.307209
H	0.241641	-1.199201	1.747701
H	-1.436002	-1.217147	1.156335
C	-0.447887	1.22509	0.644226
N	-0.803421	2.219988	1.163
H	2.710393	0.0	0.0
