16

C	0.0	0.0	0.0
C	-0.530515	-0.001703	-1.446535
Br	1.958343	0.0	0.0
H	-1.629052	0.059957	-1.229281
N	-0.533754	1.142569	0.67026
H	-0.276585	1.105978	1.652394
H	-1.569167	0.943464	0.574645
C	-0.343547	-1.288793	0.643865
N	-0.570144	-2.309635	1.182395
C	-0.214002	-1.262152	-2.245594
H	-0.656317	-1.18061	-3.241326
H	0.862831	-1.415883	-2.355906
H	-0.652358	-2.130142	-1.749124
C	-0.08173	1.19321	-2.148427
N	0.249603	2.114075	-2.799808
F	-2.771071	0.0	0.0
