16

C	0.0	0.0	0.0
C	-0.407589	-0.053709	-1.51665
Br	2.04252	0.0	0.0
H	0.507161	-0.262741	-2.080307
N	-0.525595	1.125774	0.665079
H	-0.291391	1.055988	1.65111
H	-1.578514	0.876943	0.531237
C	-0.264459	-1.288227	0.672933
N	-0.415284	-2.280753	1.287157
C	-0.987336	1.269612	-2.01723
H	-1.12799	1.204819	-3.100267
H	-1.944607	1.420524	-1.522994
H	-0.303199	2.08953	-1.789004
C	-1.303608	-1.167671	-1.843642
N	-1.883924	-2.082502	-2.298143
F	-2.639958	0.0	0.0
