16

C	0.0	0.0	0.0
C	-0.414296	-0.031043	-1.514433
Br	1.962787	0.0	0.0
H	0.456952	-0.401282	-2.062597
N	-0.512294	1.138568	0.682666
H	-0.258141	1.060705	1.663727
H	-1.553601	0.915085	0.575444
C	-0.322027	-1.291047	0.64979
N	-0.478494	-2.306072	1.22345
C	-0.76388	1.355862	-2.041451
H	0.044689	2.059806	-1.83139
H	-0.935976	1.290422	-3.122649
H	-1.675628	1.684884	-1.550633
C	-1.479891	-0.981559	-1.862701
N	-2.141759	-1.735739	-2.478258
F	-2.621628	0.0	0.0
