16

C	0.0	0.0	0.0
C	-0.436288	-0.060148	-1.513328
Br	1.963183	0.0	0.0
H	0.467494	-0.282309	-2.090028
N	-0.518826	1.148236	0.661994
H	-0.259696	1.092437	1.642909
H	-1.562165	0.914473	0.561409
C	-0.316213	-1.272817	0.685302
N	-0.486291	-2.256302	1.308301
C	-1.019565	1.261649	-2.015155
H	-1.981576	1.390507	-1.526401
H	-1.150077	1.200658	-3.099785
H	-0.352562	2.089377	-1.774019
C	-1.350839	-1.164466	-1.824352
N	-1.953325	-2.057322	-2.29555
F	-2.646913	0.0	0.0
