16

C	0.0	0.0	0.0
C	-0.510498	0.088516	-1.461715
Br	1.966182	0.0	0.0
H	-1.610941	0.105367	-1.23911
N	-0.517476	1.012951	0.867735
H	-1.550607	0.824892	0.756364
H	-0.30437	1.916537	0.452059
C	-0.369806	-1.318863	0.54415
N	-0.573642	-2.376388	1.012226
C	-0.141025	-1.083348	-2.36497
H	-0.51524	-2.011249	-1.927183
H	0.939731	-1.164782	-2.504765
H	-0.61116	-0.957154	-3.343626
C	-0.107023	1.360936	-2.043163
N	0.203623	2.383577	-2.53383
F	-2.742963	0.0	0.0
