16

C	0.0	0.0	0.0
C	-0.418247	-0.082867	-1.510792
Br	2.042784	0.0	0.0
H	0.489742	-0.315758	-2.074656
N	-0.5168	1.140695	0.651099
H	-1.567031	0.901479	0.527711
H	-0.278211	1.082616	1.63696
C	-0.262909	-1.274688	0.698644
N	-0.40409	-2.257556	1.329183
C	-0.986918	1.235218	-2.035362
H	-1.945823	1.397717	-1.549142
H	-1.122423	1.158352	-3.118442
H	-0.303398	2.055894	-1.812471
C	-1.329315	-1.196929	-1.802052
N	-1.900185	-2.131282	-2.231573
F	-2.634478	0.0	0.0
