15
Coordinates from ORCA-job run
  C   -0.45200990308875      0.36287615421645      0.36960081430132
  C   0.49617573721382     -0.73874494373585      0.80292439050026
  Cl  -1.21933892720410      0.96271974082659      1.86417369463565
  H   -0.05813002906770     -1.56673531806288      1.24363689016203
  H   1.22653002862183     -0.35693043730169      1.51396868505265
  C   0.19500800149929      1.50713321596987     -0.36961782890437
  H   1.00723881974289      1.90732991870772      0.24009981095977
  H   -0.53229371561435      2.29540630547428     -0.55126320618459
  H   0.58416805476311      1.16580899418565     -1.32814374800502
  N   -1.59226314239509     -0.24514895511838     -0.45372111809300
  O   -2.03000278267025      0.42790939111644     -1.37627696767677
  O   -2.00114219932156     -1.34003176895387     -0.09098904704024
  N   1.27095546698161     -1.30688247602438     -0.34272183663723
  O   0.72809234382520     -1.31046849728988     -1.44535004741002
  O   2.37701224671404     -1.76424132401007     -0.07832048566044
