15
Coordinates from ORCA-job run
  C   -0.45487716621497      0.37290438451931      0.35602148627644
  C   0.34554431751319     -0.84440697289153      0.77775434939949
  Cl  -1.31713778665714      0.92125518260802      1.81828129219260
  H   -0.32018068380586     -1.64923792150243      1.08777530142913
  H   1.02855559170359     -0.59149665420764      1.58665820687594
  C   0.36091991163751      1.50617863786239     -0.21377074781431
  H   0.81507489171738      1.20720628196422     -1.15775486041869
  H   -0.27287132253828      2.37204320918241     -0.39234835648467
  H   1.13817674278888      1.77714309132822      0.50324022609800
  N   -1.55279764755434     -0.05667776668164     -0.62258285107854
  O   -2.08862122647593     -1.13410964956354     -0.40019389694573
  O   -1.83487718230176      0.72717731929156     -1.51796114556520
  N   1.18318508598088     -1.38833782386610     -0.33486323914087
  O   0.75747923387628     -1.25382735923447     -1.47991173113555
  O   2.21442724033055     -1.96481395880878     -0.00834403368804
