15
Coordinates from ORCA-job run
  C   -0.33869244390992      0.26481684417826      0.27787148947756
  C   0.95747798802995     -0.48537099461101      0.04898169184268
  Cl  -1.04685454568831     -0.20542950444368      1.82004183786583
  H   1.69561854501562     -0.19952977542027      0.79589571155763
  H   1.32779805263413     -0.28799120770786     -0.95760249725157
  C   -0.10780365415678      1.76601093883449      0.24489398254479
  H   -1.05965429549042      2.28379136556369      0.37373203369234
  H   0.33280324467551      2.05336119445954     -0.71094503432565
  H   0.55722549248096      2.05500719554071      1.05931964794119
  N   -1.31280098280002     -0.03990489283784     -0.87188375869611
  O   -2.47380717125728     -0.30429760021804     -0.61792030063059
  O   -0.81372667688548      0.09496683228684     -1.98407991079660
  N   0.79430904345036     -1.96602498209872      0.15812555998195
  O   -0.21468313111899     -2.44990705821483     -0.34486422718819
  O   1.70179053502068     -2.58049835531128      0.70843377398475
