15
Coordinates from ORCA-job run
  C   -0.45919644186215      0.17640414007372      0.23628937273800
  C   0.30111977383378     -1.08755006892067     -0.14802462961987
  Cl  -0.77586641655827      0.17552415984287      1.98172556132609
  H   0.44637878508826     -1.12328144710048     -1.22668053045973
  H   -0.21557623304038     -1.97475964267449      0.20604861527198
  C   0.18155883778965      1.47881172299451     -0.18398714916106
  H   0.34581883374551      1.47829759404960     -1.26450744060148
  H   1.14120539411711      1.60469118065433      0.31288462257463
  H   -0.47782641379190      2.30285952758911      0.08265777048756
  N   -1.83192460718972      0.09531675222987     -0.45350913092015
  O   -2.56776679852548      1.05998273860590     -0.30967669827336
  O   -2.07848629105999     -0.91711665871993     -1.10298765974584
  N   1.65753224904972     -1.08859621923400      0.47239728350074
  O   2.51101719559097     -0.38314856019557     -0.06407079400277
  O   1.82301213281290     -1.79843521919476      1.46044080688526
