15
Coordinates from ORCA-job run
  C   -0.44623884412508      0.23240663514460      0.21329626077106
  C   0.23660252789848     -1.11350541619113     -0.00183169532137
  Cl  -0.74240597755198      0.48286570789738      1.94413693024196
  H   0.36395001222140     -1.30177311171319     -1.06680992849678
  H   -0.32370263871349     -1.91390032274280      0.47238792895307
  C   0.26322656982612      1.42745920638276     -0.37991700481367
  H   -0.34565187250289      2.31636790150856     -0.22486044676986
  H   1.23324500644655      1.56368750098690      0.09359425226757
  H   0.41693562420418      1.27265394342439     -1.45081254924210
  N   -1.82936178777156      0.13928087816054     -0.45390104424222
  O   -2.50532668614831      1.15697206935552     -0.44322895157912
  O   -2.14346807213874     -0.93734822710894     -0.95372486423057
  N   1.59955306028312     -1.10837948827589      0.60371385940982
  O   2.48403941052332     -0.53488998627045     -0.03094745975850
  O   1.73860366754887     -1.68289729055827      1.67990471281070
