15
Coordinates from ORCA-job run
  C   -0.45572163811254      0.20198685246870      0.22155076405975
  C   0.30892003380280     -1.08241419936112     -0.09105505585654
  Cl  -0.77957047834493      0.28663163689010      1.95184624467557
  H   0.54727094417916     -1.12998085387797     -1.15124503246802
  H   -0.26447284173450     -1.95233239826141      0.22381711542127
  C   0.17784751842131      1.48824509339973     -0.26926301763258
  H   -0.50151549939830      2.31819175929959     -0.06772031919063
  H   1.12061557559368      1.66273940882291      0.24420900727044
  H   0.36444022592578      1.41820577345596     -1.34271317396782
  N   -1.79273459803550      0.07947928452335     -0.53410468349455
  O   -1.69889414640180     -0.40028730156121     -1.66126782876451
  O   -2.80385056524879      0.52261015965320     -0.01544813068615
  N   1.60065713872772     -1.12600004584773      0.65124794792221
  O   1.70111223450615     -1.94352868348910      1.56125798583453
  O   2.47489609611975     -0.34454648611500      0.27988817687704
