15
Coordinates from ORCA-job run
  C   -0.28431099567131      0.34648268353304      0.24752791730853
  C   0.90908326249607     -0.56898731780039      0.06555738849078
  Cl  -0.87823924828984      0.24559291215047      1.90246689589144
  H   1.19602737428127     -0.60017652038752     -0.98612531601992
  H   1.73971287882299     -0.23305923754322      0.68334794363210
  C   0.07923437181514      1.78232605208806     -0.09025403167540
  H   0.84479534133223      2.14086213717446      0.59853231728090
  H   0.44838110677698      1.84079200420056     -1.11525628030834
  H   -0.80368505565758      2.41531958913934      0.01219484787182
  N   -1.38981899716350     -0.05596427474738     -0.74167369284496
  O   -2.53951658167807     -0.14395319267097     -0.35088507046768
  O   -0.99167866049287     -0.17998476714679     -1.89512340967296
  N   0.62251462742152     -1.97817045795603      0.46872436002296
  O   -0.47061627184388     -2.43373865655549      0.14825688789798
  O   1.51911684785083     -2.57634095347811      1.05370924259274
