15
Coordinates from ORCA-job run
  C   -0.45803952644388      0.36547693448402      0.36015256484814
  C   0.50662503661112     -0.70981673839218      0.82300340141548
  Cl  -1.23515263162750      0.99385998586688      1.83761368659809
  H   1.23109554220869     -0.29709443942868      1.52273855769156
  H   -0.03518711960543     -1.53355731009478      1.28646255114007
  C   0.17265346950439      1.49880248250084     -0.40936048871917
  H   0.97727216111212      1.92816855313670      0.19054674758382
  H   -0.56603241386413      2.27058473279168     -0.61443780752139
  H   0.56958977547888      1.13741374665062     -1.35733091497654
  N   -1.58801278457511     -0.28179237293126     -0.44719019053687
  O   -2.03250545299129      0.35704847849803     -1.39054468252355
  O   -1.98274974561063     -1.37082994807805     -0.05254278870801
  N   1.28974024661341     -1.29588660200570     -0.30776739762295
  O   0.74453781453876     -1.34192299197661     -1.40827830467443
  O   2.40616562865060     -1.72145451102152     -0.03406493399423
