15
Coordinates from ORCA-job run
  C   -0.44992942500463      0.37483948670536      0.36002424992002
  C   0.48295516742061     -0.72938154780051      0.81930175596465
  Cl  -1.21849634810294      1.01106150922499      1.83905404595929
  H   -0.08326580798705     -1.54244264567881      1.27250315675905
  H   1.21372373103569     -0.34269513409493      1.52730070654690
  C   0.21470516451794      1.49766724933363     -0.39617806714125
  H   1.02797032793488      1.89955426421107      0.21103362038609
  H   -0.50217712193763      2.29092255232017     -0.59661659432072
  H   0.60528274416849      1.13415031782358     -1.34593622183799
  N   -1.59256316527011     -0.23495874768847     -0.45818853589786
  O   -2.01737399952996      0.42583463695081     -1.39550939304453
  O   -2.01629010235574     -1.31795703637917     -0.07744557327231
  N   1.25764156065779     -1.32774573365188     -0.31078995623870
  O   0.72175009334223     -1.34473846497537     -1.41663520667090
  O   2.35606718111044     -1.79411070630045     -0.03091798711176
