15
Coordinates from ORCA-job run
  C   -0.45333452465290      0.36595015279582      0.36477597268632
  C   0.50070429822977     -0.72443910924803      0.81337907121764
  Cl  -1.22149293805715      0.98467718383470      1.85129517699699
  H   -0.04935025382110     -1.54832501597860      1.26700884954070
  H   1.22959406703976     -0.32859199866087      1.51821993425787
  C   0.18746720970970      1.50195065679753     -0.39241639298541
  H   0.57704716823370      1.14801149725644     -1.34619643004396
  H   0.99858296874117      1.91493611689800      0.21021934179021
  H   -0.54359361085491      2.28412529559365     -0.58498477847722
  N   -1.59189583995823     -0.25968729916822     -0.44752157983431
  O   -1.99564795750188     -1.35047677838907     -0.06730736044276
  O   -2.03341753505208      0.39707851783660     -1.37995062295436
  N   1.27723788772821     -1.30532161807073     -0.32450001951998
  O   2.38691353064846     -1.75088246222120     -0.05524639423055
  O   0.73218552956747     -1.33000513927604     -1.42577476800118
