15
Coordinates from ORCA-job run
  C   -0.44525574067933      0.22449006354901      0.22172685593919
  C   0.33568172094680     -1.07685415171989      0.05253008958360
  Cl  -0.64976427576780      0.56863716476850      1.93781088267842
  H   -0.18625099440292     -1.89914464340408      0.53850150203097
  H   0.49941630625601     -1.28276291918730     -1.00289711242724
  C   0.11149391851665      1.43228689864237     -0.50510950861000
  H   -0.57954833906662      2.26843946213869     -0.38550356115052
  H   1.08020974352536      1.70524512266132     -0.09276187607252
  H   0.22826838574415      1.20027371241913     -1.56549219436930
  N   -1.82718811280358     -0.04136685964051     -0.40603583232957
  O   -1.79488133650052     -0.67791742580218     -1.45637768474542
  O   -2.81554803277795      0.44411723820636      0.11848879076025
  N   1.67743903017683     -0.97830864311757      0.69360133290317
  O   2.49705059115158     -0.24458988526894      0.14333167298859
  O   1.86887713568133     -1.64354513424491      1.70718664282038
