15
Coordinates from ORCA-job run
  C   -0.49533762478824      0.19316938474441      0.12509622850341
  C   0.30035371613775     -1.09728896936607     -0.03358619943536
  Cl  -1.17853078229676      0.27705702914533      1.76020023503846
  H   0.66975193340558     -1.18587228039975     -1.05414907821805
  H   -0.29940499089832     -1.96016157856404      0.24070620261078
  C   0.25060902746612      1.46584482457582     -0.20187636192910
  H   1.08321812614220      1.60246608033892      0.48495356846815
  H   -0.43186588443650      2.30991154611361     -0.11975730209530
  H   0.64384569209610      1.41300506785043     -1.22023035927654
  N   -1.69072676870393      0.09848311721474     -0.83895978311739
  O   -2.41459282242080      1.08070675781457     -0.90214100323786
  O   -1.82039811909802     -0.94287988050636     -1.47645844079575
  N   1.49426959076718     -1.08566272621940      0.86021770069599
  O   2.45905495534426     -0.42064748817701      0.48469708274507
  O   1.42975395128337     -1.74613088456520      1.89328751004347
