15
Coordinates from ORCA-job run
  C   -0.45623942276344      0.36705434654807      0.36048746533069
  C   0.50605851523032     -0.71068325347436      0.82205055767720
  Cl  -1.22902341358485      0.99760243468661      1.83950521008490
  H   1.23213413369712     -0.30074985053467      1.52174122461219
  H   -0.03769157749506     -1.53305007107565      1.28588349893561
  C   0.17605535108545      1.49866974421072     -0.41024341471366
  H   0.56864445682570      1.13616423045357     -1.35957004909976
  H   0.98378070175649      1.92521096071886      0.18746992793593
  H   -0.56089911704320      2.27280010560735     -0.61265856319925
  N   -1.58972576999820     -0.27690386491529     -0.44432511714264
  O   -1.98565667055047     -1.36576801415925     -0.05053428447622
  O   -2.03572593656183      0.36467229113753     -1.38514056961109
  N   1.28674962960153     -1.29964856109548     -0.30877475202454
  O   2.39931924700195     -1.73448981541406     -0.03409188638997
  O   0.74221987279850     -1.34088068269394     -1.40979924791940
