16

C	0.0	0.0	0.0
C	-0.329062	0.237776	-1.536559
Cl	1.802906	0.0	0.0
H	0.443042	-0.302918	-2.087578
N	-0.57129	0.826507	0.975208
H	-1.562076	0.586299	1.070135
H	-0.487087	1.797476	0.698407
N	-0.382275	-1.456421	0.304951
O	-0.895431	-1.702798	1.384456
O	-0.11028	-2.271109	-0.572953
C	-0.100198	1.676098	-1.756356
N	0.080785	2.829469	-1.879757
N	-1.598117	-0.149955	-2.075572
H	-2.387185	0.134475	-1.487008
H	-1.632816	-1.160095	-2.1286
Cl	-3.896495	0.0	0.0
