16

C	0.0	0.0	0.0
C	-0.361225	-0.201973	-1.51548
Cl	1.808721	0.0	0.0
H	0.390393	-0.901373	-1.886186
N	-0.604063	1.087157	0.606661
H	-1.613735	1.04918	0.421212
H	-0.459447	1.071049	1.609316
N	-0.286874	-1.35478	0.738203
O	-0.540049	-1.271793	1.933128
O	-0.178869	-2.391801	0.093644
C	-0.116166	1.085329	-2.191858
N	0.04475	2.07877	-2.794911
N	-1.643857	-0.715815	-1.894514
H	-2.430167	-0.244369	-1.440777
H	-1.701428	-1.689161	-1.622771
Cl	-3.977029	0.0	0.0
