16

C	0.0	0.0	0.0
C	-0.349614	0.300635	-1.502867
Cl	1.797148	0.0	0.0
H	0.371974	-0.288041	-2.073191
N	-0.601183	0.849644	0.916268
H	-1.614359	0.846109	0.747076
H	-0.433667	0.534951	1.864642
N	-0.312082	-1.511917	0.267927
O	-0.556949	-1.811455	1.429281
O	-0.240823	-2.287334	-0.679134
C	-0.017385	1.71826	-1.735928
N	0.24835	2.836549	-1.972881
N	-1.647405	0.003477	-2.031776
H	-2.416717	0.346837	-1.454761
H	-1.762933	-1.000849	-2.073833
Cl	-3.968215	0.0	0.0
