18

C	0.0	0.0	0.0
C	-0.602345	-0.09473	-1.402333
Br	1.956885	0.0	0.0
H	-1.643805	0.249931	-1.2689
N	-0.334383	1.390549	0.586276
O	-0.564937	2.290516	-0.211041
O	-0.298895	1.50272	1.804893
C	-0.50363	-1.057681	0.950732
H	-0.12315	-0.862446	1.950419
H	-1.597931	-1.013494	0.948893
H	-0.162181	-2.039593	0.62283
C	-0.663652	-1.534897	-1.920008
H	0.314938	-2.02116	-1.881921
H	-1.392126	-2.09583	-1.334834
H	-1.005773	-1.524513	-2.956084
C	0.068001	0.750918	-2.38716
N	0.580868	1.339538	-3.265314
Br	-3.831481	0.0	0.0
