18

C	0.0	0.0	0.0
C	-0.542026	-0.20524	-1.438271
Cl	1.802828	0.0	0.0
H	-1.630873	-0.167733	-1.300585
C	-0.362934	1.351993	0.446165
N	-0.584957	2.448116	0.805715
C	-0.505759	-1.033734	0.992359
H	-0.17867	-0.780934	2.002804
H	-1.600007	-1.026919	0.945549
H	-0.117745	-2.019687	0.734255
C	-0.163812	-1.558026	-2.022255
H	0.920739	-1.666388	-2.118324
H	-0.552292	-2.383316	-1.42362
H	-0.604542	-1.619757	-3.018026
N	-0.175484	0.85286	-2.367774
H	0.820905	1.036446	-2.315196
H	-0.666413	1.7036	-2.118182
Br	-3.923345	0.0	0.0
