18

C	0.0	0.0	0.0
C	-0.406963	0.237939	-1.508602
Cl	1.801677	0.0	0.0
H	0.312926	-0.379432	-2.061006
C	-0.408954	1.108999	0.86147
N	-0.67783	2.036389	1.531419
C	-0.530298	-1.316595	0.534202
H	-0.232443	-2.129063	-0.134122
H	-0.135771	-1.516182	1.531935
H	-1.621456	-1.254179	0.579572
C	-0.21786	1.698021	-1.899839
H	-0.99716	2.304727	-1.433034
H	0.757044	2.088428	-1.601172
H	-0.326837	1.782706	-2.982266
N	-1.721103	-0.186457	-1.899053
H	-2.47523	0.232509	-1.352639
H	-1.837517	-1.186381	-1.800508
Br	-4.453853	0.0	0.0
