16

C	-0.44094	0.001993	-1.454442
C	0.0	0.0	0.0
F	0.044281	-1.085693	-2.053191
H	1.09579	0.0	0.0
N	-1.955552	-0.017345	-1.610953
O	-2.393311	-0.587202	-2.600126
O	-2.588569	0.56434	-0.738984
N	0.042764	1.207075	-2.27199
O	1.242741	1.219728	-2.480286
O	-0.81091	1.991272	-2.666534
C	-0.521364	-1.18796	0.649079
N	-0.932727	-2.179305	1.126853
N	-0.3878	1.243271	0.73839
O	-0.194263	2.293227	0.137535
O	-0.786025	1.121159	1.888526
Cl	3.070994	0.0	0.0
