16

C	-0.413835	-0.003773	-1.465044
C	0.0	0.0	0.0
F	-0.062686	-1.2027	-2.038168
H	1.11519	0.0	0.0
N	-1.897076	0.115459	-1.694444
O	-2.526756	-0.869679	-1.10242
O	-2.196688	0.250194	-2.964784
N	0.250181	1.098727	-2.23224
O	-0.273574	2.255384	-1.963536
O	0.355007	0.82656	-3.519273
C	-0.358597	-1.256201	0.823268
N	0.199169	-1.461469	1.889401
N	-0.491681	1.182948	0.751477
O	-1.766205	1.080251	1.03982
O	0.272784	1.427563	1.789159
Cl	2.578747	0.0	0.0
