16

C	-0.370095	-0.002565	-1.471006
C	0.0	0.0	0.0
F	-0.057422	-1.189819	-1.994425
H	1.115201	0.0	0.0
N	-1.853493	0.213016	-1.785955
O	-2.587335	-0.642801	-1.314437
O	-2.162627	1.160724	-2.492693
N	0.381315	1.079561	-2.22439
O	0.533102	2.13106	-1.621021
O	0.707719	0.809916	-3.369077
C	-0.488457	-1.18213	0.687938
N	-0.856088	-2.123571	1.286922
N	-0.502953	1.204511	0.746162
O	0.143274	1.536239	1.726829
O	-1.546593	1.718005	0.348341
Cl	3.084095	0.0	0.0
