16

C	-0.461708	-0.013939	-1.448606
C	0.0	0.0	0.0
F	-0.125052	-1.170177	-2.0545
H	1.113392	0.0	0.0
N	-1.95802	0.010307	-1.724215
O	-2.285778	0.346239	-2.886938
O	-2.565323	-0.875108	-1.069172
N	0.268938	1.124007	-2.116458
O	-0.139867	2.255905	-1.788904
O	1.502929	0.843725	-2.314825
C	-0.261826	-1.349803	0.610299
N	0.254341	-2.358984	0.462177
N	-0.518483	1.092353	0.873951
O	0.257701	1.368009	1.831827
O	-1.769977	1.169097	0.978158
Cl	2.701964	0.0	0.0
