11

C	0.0	0.0	0.0
C	-0.240549	-0.496827	-1.46123
Cl	1.783996	0.0	0.0
H	0.438614	-1.343105	-1.595673
H	-0.395138	0.995558	0.175493
H	0.14841	0.300114	-2.102903
C	-0.428366	-0.940681	1.03222
N	-0.533774	-1.741811	1.885898
C	-1.506837	-0.942218	-2.052936
N	-2.161372	-1.454746	-2.88857
Br	-3.223546	0.0	0.0
