11

C	0.0	0.0	0.0
C	-0.221463	-0.053139	-1.55075
Cl	1.783634	0.0	0.0
H	0.187422	-1.011781	-1.884437
H	-0.3882	0.912706	0.445864
H	0.461455	0.706844	-1.94766
C	-0.435504	-1.185628	0.740722
N	-0.507493	-2.182018	1.358182
C	-1.463346	0.136475	-2.305322
N	-2.216922	0.104968	-3.208187
Br	-3.190765	0.0	0.0
