11

C	0.0	0.0	0.0
C	-0.532688	0.172755	-1.42275
Cl	1.781626	0.0	0.0
H	-1.632833	0.154366	-1.338229
H	-0.351062	0.814244	0.634291
H	-0.198703	-0.661932	-2.044482
C	-0.421662	-1.284127	0.56444
N	-0.600476	-2.352805	1.016223
C	-0.088963	1.427939	-2.015822
N	0.268085	2.435882	-2.500352
Br	-3.587152	0.0	0.0
