11

C	0.0	0.0	0.0
C	-0.492484	-0.065082	-1.446872
Cl	1.781616	0.0	0.0
H	-1.592715	-0.05139	-1.402253
H	-0.370894	0.912393	0.465469
H	-0.136541	0.824228	-1.975028
C	-0.412795	-1.164039	0.789437
N	-0.586242	-2.135174	1.426712
C	-0.013397	-1.253356	-2.143763
N	0.375337	-2.196383	-2.724942
Br	-3.522603	0.0	0.0
