11

C	0.0	0.0	0.0
C	-0.524498	-0.413635	-1.374123
Cl	1.781781	0.0	0.0
H	-1.625205	-0.40617	-1.296139
H	-0.360531	1.002404	0.229764
H	-0.212275	0.334245	-2.108526
C	-0.412731	-0.921418	1.062145
N	-0.595276	-1.671814	1.946567
C	-0.040869	-1.724199	-1.791159
N	0.341577	-2.775499	-2.146188
Br	-3.583382	0.0	0.0
