11
Coordinates from ORCA-job run
  C   -0.79842904455556     -0.07609117406099     -0.14350441110030
  C   0.55202844417175      0.08889336768951     -0.04083518107362
  C   -1.62117549741103     -0.71565710813368      0.83347837537267
  N   -2.38231527878718     -1.20337049810004      1.58845425263392
  C   -1.45728019710358      0.42197729992375     -1.31216780639111
  N   -1.99599710640433      0.83370848942177     -2.27552675439980
  N   1.31712269127800     -0.38215476558220      1.13800875808878
  O   2.41612556334254      0.14093273733974      1.28827970952423
  O   0.78724205387890     -1.22694101370205      1.84593295766244
  C   1.30674190144409      0.76932819109308     -1.03225753220206
  N   1.87393647014637      1.34937447411110     -1.88986236811516
