11
Coordinates from ORCA-job run
  C   -0.78039407304351     -0.15246015874077     -0.18615331980811
  C   0.54203097403703      0.14266880876504     -0.04665329149154
  C   -1.46612275017517      0.25458618433354     -1.37351575620221
  N   -2.03597263118616      0.58702633674212     -2.35002822808437
  C   -1.55300216467062     -0.83939053364118      0.79934945528542
  N   -2.26787328096005     -1.37472254908935      1.56778596165106
  N   1.27905213893795     -0.22198435504415      1.18499170093271
  O   0.97890705307858     -1.28200491334977      1.71832947547048
  O   2.11610003229010      0.59584412633144      1.54945598022227
  C   1.28772397238294      0.85592512276540     -1.01947329715297
  N   1.90055072930891      1.43451193092768     -1.84408868082275
