11
Coordinates from ORCA-job run
  C   -0.78705667571864     -0.11515112065038     -0.16891950122154
  C   0.54560183067073      0.12873769780066     -0.01199594344188
  C   -1.63441681656041     -0.74015002502602      0.79677205274715
  N   -2.44004610674083     -1.23595213506456      1.49926191070314
  C   -1.41357392130239      0.28031117116271     -1.39340663153888
  N   -1.93972539277111      0.60300515323029     -2.39747713487541
  N   1.28237007525488     -0.23808304426707      1.22386622699344
  O   0.66205234058683     -0.84574276992385      2.08503935713477
  O   2.45798433136223      0.11088226525057      1.25544942992020
  C   1.32425752611640      0.76286745315993     -1.01605182287409
  N   1.94255280910229      1.28827535432772     -1.87153794354689
