11
Coordinates from ORCA-job run
  C   -0.79470530833366     -0.10924774476885     -0.12721199896608
  C   0.54891624188155      0.11546629870330     -0.08261043338270
  C   -1.56264867579087      0.45386880047957     -1.19410376570115
  N   -2.20743771748659      0.89510688288583     -2.07841880794908
  C   -1.51551844177411     -0.87708193976878      0.83753736243534
  N   -2.19678521206589     -1.47519653896968      1.58844200030707
  N   1.37646981076542     -0.38728473992002      1.03677664723275
  O   2.31058916533035      0.33608452232299      1.35873790827437
  O   1.03509132222498     -1.44533029459300      1.54723972395300
  C   1.22982433091755      0.91644532577644     -1.03907279127023
  N   1.77520448433129      1.57716942785222     -1.84931584493329
