11
Coordinates from ORCA-job run
  C   -0.78180647102365     -0.15907976041670     -0.14518353499706
  C   0.54216661404687      0.15251560196315     -0.07082319307009
  C   -1.53965755967695      0.26727506311623     -1.28161710337728
  N   -2.18890700420746      0.61466394004971     -2.20250997791129
  C   -1.49935444938055     -0.88293414914056      0.85451459221550
  N   -2.19837425604006     -1.46102967036507      1.60712041029208
  N   1.35264202868481     -0.23321987036914      1.10793568152756
  O   1.05368102888885     -1.27967712586921      1.66793596719794
  O   2.23911437896160      0.55728302371972      1.41057824639361
  C   1.22279290122928      0.90270926667588     -1.06318444291799
  N   1.79770278851726      1.52249368063599     -1.88476664535297
