11
Coordinates from ORCA-job run
  C   -0.80964100163526     -0.12630475583278     -0.08003270393247
  C   0.48542287316898      0.22528717680405      0.14571793255608
  C   -1.20650041467232     -1.39772121950617     -0.59033638871585
  N   -1.61279368637931     -2.41207458875624     -1.02838107885238
  C   -1.84578874410673      0.81916798757726      0.18513408952984
  N   -2.69907730749472      1.60398230368310      0.39326626046763
  N   1.59734846873720     -0.69199415637864     -0.18548961419227
  O   1.41681063297502     -1.88345746636963      0.03387084367640
  O   2.59527315033658     -0.15199458721183     -0.64679631213153
  C   0.87897617936823      1.48790991972862      0.65769742057303
  N   1.19996984970231      2.52719938626226      1.11534955102152
