11
Coordinates from ORCA-job run
  C   -0.80485475157192     -0.12755778208989     -0.06818002780556
  C   0.48727109574752      0.22932856124936      0.17217984635772
  C   -1.18256690332894     -1.38924619474609     -0.61939098351072
  N   -1.55491581108372     -2.38432132027244     -1.12932206854216
  C   -1.85733818271914      0.78687153328678      0.25892938638460
  N   -2.70866791942842      1.54967116999407      0.54424645106943
  N   1.59019561524286     -0.68667200174894     -0.20322717792038
  O   2.51897106144038     -0.15480154064781     -0.79800939774735
  O   1.44487002625088     -1.86897697852384      0.07182697258205
  C   0.87910316969601      1.49474098023368      0.67416703928511
  N   1.18893259975449      2.55096357326513      1.09677995984726
