11
Coordinates from ORCA-job run
  C   -0.79182558832001     -0.15442911842826     -0.14759344319411
  C   0.53444075304637      0.14638330638865     -0.06708983500563
  C   -1.52541285736739      0.25102697511955     -1.30591660504141
  N   -2.11741847040896      0.57166339421148     -2.27277918973205
  C   -1.52158010076719     -0.82951397350779      0.87906108690721
  N   -2.21725311545281     -1.37312543874062      1.65924745081694
  N   1.33155560209422     -0.21066199015006      1.13199185017581
  O   2.21521681045333      0.58753284124457      1.42157710862047
  O   1.02579495569185     -1.24154378484106      1.71602500602535
  C   1.23908158344414      0.84983428918326     -1.07746107383865
  N   1.82740042758646      1.40283349952028     -1.93706235573391
