11
Coordinates from ORCA-job run
  C   -0.77753463210232     -0.14550089337324     -0.13562426014392
  C   0.54994563869016      0.15111896023335     -0.06139783024277
  C   -1.54205947515899      0.31897038687217     -1.25156491372426
  N   -2.23489250415603      0.65772863047701     -2.14284981688676
  C   -1.50735691963672     -0.88400937875319      0.84682097854750
  N   -2.21191210096529     -1.46718355077400      1.58997179946554
  N   1.37848610663695     -0.25345031734178      1.09899284320581
  O   0.96812968586234     -1.18341612870636      1.77890363379644
  O   2.39792396258350      0.40770568699573      1.26571182802238
  C   1.22230581393078      0.90733866381682     -1.05851010265671
  N   1.75896442431561      1.49169794055349     -1.93045415938325
