11
Coordinates from ORCA-job run
  C   -0.80617998575980     -0.12946358756506     -0.04904869923794
  C   0.49510006739929      0.24031158784610      0.11024604247986
  C   -1.83590863694979      0.84954302690786      0.11123595016944
  N   -2.68979608052404      1.65081554241647      0.24461562382606
  C   -1.22022275420073     -1.45209673577910     -0.39442250644987
  N   -1.64630673968280     -2.50724903311601     -0.69990241563872
  N   1.59471105578968     -0.73086325224350     -0.09131718776085
  O   1.38931036458228     -1.88388583657173      0.26476483000967
  O   2.60631694522366     -0.26867602971335     -0.60671015186635
  C   0.89710670016789      1.56496313474422      0.41826061188848
  N   1.21686906395436      2.66660118307410      0.69127790258021
