11
Coordinates from ORCA-job run
  C   -0.80489945880558     -0.14799383394501      0.00008496455526
  C   0.49441207886110      0.25393933191220      0.07537126803494
  C   -1.84628601847485      0.81177932923849      0.19701149245206
  N   -2.70965960495773      1.59669511185115      0.36242438863954
  C   -1.20653627706052     -1.48776929445739     -0.28963720873294
  N   -1.62509763503935     -2.55915926338845     -0.54503642775860
  N   1.60287322014659     -0.69818391669920     -0.16492652243714
  O   1.44503504052890     -1.84542424499721      0.23177661281773
  O   2.57232085522371     -0.22838613446107     -0.74976557609369
  C   0.88311098133638      1.59428920278264      0.32747079971101
  N   1.19372681824132      2.70921371216383      0.55322620881181
