11
Coordinates from ORCA-job run
  C   -0.82165454227219     -0.07553896203119     -0.05397936974012
  C   0.47753258520523      0.27064223176624      0.14793908785025
  C   -1.17021220588597     -1.33667477967797     -0.62967827276117
  N   -1.45089440905199     -2.37259174406068     -1.11795573606365
  C   -1.89758136977611      0.80577675860760      0.27723443023433
  N   -2.84121280889213      1.46217875599229      0.55535054717882
  N   1.54487975776572     -0.69481642573178     -0.22463112210952
  O   2.33985426574818     -0.29082103079179     -1.06380409323400
  O   1.50629860378111     -1.78361350611241      0.33500220036914
  C   0.94152461233104      1.49908911405638      0.67544147102093
  N   1.37346551104711      2.51436958798329      1.09808085725497
