11
Coordinates from ORCA-job run
  C   -0.80654677530232     -0.00231995858655     -0.10764180650227
  C   0.51802434063887      0.17767297586444      0.10461135490544
  C   -1.34655452308435     -1.12978653683727     -0.78995873946753
  N   -1.82627342890210     -2.09384910231001     -1.27590906137711
  C   -1.74782380009273      0.95966131538995      0.37007987131338
  N   -2.56440026495744      1.69648462358871      0.80235940486572
  N   1.51343881463227     -0.83982155369050     -0.29947008930540
  O   1.24133161682569     -2.02218990338990     -0.11227214795903
  O   2.55635612490191     -0.35936904735559     -0.75136966201320
  C   1.06648497573513      1.32863335572320      0.72502411491226
  N   1.39596291960506      2.28388383160353      1.33454676062775
