11
Coordinates from ORCA-job run
  C   -0.81409601397998     -0.05366623653220     -0.15889327764428
  C   0.47094966426640      0.20993971702715      0.19973121363918
  C   -1.85426661945979      0.84683370490872      0.22735396681268
  N   -2.71236362445971      1.59302234274782      0.53628939123659
  C   -1.15970542150214     -1.21459639362067     -0.91330944056092
  N   -1.47487066160935     -2.16717623012207     -1.53131242955241
  N   1.54594735012131     -0.72338474521581     -0.19933378388196
  O   1.92389160785414     -1.49756307868670      0.66957894269172
  O   1.95465289006532     -0.60553787168382     -1.34862141921367
  C   0.88533824161938      1.33560229564712      0.95139344228316
  N   1.23552258708440      2.27752649553048      1.56912339418992
