11
Coordinates from ORCA-job run
  C   -0.79892550794095     -0.12428549716237     -0.12727857049034
  C   0.48942068280683      0.25504923451086      0.10017737118685
  C   -1.85818288098588      0.79362687120479      0.15477150617717
  N   -2.73583390543403      1.54644022181301      0.38264634203997
  C   -1.17274029924499     -1.41253916741076     -0.61833325067106
  N   -1.56985361459028     -2.45497704829841     -0.99763133841848
  N   1.61319980179038     -0.68054028713091     -0.13434479040624
  O   2.53475312295795     -0.59549007997389      0.66939492382960
  O   1.51305196116550     -1.44032366027066     -1.08885980332652
  C   0.84872021731285      1.52398484680691      0.62152362856662
  N   1.13639042216263      2.58905456591142      1.03793398151245
