11
Coordinates from ORCA-job run
  C   -0.78435421018686     -0.18505198073000     -0.10920287015208
  C   0.52580583061849      0.18855150788530     -0.04790404591848
  C   -1.48246892904410     -0.92944838832883      0.89077839885687
  N   -2.16915309328258     -1.53425673407559      1.63302568866793
  C   -1.54677235569474      0.18533978586723     -1.26246507196536
  N   -2.18483926455986      0.48310153596541     -2.20762871332113
  N   1.39771231779885     -0.14885359757152      1.10600788702548
  O   0.89326432647224     -0.78664098808191      2.01951274168545
  O   2.55332034981959      0.25366951813175      1.02441616888355
  C   1.15240391227745      0.92987475140015     -1.08436020316468
  N   1.64508111578153      1.54371458953801     -1.96217998059755
