11
Coordinates from ORCA-job run
  C   -0.80794731751775     -0.12362238009500     -0.06319955124249
  C   0.49113973931812      0.23659260976800      0.12642276603999
  C   -1.21228541136285     -1.41384282012091     -0.52357494045622
  N   -1.62828954697574     -2.44277386780518     -0.91922563382771
  C   -1.84632665261918      0.82925345161366      0.18323509056519
  N   -2.70886926595700      1.61170928692296      0.36759319315082
  N   1.59321172630689     -0.70676084540120     -0.16826453887751
  O   2.59315812179072     -0.19959554922803     -0.66363115538134
  O   1.40365569787326     -1.88519861399937      0.10546796791368
  C   0.89117674584372      1.52225000560987      0.57094798644213
  N   1.23237616329982      2.57198872273523      0.98422881567346
