11
Coordinates from ORCA-job run
  C   -0.80122661526988     -0.15994024102139      0.02503230165700
  C   0.49394937863954      0.26030769275381      0.06333958994287
  C   -1.84940472648379      0.78020981059730      0.27397065219216
  N   -2.71883362041728      1.54863125656320      0.48027377413632
  C   -1.19324876149994     -1.50046490867833     -0.27470965690485
  N   -1.60566116469899     -2.57313512199382     -0.53454387234282
  N   1.60673243066312     -0.67085257486606     -0.23180212163651
  O   2.54862144851136     -0.17629878287938     -0.84076148070476
  O   1.47825402381607     -1.82748234715614      0.14755154386636
  C   0.87061260155495      1.60195393773477      0.32679309142846
  N   1.17020500518484      2.71707127894604      0.56585617836577
