11
Coordinates from ORCA-job run
  C   -0.79424592806549     -0.11738862920671     -0.15039668085713
  C   0.48912861084905      0.25294447033463      0.11588168576169
  C   -1.86039751549964      0.78853165147971      0.14442310011807
  N   -2.74680775822073      1.52648391633339      0.38700132725845
  C   -1.15817718356561     -1.38784379433501     -0.69250687753468
  N   -1.54795772949035     -2.41660028745793     -1.11449762446641
  N   1.61629515407899     -0.67594382091194     -0.12735637278744
  O   1.53674290923721     -1.40168080895994     -1.10986248641341
  O   2.51916636360809     -0.62223362975683      0.70022417058218
  C   0.83738572898112      1.50196383915617      0.68977617602321
  N   1.10886734808736      2.54976709332448      1.15731358231548
