11
Coordinates from ORCA-job run
  C   -0.77423294259042     -0.21648579759062     -0.11022875946107
  C   0.52464803833509      0.19470216075786     -0.05749354744466
  C   -1.52667795411028      0.03883848378554     -1.30094952688709
  N   -2.15672465813596      0.24379878514283     -2.27575730829269
  C   -1.47169868893506     -0.89173998109899      0.93761282565199
  N   -2.16341197771043     -1.43453860837335      1.72195012479671
  N   1.37739155738211     -0.02519434046954      1.13816431965272
  O   0.93754046201495     -0.75909896700136      2.01203038190600
  O   2.45120657787073      0.56757814980582      1.12989123242770
  C   1.15381774462483      0.86792633768983     -1.13707528879831
  N   1.64914184125442      1.41421377735198     -2.05714445355130
