11
Coordinates from ORCA-job run
  C   -0.80356012524216     -0.14516743391268     -0.04827162849083
  C   0.49020813111208      0.24259667786257      0.12772358329853
  C   -1.85586389779753      0.78792291457721      0.20923706065596
  N   -2.73138820485954      1.54882370578345      0.41749180592241
  C   -1.18854543032633     -1.44226300292981     -0.50646349952224
  N   -1.59294834081019     -2.47706019207674     -0.89870352636874
  N   1.61012127066750     -0.67790953720946     -0.17451969376085
  O   2.60033040530948     -0.14625942907465     -0.66389738136572
  O   1.44030520479757     -1.86239356608045      0.08361409333497
  C   0.86469918635077      1.54450349935573      0.54714536746827
  N   1.16564180079838      2.62620636370483      0.90764381882823
