11
Coordinates from ORCA-job run
  C   -0.78844051788666     -0.05079475943884     -0.21924293252005
  C   0.47379666018273      0.18610935791118      0.23199015047646
  C   -1.86186774176314      0.78363646723546      0.21923546136113
  N   -2.74677153117954      1.47772173984943      0.57161956198794
  C   -1.11773099971224     -1.12263610362640     -1.10646659389377
  N   -1.48134659945976     -1.98611129923221     -1.82223719630366
  N   1.59986666331310     -0.68181547224643     -0.18085771064206
  O   1.61285223537061     -1.05618125346347     -1.34599211066593
  O   2.41347449629865     -0.92901331359944      0.70169540659214
  C   0.80977741686138      1.23852590737515      1.11903132043629
  N   1.08538991797487      2.13855872923557      1.82922464317151
