11
Coordinates from ORCA-job run
  C   -0.79637025066539     -0.09416306342585     -0.13333497919697
  C   0.54535545873635      0.12773850751071     -0.03138923438557
  C   -1.59433937356503     -0.80299964820777      0.81642917887296
  N   -2.36300019245095     -1.35995426103454      1.51457071645507
  C   -1.48732853578507      0.41443557699696     -1.27891584033287
  N   -2.06690042966262      0.82732495029975     -2.21845581360908
  N   1.34717743707946     -0.35577056818619      1.12144233819996
  O   0.76643207330547     -1.02428669651572      1.96474477647855
  O   2.52934626586101     -0.02908303361830      1.11059871710093
  C   1.27251661640660      0.84683387800505     -1.01624663788931
  N   1.84711093074018      1.44892435817591     -1.85144322169367
