11
Coordinates from ORCA-job run
  C   -0.80613461488234     -0.13826542479535     -0.00198108112874
  C   0.49736938697284      0.24965456054226      0.07446320004434
  C   -1.83724976383764      0.83926567226452      0.15834523551575
  N   -2.69276454181016      1.63885794237920      0.29138523029559
  C   -1.22262463797871     -1.48003234727714     -0.26044452718945
  N   -1.65256257858102     -2.55255190675364     -0.49084978155600
  N   1.59585773155853     -0.72153396955730     -0.13161340237624
  O   2.57541876885582     -0.27902514089144     -0.72084062295074
  O   1.42072655646998     -1.85600004150230      0.29353000663012
  C   0.89979288885619      1.59167854458381      0.29399967322399
  N   1.22217080437652      2.70795211100739      0.49500606949139
