11
Coordinates from ORCA-job run
  C   -0.80391711844322     -0.14122829907748     -0.05460031201000
  C   0.49049114739818      0.24942045802795      0.11024139680889
  C   -1.84802121260234      0.82713534057199      0.07350481378705
  N   -2.71379399035475      1.61961926675387      0.18013045315152
  C   -1.19629295259825     -1.47669992829775     -0.37531582934918
  N   -1.60591138969140     -2.54366273369134     -0.66186191037461
  N   1.60503273692602     -0.71118850584153     -0.05846175972187
  O   1.41167980812698     -1.85849086655785      0.32193415342891
  O   2.61511305707645     -0.24729290659758     -0.57527886845232
  C   0.87226907412352      1.58556703089329      0.39312925620206
  N   1.17535084003880      2.69682114381641      0.64557860652957
