11
Coordinates from ORCA-job run
  C   -0.79956500404524     -0.05154317215459     -0.16471199077747
  C   0.53728825759865      0.16222143298192     -0.01374903907061
  C   -1.46923754053669      0.48652153543657     -1.30767906379832
  N   -2.02787165509725      0.93164431763657     -2.24507165630662
  C   -1.59072777093993     -0.81236641512301      0.74948348730998
  N   -2.31178752752081     -1.44156809444279      1.43685876439498
  N   1.27719414046440     -0.41315428458823      1.13269126590910
  O   0.68825397135325     -0.46331325469016      2.20466716489338
  O   2.41650376677118     -0.78776720885030      0.87923532629475
  C   1.32173973292993      0.88608600244963     -0.94743403334777
  N   1.95920962902250      1.50423914134439     -1.72329022550141
