11
Coordinates from ORCA-job run
  C   -0.79857886465314     -0.11338085336065     -0.09446289329485
  C   0.49637347513835      0.22756314226921      0.15540822858147
  C   -1.20077148014467     -1.38754474814485     -0.59856214734910
  N   -1.62494503673497     -2.40485851812711     -1.01458726344911
  C   -1.83591181795527      0.84019026365495      0.15172000215844
  N   -2.70848366622243      1.60908505496977      0.34474820245748
  N   1.59597047020957     -0.71961568449050     -0.13498959695923
  O   2.61318684416321     -0.21032719594020     -0.59179033497482
  O   1.37945744427990     -1.90282333211584      0.09071576369276
  C   0.88811790056587      1.50292987497482      0.63490314030237
  N   1.19558473135358      2.55978199631040      1.05789689883457
