11
Coordinates from ORCA-job run
  C   -0.79527256749124     -0.11751255826054     -0.16385167175234
  C   0.52468703054409      0.19100503170354     -0.03113235548002
  C   -1.55527790158248     -0.78241484563396      0.84631099798046
  N   -2.26348593862843     -1.32274120372749      1.61810671949201
  C   -1.47304759368777      0.22078648854718     -1.37524108127953
  N   -2.03466253895908      0.49347764164129     -2.37558938863670
  N   1.28265232096184     -0.20361643541191      1.17887467149569
  O   0.69576084867389     -0.13679392993010      2.25110832799533
  O   2.43262621646091     -0.57371192315437      0.96941007089435
  C   1.28610779127308      0.82866749441563     -1.04390780709737
  N   1.89991233243521      1.40085423981073     -1.87308848361189
