11
Coordinates from ORCA-job run
  C   -0.79771182744918     -0.07908204960167     -0.16363707808911
  C   0.54851601582842      0.10172736016390     -0.06026422992813
  C   -1.48458917038511      0.42259225772170     -1.31274087152822
  N   -2.05697876131702      0.82710450206179     -2.26023893639147
  C   -1.58919558880620     -0.73442656768048      0.82853626557418
  N   -2.31588652761190     -1.24332810446615      1.60384584986701
  N   1.29174861490972     -0.36451815434484      1.13226183587282
  O   0.92135458989419     -1.41388461953006      1.64229307856175
  O   2.20893074980773      0.36606405158971      1.48957471158122
  C   1.32053915080820      0.78336893511636     -1.03521743921552
  N   1.95327275432116      1.33338238896974     -1.86441318630452
