11
Coordinates from ORCA-job run
  C   -0.80401764859812     -0.14659107969132      0.00195938084475
  C   0.49599492638840      0.25326800945897      0.07700032106953
  C   -1.84420754190054      0.81514314522116      0.19517788597071
  N   -2.70694310081400      1.60193181983258      0.35531005653548
  C   -1.20790845398861     -1.48588093436938     -0.28760754813153
  N   -1.62924382421038     -2.55566600880030     -0.54534293405313
  N   1.60219940895923     -0.70129825505750     -0.16257391008089
  O   1.44255462966854     -1.84737839956322      0.23669355327852
  O   2.57131617437724     -0.23474170846279     -0.75054011156003
  C   0.88596945726848      1.59369919298987      0.32613561362202
  N   1.19528597284976      2.70851421844194      0.55378769250457
