11
Coordinates from ORCA-job run
  C   -0.80689594457738     -0.13119674521788     -0.02568199943749
  C   0.49808269250804      0.25871417355909     -0.00801154622100
  C   -1.83385741213128      0.85654235114810      0.09405220459361
  N   -2.68596543583079      1.66522791597565      0.18931695935759
  C   -1.22845315388602     -1.49153310653711     -0.13613285115248
  N   -1.66299731763450     -2.58464274281788     -0.20278444372747
  N   1.59257529256074     -0.73564599284586     -0.08329560406828
  O   1.40731524160671     -1.71283216316263     -0.79678649867086
  O   2.57948444987507     -0.47215073626063      0.59454201474484
  C   0.90684694090710      1.60907520816690      0.13587449971440
  N   1.23386464660231      2.73744183799226      0.23790726486713
