11
Coordinates from ORCA-job run
  C   -0.74130775718111     -0.18718333942961     -0.29173873590362
  C   0.52438385292206      0.19557362826754      0.03527635752929
  C   -1.34372593452100      0.33172366722990     -1.48009164802121
  N   -1.84164540681750      0.74796594814610     -2.46394777603172
  C   -1.53162364837744     -1.07693457861615      0.49836357235107
  N   -2.25869133616703     -1.77990140036408      1.10291821775491
  N   1.17065328127746     -0.28668542571168      1.27727090561222
  O   0.92806513203558     -1.43691490232411      1.61872742579365
  O   1.88670675397609      0.53310180442846      1.84094313909683
  C   1.28773775488901      1.10702162665783     -0.73770072741968
  N   1.91844730796386      1.85223297171582     -1.39902073076174
