11
Coordinates from ORCA-job run
  C   -0.74134779389534     -0.24647169406344     -0.24755299212158
  C   0.49705188196334      0.26484312991027     -0.00311263602522
  C   -1.35576367453476     -1.24023998023797      0.57422357738504
  N   -1.94451899456344     -2.02910507405822      1.22348184886758
  C   -1.50982012365427      0.25102377930583     -1.34428868554607
  N   -2.15884722905109      0.64301534618371     -2.24614383378038
  N   1.29086683731146     -0.21840207692111      1.14963452022081
  O   1.27142783612878     -1.42561264590526      1.36319209884947
  O   1.89117998598227      0.65069207208213      1.77045236605966
  C   1.11546103708134      1.26368628831565     -0.79298984292461
  N   1.64531023723172      2.08657085538840     -1.44889642098469
