11
Coordinates from ORCA-job run
  C   -0.74787691480170     -0.16059880910658     -0.29083578969084
  C   0.52588650378767      0.19211537033760      0.03870024475690
  C   -1.39113150461190      0.48816077422612     -1.39065208699564
  N   -1.92683639240468      1.01709805990769     -2.29740383471864
  C   -1.50997063994972     -1.13832315423803      0.41878554459419
  N   -2.21485337132344     -1.91238763710029      0.95947070218244
  N   1.21209696957550     -0.42302313160077      1.19768967842361
  O   1.94086108900479      0.33315393719115      1.82995539186297
  O   0.98559282674618     -1.60661812441393      1.41278489550535
  C   1.25986574984636      1.19374140021509     -0.64625634312511
  N   1.86536568413094      2.01868131458194     -1.23223840279524
