11
Coordinates from ORCA-job run
  C   -0.80618130733627     -0.13244268243813     -0.01977899998929
  C   0.49762707064113      0.26106570201281      0.00589305028078
  C   -1.83371452560118      0.83284083650128      0.21845667000142
  N   -2.68663718298205      1.62345464964729      0.40972317090823
  C   -1.22593405333259     -1.47783019344795     -0.25267719119514
  N   -1.65891423452112     -2.56133278108687     -0.41691102730753
  N   1.59328931116364     -0.71510945070438     -0.18937064442808
  O   2.59474694524350     -0.51182536763393      0.48763500823940
  O   1.39476655502916     -1.62048399747026     -0.98890877584322
  C   0.90423002185292      1.59369900798409      0.27025132525606
  N   1.22672139984286      2.70896427663606      0.47668741407738
