11
Coordinates from ORCA-job run
  C   -0.80777584071350     -0.12714915341090     -0.02479432186361
  C   0.49802123834556      0.24491919288685      0.08449150132938
  C   -1.82977924858830      0.86701714029196      0.08204780649348
  N   -2.67777596185247      1.68045372823852      0.17228636409735
  C   -1.23392744936266     -1.46869858965261     -0.26790081652330
  N   -1.67179569453490     -2.53917818451506     -0.49323850805608
  N   1.58830486777139     -0.74608161681021     -0.06403403285149
  O   2.59237381068072     -0.33118176625818     -0.63173880790354
  O   1.38314262496950     -1.86771405767511      0.38122292040395
  C   0.91312873057567      1.58569662412140      0.28720507682324
  N   1.24708292270899      2.70091668278331      0.47445281805060
