11
Coordinates from ORCA-job run
  C   -0.78999558866768     -0.09438336458030     -0.19109200689067
  C   0.53122706762976      0.17979454615843     -0.00600543892288
  C   -1.43703658489689      0.35422002038646     -1.38464091890577
  N   -1.97704524983354      0.72910035436243     -2.36278260291426
  C   -1.58608269850644     -0.83249154304215      0.73736232835125
  N   -2.30703038688650     -1.44866822382412      1.43665729503133
  N   1.24865805364509     -0.30105934413395      1.19708973498488
  O   2.40901040578016     -0.64650807928541      1.00532174059048
  O   0.62251739666721     -0.31314127972146      2.24882439014968
  C   1.32182474802093      0.88350878456179     -0.94974692429357
  N   1.96395283704792      1.48862812911828     -1.73198759718046
