11
Coordinates from ORCA-job run
  C   -0.78984085941298     -0.09989372071434     -0.18790501662841
  C   0.48762268756901      0.23981235588455      0.14080121770886
  C   -1.84397133457995      0.83885588008994      0.04019852535489
  N   -2.71852608976717      1.60719644401448      0.22408077815854
  C   -1.15939293502598     -1.36631518744451     -0.73558713826587
  N   -1.55422707962385     -2.38966525677476     -1.16589861956045
  N   1.60201101005162     -0.71895444146967     -0.03682790760296
  O   2.46571021752434     -0.67696940386808      0.83192510880713
  O   1.55172915543973     -1.45309577891158     -1.01509830244884
  C   0.83898922498286      1.48586935374525      0.71965592425150
  N   1.12089600284238      2.53215975544873      1.18465543022559
