11
Coordinates from ORCA-job run
  C   -0.79901117251779     -0.10501293497374     -0.14242564825981
  C   0.49584450172732      0.24382851295954      0.09631635374902
  C   -1.82972039730092      0.87029313655556      0.03308804191653
  N   -2.68394675219191      1.66991666435436      0.17388899453392
  C   -1.20825326322466     -1.41339764921706     -0.54381440801374
  N   -1.63360201865254     -2.46729958700004     -0.85458634179971
  N   1.58933980201621     -0.74717953058330     -0.02876095746788
  O   1.48730790307788     -1.57668836047774     -0.92308517505521
  O   2.49038967724346     -0.63108528597170      0.79414999251417
  C   0.88851130849542      1.53638611715527      0.52787473882162
  N   1.20214041132753      2.62123891719883      0.86735440906108
