11
Coordinates from ORCA-job run
  C   -0.81386889630347     -0.12076741990151     -0.08743539405636
  C   0.48687639734561      0.20727903918625      0.14822095468784
  C   -1.22497815652141     -1.39511469880260     -0.58344846620321
  N   -1.64622383399363     -2.41197556400905     -1.00485659600917
  C   -1.82480668824777      0.85868666815856      0.15656255115700
  N   -2.62682769699493      1.69588965309807      0.36420042639047
  N   1.58722141435037     -0.72880389365016     -0.15632281972398
  O   2.55746896879763     -0.21746862307874     -0.70326170206904
  O   1.43090927351003     -1.90081359905396      0.16506856719957
  C   0.88747264033567      1.48055848764777      0.62979073974800
  N   1.18675657772190      2.53252995040538      1.07248173887889
