12
Coordinates from ORCA-job run
  C   -0.33756264413424     -0.66118167235025      0.07705675557234
  C   1.13815119829013     -0.25152907169276      0.07719109932039
  Br  -0.59306451870131     -1.95152324470362      1.52365608787044
  H   1.77898768631580     -1.13248986529272     -0.00845817603844
  H   -0.56407444336772     -1.21343347147746     -0.83668384484161
  H   1.38481302912471      0.24505207240496      1.02027199953146
  C   -1.28277102175115      0.51142326720144      0.25112303544630
  H   -2.31955230285002      0.17402218478912      0.26439481091822
  H   -1.15769386209323      1.21342098357602     -0.57791139385955
  H   -1.07894233041695      1.03405266982410      1.18819316248365
  C   1.42012553755326      0.65489939998582     -1.03701404625478
  N   1.61158367203071      1.37628674773535     -1.94281949014842
