16

C	-0.552143	-0.004226	-1.394326
C	0.0	0.0	0.0
Br	0.342388	1.501781	-2.423152
H	1.089309	0.0	0.0
H	-0.310701	0.961872	0.431494
N	-0.133542	-1.228114	-2.212824
O	-0.786754	-1.448454	-3.234225
O	0.811534	-1.891567	-1.814876
N	-1.960195	0.054745	-1.486777
H	-2.292023	0.85432	-0.963503
H	-2.26357	0.108111	-2.451042
C	-0.524402	-1.153813	0.850668
H	-1.616278	-1.193402	0.924486
H	-0.105536	-1.045763	1.854959
H	-0.161592	-2.105653	0.459688
F	2.65025	0.0	0.0
