16

C	-0.586413	0.089538	-1.382015
C	0.0	0.0	0.0
Br	0.302895	1.457471	-2.463281
H	1.089729	0.0	0.0
H	-0.346801	0.898723	0.523094
N	-0.274581	-1.263566	-2.09791
O	0.8784	-1.523929	-2.394146
O	-1.239209	-2.022885	-2.240174
N	-1.979344	0.367335	-1.405334
H	-2.351369	0.262144	-2.341889
H	-2.446909	-0.297649	-0.801569
C	-0.427991	-1.265028	0.745244
H	0.032041	-2.14502	0.287296
H	-0.026188	-1.19871	1.759044
H	-1.510989	-1.436557	0.820933
F	2.633056	0.0	0.0
