16

C	-0.048858	-0.152981	-1.506091
C	0.0	0.0	0.0
Br	-1.777573	-0.986946	-2.245952
H	1.098962	0.0	0.0
H	-0.451588	0.935892	0.318986
N	-0.176169	1.266596	-2.185047
O	-0.901281	2.10558	-1.663655
O	0.466626	1.438082	-3.217388
N	1.053905	-0.853349	-1.946373
H	1.215482	-0.756146	-2.938142
H	1.885852	-0.609173	-1.336983
C	-0.501301	-1.207975	0.769262
H	-0.054824	-2.117275	0.363149
H	-1.589697	-1.308326	0.733438
H	-0.191378	-1.123174	1.814751
F	2.735012	0.0	0.0
