16

C	-0.491383	0.003575	-1.421714
C	0.0	0.0	0.0
Br	0.230158	-1.481787	-2.467695
H	1.092291	0.0	0.0
H	-0.337625	0.951842	0.437405
N	-2.060153	-0.20331	-1.40225
O	-2.700899	0.84049	-1.237449
O	-2.556384	-1.323277	-1.446737
N	-0.169075	1.194992	-2.09748
H	-0.586569	1.238251	-3.018463
H	-0.442768	1.992878	-1.543279
C	-0.481634	-1.163315	0.854793
H	-1.558792	-1.149741	1.069655
H	-0.239531	-2.115609	0.377929
H	0.062478	-1.130309	1.804458
F	2.641305	0.0	0.0
