16

C	-0.04738	-0.172461	-1.502034
C	0.0	0.0	0.0
Br	-1.791734	-0.965669	-2.235954
H	1.09898	0.0	0.0
H	-0.452733	0.93913	0.306048
N	-0.124998	1.244556	-2.200558
O	0.516513	1.375938	-3.240273
O	-0.817432	2.1163	-1.690837
N	1.041133	-0.90937	-1.928218
H	1.875623	-0.656188	-1.328007
H	1.208748	-0.823112	-2.920136
C	-0.503413	-1.199627	0.78119
H	-0.199532	-1.10235	1.827272
H	-1.59174	-1.301787	0.740968
H	-0.053837	-2.112952	0.387754
F	2.731035	0.0	0.0
