16

C	-0.306222	-0.029892	-1.41309
C	0.0	0.0	0.0
Br	-2.619974	0.412688	-1.660713
H	1.094812	0.0	0.0
H	-0.347251	0.932198	0.438672
N	0.133357	1.197605	-2.182806
O	0.338075	1.052415	-3.386337
O	0.249409	2.241817	-1.561317
N	-0.048482	-1.140267	-2.133888
H	-0.365251	-1.997569	-1.71333
H	-0.204422	-1.052374	-3.125881
C	-0.45708	-1.2365	0.751218
H	-1.522114	-1.452779	0.606148
H	0.143201	-2.101674	0.450642
H	-0.272094	-1.097221	1.818356
F	2.529473	0.0	0.0
