16

C	-0.553201	-0.017988	-1.391842
C	0.0	0.0	0.0
Br	0.328551	1.492581	-2.426643
H	1.089285	0.0	0.0
H	-0.310176	0.9657	0.423977
N	-0.135723	-1.246871	-2.203231
O	0.797875	-1.920288	-1.794416
O	-0.783135	-1.464186	-3.229218
N	-1.961016	0.034609	-1.482382
H	-2.298431	0.828028	-0.95442
H	-2.267563	0.088451	-2.445321
C	-0.522706	-1.146638	0.862309
H	-0.163299	-2.101989	0.476711
H	-0.100339	-1.032692	1.864276
H	-1.61438	-1.184684	0.939529
F	2.642936	0.0	0.0
