16

C	-0.075681	-0.029104	-1.515851
C	0.0	0.0	0.0
Br	-1.84613	-0.707733	-2.244871
H	1.096305	0.0	0.0
H	-0.328627	-0.986954	0.333987
N	-0.059744	1.437818	-2.097681
O	-0.983062	2.196498	-1.819642
O	0.915869	1.737632	-2.783269
N	0.978889	-0.792741	-1.990847
H	1.161092	-0.643141	-2.972726
H	1.820912	-0.597555	-1.388287
C	-0.6564	1.115901	0.781631
H	-0.199496	2.081227	0.561255
H	-0.505314	0.920951	1.847372
H	-1.729919	1.195859	0.591514
F	2.712863	0.0	0.0
