14

C	0.0	0.0	0.0
C	-0.49034	-0.255104	-1.452106
Br	1.954649	0.0	0.0
H	0.066756	0.472812	-2.066106
H	-0.300648	0.997018	0.325794
C	-0.451621	-1.004597	0.952008
N	-0.755664	-1.806942	1.753933
N	-1.882759	-0.027597	-1.672906
H	-2.131254	0.95027	-1.607569
H	-2.519676	-0.509829	-1.036601
N	-0.205915	-1.640251	-1.784944
H	-0.739001	-1.855166	-2.617871
H	0.779087	-1.780985	-1.968058
Cl	-4.606365	0.0	0.0
