14

C	0.0	0.0	0.0
C	-0.553096	0.302295	-1.425113
Br	1.946933	0.0	0.0
H	0.307879	0.455398	-2.081413
H	-0.29367	0.80551	0.671805
C	-0.401708	-1.284639	0.563361
N	-0.630474	-2.335041	1.036918
N	-1.254087	1.580567	-1.32811
H	-2.137762	1.39781	-0.844483
H	-1.503839	1.872964	-2.26721
N	-1.264219	-0.863234	-1.92648
H	-2.142432	-0.938053	-1.408173
H	-1.512643	-0.683964	-2.893791
Cl	-3.823106	0.0	0.0
