14

C	0.0	0.0	0.0
C	-0.496797	0.281887	-1.445976
Br	1.958855	0.0	0.0
H	0.052468	-0.421474	-2.092563
H	-0.333656	0.797716	0.66496
C	-0.417125	-1.312506	0.474082
N	-0.698126	-2.394855	0.834675
N	-0.205457	1.682264	-1.726215
H	0.773159	1.807908	-1.951382
H	-0.764173	1.928923	-2.533857
N	-1.891777	0.070211	-1.662065
H	-2.519583	0.539552	-1.008557
H	-2.149892	-0.90659	-1.620532
Cl	-4.624192	0.0	0.0
