14

C	0.0	0.0	0.0
C	-0.524727	-0.386672	-1.441512
Br	1.95302	0.0	0.0
H	0.369476	-0.547331	-2.050923
H	-0.316219	1.009781	0.258063
C	-0.402376	-0.947271	1.031241
N	-0.61543	-1.75226	1.860134
N	-1.214798	0.785296	-1.946453
H	-1.480491	0.569289	-2.901852
H	-2.092485	0.850947	-1.425181
N	-1.324717	-1.591206	-1.522174
H	-0.842109	-2.379792	-1.104597
H	-2.19955	-1.434265	-1.018903
Cl	-3.771059	0.0	0.0
