14
Coordinates from ORCA-job run
  C   0.82385760291657     -0.40636225368037     -0.38290950573662
  C   -0.51897259788104      0.21777390738734     -0.03165409937245
  F   1.30606100234696     -1.13779981042180      0.64453935915723
  H   -0.82072888424108      0.82332840644040     -0.89176221139421
  H   0.75870402841472     -1.02532428643462     -1.28030031924799
  N   1.80969311744003      0.69201618203096     -0.71425477737863
  O   1.52429203836071      1.32517569208944     -1.72605828626999
  O   2.76449960234222      0.86096569526848      0.02751569034775
  C   -0.36254009177366      1.10878224324359      1.12100070239080
  N   -0.25627866314268      1.81350364307806      2.05365851607412
  C   -1.56235686126527     -0.86839047960923      0.24614685121813
  H   -1.68498337085705     -1.50347806429534     -0.63429848236214
  H   -2.52534682272942     -0.41327267780400      0.47958464344771
  H   -1.25590009993100     -1.48691819729292      1.08979191912631
