14
Coordinates from ORCA-job run
  C   0.93831242548507      0.55149438480704     -0.17586996900145
  C   -0.57082969293000      0.35715660807696     -0.19113803280305
  F   1.29387152569688      1.54141104786033     -1.03013700711713
  H   -0.85050161593933      0.24489139560616     -1.24476987158554
  H   1.35063746281326      0.74641226508381      0.81439344999234
  N   1.56596462110865     -0.73072598896880     -0.65505017905660
  O   1.41874012603149     -0.99811757055729     -1.84193975366357
  O   2.12071812499224     -1.41829102877475      0.19810471145224
  C   -1.19161143644771      1.57715887568041      0.32691151535011
  N   -1.69209558279691      2.54088377741800      0.77262637066770
  C   -1.00891121402291     -0.87347947177671      0.60927841429617
  H   -2.09733585091398     -0.92362503454567      0.64239232285989
  H   -0.63989875190647     -1.78665777461793      0.14059995718514
  H   -0.63406014117028     -0.82851148529157      1.63359807142376
