14
Coordinates from ORCA-job run
  C   0.78990550300299      0.58128885655886     -0.50210224165919
  C   -0.64060910236282      0.12959038101758     -0.24810368820660
  F   0.89176702749943      1.15905411515852     -1.72341178388185
  H   -0.92624920623028     -0.47609671759510     -1.11564191702312
  H   1.18607771686812      1.24995118646108      0.26241140217045
  N   1.66279433452964     -0.64609056641907     -0.48908295655805
  O   2.38441881131921     -0.79181401276686      0.49388901836621
  O   1.53563178670872     -1.41432512938466     -1.43521179103063
  C   -1.49356491677460      1.31835605965377     -0.21060809021368
  N   -2.17709011161550      2.27032805356456     -0.14511841237375
  C   -0.77388811026877     -0.69046600570275      1.03915806596162
  H   -0.39017446688475     -0.13648694796567      1.89812776460147
  H   -1.82338996184889     -0.92359405006455      1.21979348314299
  H   -0.22562930394251     -1.62969522251571      0.95490114670413
