14
Coordinates from ORCA-job run
  C   0.89208944015025     -0.39066245735587     -0.20991860393602
  C   -0.53268341403305      0.13692165185290     -0.12175545954637
  F   1.34950244836656     -0.76874454878489      1.00310467388207
  H   -0.81425788694554      0.45496233539213     -1.13024861943030
  H   0.97104096090527     -1.22364074024212     -0.91179318478857
  N   1.78888654142443      0.69569719666968     -0.76073745484217
  O   2.64970005160766      1.16469669314234     -0.03309845552749
  O   1.53417967396304      1.00810021574316     -1.91977801525308
  C   -0.57221770452722      1.31116422053170      0.75381167337789
  N   -0.62487153250342      2.24337768246467      1.46522947339317
  C   -1.48287331494104     -0.95595773875499      0.37634538658095
  H   -2.50463720545989     -0.57712524340802      0.41345331359080
  H   -1.45660330408002     -1.81260919458213     -0.30094241988098
  H   -1.19725475392703     -1.28518007266856      1.37532769238012
