14
Coordinates from ORCA-job run
  C   0.83108544661786     -0.40284586750563     -0.37309861106113
  C   -0.52338615386318      0.20486954109987     -0.03821971274080
  F   1.33213140987969     -1.08814811940149      0.67691111064787
  H   -0.84120211237269      0.77253446652822     -0.91817658366208
  H   0.77587108076874     -1.05378115785204     -1.24828258118525
  N   1.79217739288565      0.70427110326119     -0.74571301284478
  O   1.48988025027402      1.29669767227710     -1.77701650201758
  O   2.74501902279767      0.91900663936530     -0.01325551208191
  C   -0.38212184611315      1.14067473153518      1.08056775261890
  N   -0.28943811814016      1.88165922932273      1.98626292212684
  C   -1.54221360134372     -0.89194469470793      0.28459976613089
  H   -2.51456941155266     -0.44932657485343      0.50252137585597
  H   -1.65253320966079     -1.56418235973061     -0.56934225800473
  H   -1.22070015017726     -1.46948460933844      1.15124184621779
