14
Coordinates from ORCA-job run
  C   0.61450551756526      0.04628003897816     -1.00649520960862
  C   -0.73190145277502      0.16471214060253     -0.29430232246105
  F   0.65292115184705     -1.12491306465529     -1.68577854701462
  H   -1.47585056815591     -0.03963182777883     -1.07364278291445
  H   0.82481270965599      0.87553095862978     -1.68271706164936
  N   1.72230487031939      0.04398709351343      0.01858240314518
  O   2.23424378488145     -1.02743351687967      0.31040098233121
  O   1.96727186903319      1.14566192419240      0.49950669618897
  C   -0.96326324017321      1.52756238093638      0.18462552697020
  N   -1.19509145033443      2.60852797475154      0.57961979206913
  C   -0.88137098174080     -0.86461418384114      0.83059673765398
  H   -0.63498739117380     -1.86023596210591      0.46013876220833
  H   -0.22407549745725     -0.62625232815850      1.66794638330659
  H   -1.90951932149190     -0.86718162818488      1.19351863977450
