16

C	0.0	0.0	0.0
C	-0.186438	-0.07395	-1.577235
Cl	1.796525	0.0	0.0
H	0.270016	-1.006308	-1.903901
N	-0.564434	1.041064	0.722348
H	-0.368828	1.929786	0.274929
H	-1.58903	0.873105	0.729658
N	-0.425741	-1.342009	0.614451
O	-0.414611	-2.311384	-0.1338
O	-0.657074	-1.340041	1.81121
C	0.502025	1.064753	-2.188534
N	1.045911	1.960869	-2.719301
N	-1.561766	-0.079054	-2.223225
O	-2.064019	1.013329	-2.448029
O	-1.979668	-1.177361	-2.563253
Cl	-3.464227	0.0	0.0
