9
Coordinates from ORCA-job run
  C   -0.98764400079050     -0.26607430597969      0.03328486784183
  C   0.32368503145209      0.50854401376344      0.19622419068533
  H   -1.19828981596000     -0.45401109059504     -1.02016504781309
  H   0.26481167380259      1.47683677545478     -0.30783523141569
  H   -0.93738197468034     -1.22575577992272      0.54896931960710
  H   -1.81453769706609      0.30893648457254      0.45358362119463
  H   0.52416466338394      0.70970678852639      1.25191279926396
  C   1.46412806280697     -0.22539685306893     -0.35437717521330
  N   2.36206405705134     -0.83278603275078     -0.80259734415078
