9
Coordinates from ORCA-job run
  C   -0.98634214542409     -0.26080256819901      0.08063680527428
  C   0.32664827230347      0.52573619360246      0.13696818589925
  H   -0.92544973051771     -1.16087665794634      0.69331103050288
  H   0.54889478997956      0.83293943605146      1.16241789483720
  H   -1.21621362994750     -0.55837224515633     -0.94302422406004
  H   -1.80610315504941      0.35562793917313      0.45314226845456
  H   0.25591612645992      1.43797133901280     -0.46148347123003
  C   1.45696038468655     -0.26059693894610     -0.35976151859063
  N   2.34668908750921     -0.91062649759208     -0.76220697108747
