17

C	0.0	0.0	0.0
C	-0.448035	-0.093438	-1.446336
F	1.415983	0.0	0.0
H	-0.176893	0.850561	-1.947666
H	-1.539192	-0.173233	-1.438987
C	-0.457241	1.301666	0.620464
H	-0.058303	2.151486	0.058754
H	-0.099982	1.368925	1.652034
H	-1.549975	1.337083	0.614021
C	-0.450841	-1.198674	0.805118
H	-0.034982	-1.142097	1.815378
H	-1.54256	-1.196854	0.85872
H	-0.112804	-2.115092	0.320757
N	0.133898	-1.272606	-2.094527
H	-0.280754	-1.382698	-3.010979
H	1.124851	-1.109191	-2.21895
Br	-4.139331	0.0	0.0
