17

C	0.0	0.0	0.0
C	-0.438084	0.21337	-1.445422
F	1.413901	0.0	0.0
H	-1.53068	0.259147	-1.456595
H	-0.053819	1.189987	-1.762755
C	-0.452414	1.156085	0.866476
H	-0.085931	1.02837	1.889219
H	-1.544811	1.192884	0.874246
H	-0.055966	2.096173	0.47074
C	-0.454339	-1.329418	0.561023
H	-0.063396	-1.456683	1.574557
H	-0.084967	-2.154357	-0.052827
H	-1.547137	-1.349155	0.585401
N	0.024362	-0.794565	-2.399677
H	-0.551235	-1.621968	-2.317171
H	0.973517	-1.05397	-2.156305
Br	-4.083019	0.0	0.0
