15

C	0.0	0.0	0.0
C	-0.477237	0.131184	-1.508782
Br	1.947903	0.0	0.0
H	0.383101	-0.206703	-2.094511
H	-0.309438	-0.966576	0.396733
C	-0.425525	1.057716	0.907076
N	-0.626182	1.948404	1.648482
C	-0.758648	1.5882	-1.847058
H	0.08225	2.238528	-1.582954
H	-0.949241	1.663523	-2.919449
H	-1.652668	1.910593	-1.310211
N	-1.614819	-0.675982	-1.863162
H	-2.39318	-0.433563	-1.190508
H	-1.394299	-1.656183	-1.703808
H	-3.28219	0.0	0.0
