15

C	0.0	0.0	0.0
C	-0.517816	0.059146	-1.467892
Br	1.948165	0.0	0.0
H	0.344072	-0.170004	-2.102375
H	-0.306712	-0.954658	0.426281
C	-0.415132	1.092748	0.872271
N	-0.618076	1.983752	1.611364
C	-1.033054	1.453083	-1.835739
H	-1.2918	1.46162	-2.90011
H	-1.935856	1.654098	-1.257393
H	-0.283567	2.233514	-1.658847
N	-1.48527	-1.021331	-1.619753
H	-1.815805	-1.002244	-2.581877
H	-2.304895	-0.743944	-1.019073
H	-3.306651	0.0	0.0
