15

C	0.0	0.0	0.0
C	-0.577461	-0.021112	-1.397176
Cl	1.763989	0.0	0.0
H	-1.6914	-0.084632	-1.206306
H	-0.348307	0.944468	-1.859469
C	-0.48067	1.192975	0.790187
H	-1.579381	1.154621	0.781652
H	-0.106754	2.099799	0.307588
H	-0.084726	1.139094	1.803866
N	-0.398221	-1.285937	0.739679
O	-0.799554	-2.227249	0.070029
O	-0.228617	-1.290471	1.953935
C	-0.068394	-1.07573	-2.261723
N	0.343784	-1.886938	-3.00553
H	-3.079403	0.0	0.0
