15

C	0.0	0.0	0.0
C	-0.631573	0.004553	-1.373917
Cl	1.776979	0.0	0.0
H	-0.357401	-0.884358	-1.942522
H	-1.748174	-0.023574	-1.108978
C	-0.50222	1.147899	0.838874
H	-0.207484	2.08563	0.364037
H	-0.089278	1.099963	1.844788
H	-1.599971	1.050001	0.850218
N	-0.387059	-1.326968	0.670901
O	-0.48753	-2.309043	-0.054595
O	-0.492261	-1.330366	1.890115
C	-0.293488	1.207176	-2.109671
N	-0.032141	2.181792	-2.713222
H	-3.097165	0.0	0.0
