15

C	0.0	0.0	0.0
C	-0.612612	0.046796	-1.383061
Cl	1.765044	0.0	0.0
H	-0.328045	-0.829179	-1.966763
H	-1.730489	0.017855	-1.142437
C	-0.508373	1.12013	0.86993
H	-0.108609	1.036992	1.878951
H	-1.60649	1.027552	0.862722
H	-0.199395	2.07044	0.42929
N	-0.379235	-1.352332	0.624851
O	-0.473668	-2.311982	-0.131843
O	-0.469187	-1.397577	1.844768
C	-0.237739	1.260543	-2.082372
N	0.061595	2.241295	-2.657826
H	-3.079953	0.0	0.0
