15

C	0.0	0.0	0.0
C	-0.658942	-0.077492	-1.356836
Cl	1.765948	0.0	0.0
H	-1.762736	-0.203074	-1.07423
H	-0.57237	0.902945	-1.83163
C	-0.527075	1.200497	0.745425
H	-0.238474	2.10504	0.20586
H	-0.125057	1.232077	1.75644
H	-1.625184	1.088449	0.750686
N	-0.362162	-1.265444	0.798834
O	-0.630506	-2.275407	0.161816
O	-0.293649	-1.186681	2.019944
C	-0.15998	-1.085858	-2.27408
N	0.214619	-1.849054	-3.086154
H	-3.119079	0.0	0.0
