15

C	0.0	0.0	0.0
C	-0.680044	0.059502	-1.343228
Cl	1.776319	0.0	0.0
H	-1.805647	0.008408	-1.00828
H	-0.433748	-0.804245	-1.961687
C	-0.493027	1.097742	0.90862
H	-0.221395	2.060836	0.471848
H	-0.056604	1.007195	1.90158
H	-1.588631	0.991541	0.939938
N	-0.350419	-1.366886	0.618606
O	-0.426894	-1.428208	1.839257
O	-0.442856	-2.319258	-0.147315
C	-0.403804	1.293819	-2.042747
N	-0.212836	2.300063	-2.62227
H	-3.054079	0.0	0.0
