15

C	0.0	0.0	0.0
C	-0.683111	0.002201	-1.342519
Cl	1.775725	0.0	0.0
H	-1.809732	-0.034951	-1.00059
H	-0.440552	-0.886821	-1.924399
C	-0.493523	1.134218	0.861376
H	-1.589126	1.029898	0.896792
H	-0.057959	1.085687	1.85748
H	-0.221606	2.07793	0.384681
N	-0.350283	-1.340716	0.674009
O	-0.445551	-1.349895	1.894938
O	-0.423216	-2.32692	-0.050329
C	-0.411168	1.207539	-2.091913
N	-0.21138	2.200979	-2.690022
H	-3.051943	0.0	0.0
