15

C	0.007997	0.074652	0.01123
C	-0.554427	-0.022338	-1.395243
F	1.401747	-0.183481	-0.051393
H	-0.429075	-1.069947	-1.683634
H	-1.631576	0.153165	-1.337321
C	-0.049654	1.478225	0.513538
N	-0.10364	2.576204	0.928132
N	-0.599376	-0.866598	0.864994
H	-1.583771	-1.031997	0.61549
H	-0.535111	-0.602311	1.838373
C	0.1318	0.906154	-2.387775
H	1.207646	0.723608	-2.416495
H	-0.030602	1.955869	-2.129271
H	-0.270678	0.745501	-3.390937
Cl	-3.702831	-1.130823	-0.033219
