15

C	0.07569	0.063663	0.028695
C	-0.415404	0.049101	-1.410647
F	1.469654	-0.202147	0.022405
H	0.177254	0.78679	-1.960903
H	-1.462482	0.363545	-1.409276
C	0.003272	1.447081	0.58238
N	-0.063914	2.530974	1.030665
N	-0.578062	-0.90229	0.814698
H	-0.555118	-0.684792	1.800824
H	-1.54683	-1.063876	0.510031
C	-0.29618	-1.333616	-2.0428
H	-1.033073	-2.008463	-1.610321
H	-0.492609	-1.264988	-3.116315
H	0.705484	-1.742456	-1.895867
Cl	-3.601195	-1.228781	-0.280919
