16
Coordinates from ORCA-job run
  C   -0.59539956093365     -0.29454489381719     -0.45031693480080
  C   0.79173385282434      0.23446969664258     -0.08512960677300
  H   -0.47170761515879     -1.03111150819126     -1.24510107917491
  H   1.09300267708774      1.11459586132045     -0.64853467098807
  N   -1.34036311278242      0.86905068348862     -1.13861442120906
  O   -0.74266019858807      1.41249729413513     -2.06012367920700
  O   -2.44956688368836      1.16057954932821     -0.71120514073173
  N   -1.27940367145748     -0.86629794928746      0.64231578982143
  H   -1.74848440144314     -0.16425004092529      1.20158670701480
  H   -1.95024471025347     -1.55832069960619      0.34312697120655
  N   1.86014633056391     -0.79313515742732     -0.27351117836900
  O   2.99843211864342     -0.34231842100303     -0.35798014573941
  O   1.52390863835972     -1.97143770626132     -0.33030619378127
  N   0.78675130376123      0.63035973165418      1.36433428362255
  O   1.51801296479278      0.05339881089515      2.15134311241494
  O   0.00584226827224      1.54646474905474      1.59911618669398
