16
Coordinates from ORCA-job run
  C   -0.75749158485590     -0.35586575338163     -0.39972806357540
  C   0.64779782345107     -0.42580662790050      0.20870275966077
  H   -0.74263062384025     -1.02441051599148     -1.26443210013473
  H   0.82136834823719     -1.43522608660630      0.58231831079467
  N   -0.99426744346088      1.03136303438863     -0.99174519544855
  O   -0.11635574076589      1.40639322184330     -1.76319285754351
  O   -2.00730791338689      1.63328180362814     -0.68440443215017
  N   -1.82425841919968     -0.70107738081081      0.46480553894233
  H   -1.85501723450302     -0.15411685823954      1.31260660618461
  H   -1.88533136261696     -1.69160676557051      0.64451496225965
  N   0.83900365193737      0.48889324159244      1.37275373359775
  O   0.11256347786681      1.47761959969396      1.43780602020467
  O   1.71738725896426      0.16349404411506      2.16355358471490
  N   1.75546531150466     -0.17859287610104     -0.78681648424627
  O   1.79317675039829     -1.00944269825322     -1.68430153254901
  O   2.49589770026983      0.77510061759349     -0.61244085071170
