16
Coordinates from ORCA-job run
  C   -0.68234015795751     -0.18377291599763     -0.55448582278074
  C   0.74373323198605      0.23965297904159     -0.18067678263556
  H   -0.62864471452266     -0.63356410262656     -1.54383446336816
  H   1.17111451505082      0.91898273975465     -0.92032970137841
  N   -1.47341265546083      1.09468864652900     -0.75540232897736
  O   -2.10120945136749      1.20188124595280     -1.80246590609251
  O   -1.44862468120305      1.90013717906307      0.17253752738322
  N   -1.39113421919032     -1.03000817314790      0.33042559772540
  H   -1.33551309188845     -2.00127088852460      0.06870397727375
  H   -1.16551181872165     -0.88089932741776      1.30252975052268
  N   1.62766002780244     -0.98976104417690     -0.16477005994777
  O   1.43999618794099     -1.77707523728982     -1.08487035579638
  O   2.47157973863226     -1.07209101376130      0.71583930108976
  N   0.88171739661462      0.91092520667198      1.14661781224583
  O   1.50076687136064      1.96767309017500      1.15596626801074
  O   0.39082282092413      0.33550161575437      2.11221518672552
