16
Coordinates from ORCA-job run
  C   -0.61608517896257     -0.24183080610282     -0.53671240073026
  C   0.82268686264189      0.15326956090248     -0.23548173980069
  H   -0.62021287890013     -0.67285248330672     -1.54138918756482
  H   1.29218809759663      0.69120568157792     -1.05430454289774
  N   -1.40129880732307      1.08007112419030     -0.70266128866740
  O   -0.81491432696520      1.98722461861160     -1.28691450461381
  O   -2.55048811898664      1.09879716813815     -0.28767919558891
  N   -1.15163600108138     -1.15475699742744      0.38655965567299
  H   -1.29504906693437     -0.73411269972144      1.29402240222677
  H   -2.00753960775832     -1.57341035201649      0.05398045497043
  N   1.59899890721472     -1.11561043057606     -0.01635708543963
  O   1.95493702069071     -1.38817960925183      1.11966801040178
  O   1.76585275685511     -1.77353593449333     -1.03500508452080
  N   0.96555444959061      1.00662876337148      0.98271412075431
  O   2.04212407106982      1.57875704859516      1.09755962087832
  O   0.01588182125219      1.05633534750905      1.76100076491946
