14

C	0.0	0.0	0.0
C	-0.32128	-0.026343	-1.514416
F	1.3512	0.0	0.0
H	0.373688	-0.78931	-1.880107
C	-0.479513	1.146225	0.767242
N	-0.691361	2.160973	1.321932
N	-0.379684	-1.308937	0.646111
O	-0.325006	-2.296494	-0.092672
O	-0.540691	-1.315021	1.85618
C	0.11957	1.241735	-2.095584
N	0.460131	2.2492	-2.590122
C	-1.66612	-0.344314	-2.040797
N	-2.574646	-0.453607	-2.780971
F	-2.245385	0.0	0.0
