14

C	0.0	0.0	0.0
C	-0.278229	-0.001855	-1.532253
F	1.351298	0.0	0.0
H	0.49079	-0.683739	-1.918509
C	-0.454569	1.169632	0.747066
N	-0.660287	2.225417	1.222434
N	-0.400379	-1.303378	0.627699
O	-0.522708	-1.323201	1.839684
O	-0.404942	-2.273901	-0.121273
C	0.073787	1.324301	-2.061366
N	0.395248	2.358492	-2.51742
C	-1.548553	-0.427645	-2.134367
N	-2.498565	-0.561285	-2.822167
F	-2.190958	0.0	0.0
