14

C	0.0	0.0	0.0
C	-0.459327	0.035957	-1.493674
F	1.345827	0.0	0.0
H	-0.955282	0.998946	-1.631144
C	-0.486322	1.147785	0.762821
N	-0.557479	2.156253	1.365366
N	-0.345297	-1.298351	0.701213
O	-0.564288	-1.250204	1.901552
O	-0.204871	-2.30871	0.02103
C	-1.426994	-0.979756	-1.923307
N	-2.067903	-1.763655	-2.519058
C	0.706536	-0.033265	-2.401754
N	1.597528	-0.093378	-3.164475
F	-2.245918	0.0	0.0
