17

C	0.0	0.0	0.0
C	-0.557704	-0.079799	-1.447923
F	1.355601	0.0	0.0
H	-1.607264	-0.367235	-1.279548
N	-0.313254	1.415723	0.566695
O	0.328187	2.333966	0.048237
O	-1.086598	1.534621	1.500474
N	-0.536856	-0.928039	0.905113
H	-0.389675	-1.84757	0.500032
H	-1.56756	-0.714839	0.815205
N	0.203151	-1.223127	-2.071384
O	1.116309	-0.964049	-2.849951
O	-0.114162	-2.364141	-1.722146
N	-0.478732	1.054353	-2.308534
H	0.363411	1.586074	-2.135329
H	-1.276772	1.638484	-2.095675
F	-2.790023	0.0	0.0
