17

C	0.0	0.0	0.0
C	-0.491466	0.008332	-1.454118
F	1.383474	0.0	0.0
H	-1.589656	0.110478	-1.319768
N	-0.32458	1.418624	0.566224
O	-1.076938	2.168485	-0.035626
O	0.249761	1.675907	1.620121
N	-0.565413	-0.906483	0.89762
H	-1.60439	-0.710099	0.734311
H	-0.378068	-1.847487	0.572565
N	-0.237524	-1.3882	-2.025066
O	-0.881202	-2.332132	-1.569699
O	0.608565	-1.502719	-2.918771
N	0.151946	1.006291	-2.240974
H	-0.460471	1.30261	-2.986091
H	1.001716	0.633813	-2.638767
F	-2.790745	0.0	0.0
