17

C	0.0	0.0	0.0
C	-0.319137	-0.002686	-1.535988
F	1.358292	0.0	0.0
H	0.553748	-0.517394	-1.952569
N	-0.347143	1.341959	0.718865
O	-0.00217	1.368428	1.900572
O	-0.932998	2.237226	0.130594
N	-0.578829	-1.073427	0.661722
H	-0.352599	-0.991448	1.648014
H	-1.608971	-0.91653	0.522388
N	-0.057982	1.434898	-2.135606
O	1.028789	1.957474	-1.903054
O	-0.906206	1.889655	-2.894744
N	-1.512949	-0.581087	-1.94972
H	-2.301425	-0.273515	-1.322448
H	-1.667108	-0.404445	-2.931183
F	-2.921618	0.0	0.0
