15

C	0.0	0.0	0.0
C	-0.316664	0.106365	-1.503029
F	1.414529	0.0	0.0
H	0.025723	-0.869246	-1.883572
C	-0.364268	1.230371	0.744789
N	-0.476138	2.199373	1.39922
N	-0.473734	-1.21777	0.549135
H	-0.228263	-1.235101	1.534145
H	-1.509838	-1.048213	0.463704
N	0.442493	1.236412	-2.051192
H	1.426503	1.004582	-2.037619
H	0.149629	1.379628	-3.008678
C	-1.711082	0.268304	-1.955003
N	-2.490117	0.43962	-2.825881
F	-2.602457	0.0	0.0
