15

C	0.0	0.0	0.0
C	-0.511298	0.068366	-1.451518
F	1.36772	0.0	0.0
H	-1.589097	0.265618	-1.301202
C	-0.364565	1.265434	0.708766
N	-0.523613	2.237531	1.348712
N	-0.548317	-1.161555	0.612215
H	-0.301038	-1.154243	1.596754
H	-1.585757	-0.942204	0.513894
N	-0.238904	-1.205545	-2.135373
H	-0.210403	-1.904477	-1.39716
H	-1.055402	-1.419749	-2.697323
C	0.146074	1.169172	-2.163791
N	0.632097	2.048406	-2.772591
F	-2.765952	0.0	0.0
