15

C	0.0	0.0	0.0
C	-0.43012	0.108418	-1.491455
F	1.401448	0.0	0.0
H	0.513536	0.258915	-2.02846
C	-0.335458	1.253386	0.736716
N	-0.463188	2.183843	1.442528
N	-0.497355	-1.172871	0.618999
H	-0.261484	-1.138575	1.605946
H	-1.530728	-1.022141	0.518195
N	-1.296159	1.250232	-1.727693
H	-1.542733	1.267202	-2.711412
H	-2.134114	1.010855	-1.160893
C	-0.979217	-1.174496	-1.987795
N	-1.390566	-2.12237	-2.546863
F	-2.715585	0.0	0.0
