15

C	0.0	0.0	0.0
C	-0.334283	-0.238199	-1.526009
F	1.379596	0.0	0.0
H	0.55119	0.176639	-2.020876
C	-0.357707	1.417837	0.314601
N	-0.53744	2.54167	0.605796
N	-0.576021	-0.957379	0.855997
H	-1.605246	-0.805208	0.668383
H	-0.389184	-0.69672	1.819489
N	-1.505612	0.356024	-2.128639
H	-1.329011	1.351859	-2.191316
H	-2.270672	0.230198	-1.425011
C	-0.289195	-1.687106	-1.794081
N	-0.19885	-2.820802	-2.08473
F	-2.847327	0.0	0.0
