15

C	0.0	0.0	0.0
C	-0.439437	-0.072249	-1.490944
F	1.39517	0.0	0.0
H	0.500618	-0.008558	-2.050425
C	-0.338121	1.331708	0.583659
N	-0.457907	2.333267	1.186054
N	-0.495311	-1.09083	0.758623
H	-1.528359	-0.955827	0.639242
H	-0.267583	-0.925799	1.734349
N	-1.287887	1.049725	-1.859452
H	-1.535491	0.952914	-2.83826
H	-2.127719	0.883556	-1.271135
C	-1.021284	-1.391273	-1.823485
N	-1.442326	-2.391671	-2.274791
F	-2.71253	0.0	0.0
