15

C	0.0	0.0	0.0
C	-0.284258	0.407996	-1.46916
F	1.41367	0.0	0.0
H	0.462631	-0.181305	-2.011769
C	-0.387532	1.060378	0.962765
N	-0.518114	1.906393	1.768527
N	-0.456494	-1.308896	0.288421
H	-0.192335	-1.53189	1.242078
H	-1.494572	-1.133235	0.255145
N	-0.006415	1.818273	-1.738467
H	0.896731	2.035712	-1.330241
H	-0.702693	2.383667	-1.259856
C	-1.571325	0.049339	-2.082091
N	-2.349359	-0.204169	-2.927444
F	-2.554595	0.0	0.0
