15

C	0.0	0.0	0.0
C	-0.401154	0.123848	-1.522511
F	1.375051	0.0	0.0
H	0.538947	0.43467	-1.993411
C	-0.353062	1.291382	0.667917
N	-0.5528	2.321896	1.195387
N	-0.537121	-1.147955	0.622073
H	-1.568343	-0.986168	0.484026
H	-0.339522	-1.105483	1.616893
N	-1.444655	1.0478	-1.913898
H	-1.128002	1.985324	-1.690111
H	-2.229436	0.80676	-1.271426
C	-0.70217	-1.210984	-2.06719
N	-0.89533	-2.234303	-2.607142
F	-2.772781	0.0	0.0
