14

C	-0.473497	0.040099	-1.436875
C	0.0	0.0	0.0
F	-0.525039	1.312084	-1.89942
H	1.091651	0.0	0.0
H	-1.435607	-0.446891	-1.585352
N	0.497785	-0.725634	-2.329628
O	0.78486	-0.225411	-3.410663
O	0.85397	-1.815694	-1.908294
N	-0.469354	-1.185272	0.70947
O	-1.146463	-2.035103	0.106127
O	-0.092025	-1.280769	1.882245
C	-0.406194	1.170831	0.740295
N	-0.699718	2.137692	1.340825
H	2.391483	0.0	0.0
