12
Coordinates from ORCA-job run
  C   0.75142401536262     -0.47533588491448      0.30102105890679
  C   -0.39098448775356     -0.54425270178608     -0.68484433787814
  Cl  0.33313252175057     -1.17200022244344      1.84990400786609
  H   -0.11254950357896     -0.04253578760193     -1.61204127039530
  H   1.60150044896259     -1.02338379607889     -0.10854072012191
  H   -0.67166585006033     -1.57779676130251     -0.87653596783147
  N   1.26969925741780      0.95695315831042      0.42855558371700
  O   1.54369220541257      1.46013619321173     -0.65525264883935
  O   1.41640066530718      1.45039694974644      1.53028670121315
  N   -1.61347796427842      0.14499596760185     -0.17160644689894
  O   -2.69171212959175     -0.37059603720485     -0.44332513821047
  O   -1.43645917895031      1.19241892246175      0.44237917847254
