14
Coordinates from ORCA-job run
  C   -0.49101997596707      0.21425653437088     -0.24182191520120
  C   0.76603136245184     -0.63088597166776      0.01024149686398
  Br  -1.01582115242452      0.04748226005301     -2.12399605584063
  H   0.53655083849695     -1.65273932638296     -0.30260946598354
  H   0.91333281051620     -0.64134420069772      1.10218736983255
  C   -1.65589727966942     -0.23747698117443      0.63221348434727
  H   -1.87650690421182     -1.28814930018820      0.43343549350599
  H   -2.54855842264620      0.35263607281385      0.42504017680729
  H   -1.39132069534165     -0.11889793490725      1.68673273497494
  C   -0.17517103489098      1.61914458021272      0.00505427306849
  N   0.10131933137466      2.72986139972868      0.27250234960923
  N   1.90094437182536     -0.13593659643360     -0.74091045700420
  H   2.57120086881457     -0.87184702249138     -0.91201013389709
  H   2.36691588167209      0.61189648676415     -0.24405935108307
