14
Coordinates from ORCA-job run
  C   -0.43628384828578      0.29761919098198     -0.15899764347605
  C   0.79477558151188     -0.59275354398128      0.02668756442711
  Br  -0.68923706535613      0.60583357399029     -2.09181066012463
  H   0.88243859095828     -0.77757007017951      1.10318116863259
  H   0.57462812000941     -1.55386393367892     -0.46136710150731
  C   -1.69799967532491     -0.35928468705009      0.38761425769276
  H   -1.58302198146709     -0.51893908040762      1.46366880430885
  H   -2.57004541898352      0.27250012861161      0.21842894965677
  H   -1.85868828879000     -1.32090580080507     -0.10316549771813
  C   -0.21994957160064      1.60006868005085      0.46444299978592
  N   -0.09656009067854      2.62332805099114      1.02857552544272
  N   2.00132909681591      0.07054336679497     -0.42533423212100
  H   2.81831540572858     -0.36425907155104     -0.01857455500136
  H   2.08029914546256      0.01668319623270     -1.43234957999824
