14
Coordinates from ORCA-job run
  C   -0.55956182435100      0.23560639944445     -0.41582092859145
  C   0.76062417906965     -0.53327302154910     -0.59501165148758
  Br  -1.60960818596263      0.00202592535248     -2.06165025557494
  H   0.50741501664207     -1.59349418353727     -0.67939450511794
  H   1.21945770320758     -0.22267281046164     -1.54207591362384
  C   -1.36907017223710     -0.26497778286844      0.77185301537719
  H   -0.76115694004529     -0.16182604787912      1.67141169022888
  H   -1.61747736630477     -1.31789121283466      0.62296031855990
  H   -2.29321972465597      0.30340953136777      0.88080450819757
  C   -0.26352615452855      1.66029692011519     -0.28445678126452
  N   0.02922311171849      2.79044266376258     -0.14696184838750
  N   1.59051091493788     -0.32177574866032      0.58172225778667
  H   2.13994426282553      0.52243311666561      0.48251596803149
  H   2.22644517968412     -1.09630374891754      0.71410412586609
