14
Coordinates from ORCA-job run
  C   -0.54237712773284      0.24944915184720     -0.42997774257339
  C   0.76825006042181     -0.54172453688900     -0.57868533505112
  Br  -1.54986317523061      0.04839762118356     -2.10640917333524
  H   1.25966052362048     -0.23062683854796     -1.50897046122280
  H   0.49951084411687     -1.59650960337737     -0.68102601310795
  C   -1.39389811107272     -0.24547830421697      0.73025902606108
  H   -1.65783534765230     -1.29220246582491      0.56511386677209
  H   -0.80965622437597     -0.16127519846205      1.64729986411560
  H   -2.30990586694188      0.33940415402224      0.81864151852900
  C   -0.22536159849353      1.66767086879896     -0.27796489152113
  N   0.07286142341917      2.79359568757382     -0.11943369974228
  N   1.56810587510360     -0.35516585005243      0.62273928812738
  H   2.17508659666910     -1.14867864807565      0.77594956607371
  H   2.14542212814880      0.47214396202053      0.54246418687514
