14
Coordinates from ORCA-job run
  C   -0.43810056975659      0.19640355240505     -0.16101284921247
  C   0.81389840286670     -0.68908346516566      0.03957196296413
  Br  -0.95103142090529      0.13361485326350     -2.06182554402434
  H   0.53981745191607     -1.70549530557927     -0.25825509423745
  H   1.01020916850587     -0.70318612465792      1.11807847793847
  C   -1.61351105373948     -0.28600420416356      0.67866924607859
  H   -1.34728735375833     -0.23106081931520      1.73812627067326
  H   -2.49900877605327      0.32619516246225      0.50640612998885
  H   -1.84546031418077     -1.32157741777692      0.42233987196826
  C   -0.10387744557408      1.58321203359992      0.14750151277626
  N   0.18637589216581      2.67962670209922      0.45713036250170
  N   2.02506149310092     -0.30499745509619     -0.64041298663610
  H   2.33619308319657      0.61161407539722     -0.34382627468206
  H   1.88672144221588     -0.29026158747245     -1.64249108609710
