14
Coordinates from ORCA-job run
  C   -0.39406654375519      0.39125358350951     -0.32326127298705
  C   1.11731750383687      0.04553515579960     -0.26916539328382
  Br  -1.15754274731590     -0.38976213825418     -1.96415606392682
  H   1.52501769646172      0.58100592118507      0.59589552099833
  H   1.59037977239105      0.46313190637509     -1.16119007956225
  C   -1.16909385795942     -0.14202965655011      0.87402408455846
  H   -2.22097029961318      0.13751861376322      0.81389724623735
  H   -1.10261484744707     -1.22983441059226      0.90817096340790
  H   -0.74492823470123      0.27560797214194      1.79234171656592
  C   -0.54283489853404      1.83882238541041     -0.42754406304755
  N   -0.62869644923815      3.01102947503972     -0.45861776219685
  N   1.47211547455441     -1.34711332491913     -0.15854491992003
  H   1.10146829681827     -1.88273743074162     -0.93239930529359
  H   1.15244913450185     -1.75342805216724      0.70954932845000
