14
Coordinates from ORCA-job run
  C   -0.42074128542450      0.25495913010687     -0.13655071344678
  C   0.80186993677023     -0.69280351012485     -0.09037114023478
  Br  -0.70100988416987      0.82401835120035     -2.00135097567522
  H   0.56691809030739     -1.54943671131241     -0.72902549233487
  H   0.86664219705203     -1.05779768185352      0.94134705666742
  C   -1.68632422570383     -0.43063025986029      0.36060034407152
  H   -1.54915483331163     -0.72940063485075      1.40383430691021
  H   -1.88167842164772     -1.31958744977818     -0.24221991361493
  H   -2.54747767999734      0.23480314934279      0.29570235169546
  C   -0.12580431010662      1.45542374517274      0.63916998776853
  N   0.16941841528994      2.37731444985255      1.30647418510233
  N   2.08433477295325     -0.15588593137140     -0.46747167496182
  H   2.06753019066059      0.18291808585289     -1.42057055393474
  H   2.35547703732809      0.60610526762322      0.14143223198768
