14
Coordinates from ORCA-job run
  C   -0.50016989139244      0.23548578087687     -0.44692201157431
  C   0.81361283308973     -0.55148235753463     -0.68243862909965
  Br  -1.59349563701441      0.06084715599470     -2.07071022792330
  H   0.54044173252178     -1.59902462282377     -0.83975045780274
  H   1.26584092200961     -0.18979067195342     -1.60894138938342
  C   -1.30130234338697     -0.28854980852972      0.73905524150364
  H   -0.72492976004366     -0.16296264776432      1.65879067185867
  H   -2.23949049811736      0.25615063621980      0.84674405690667
  H   -1.52294163572083     -1.34758111782971      0.59126945599158
  C   -0.18747770761879      1.65066564297153     -0.27034732528715
  N   0.11008648209910      2.77162864018760     -0.07763421003401
  N   1.78997725761063     -0.46444824121875      0.37793546444205
  H   1.45661743630720     -0.85967370434998      1.24558466005152
  H   2.09323080965638      0.48773531575377      0.53636470035043
