15

C	-0.478511	0.16003	-1.452786
C	0.0	0.0	0.0
Br	-2.479158	0.200766	-1.471205
H	1.109821	0.0	0.0
C	-0.042621	1.421819	-2.045149
N	0.284863	2.423448	-2.566425
C	-0.092524	-0.968288	-2.295773
N	0.188206	-1.853143	-3.01669
N	-0.415694	-1.305858	0.471152
H	-1.309316	-1.264607	0.946201
H	0.288797	-1.664484	1.103418
N	-0.400701	1.18264	0.737892
H	0.314811	1.398309	1.420554
H	-1.288296	1.049071	1.206507
Cl	3.281426	0.0	0.0
