15

C	-0.528616	-0.03547	-1.454523
C	0.0	0.0	0.0
Br	0.09435	-1.646073	-2.406103
H	1.104095	0.0	0.0
C	-1.993773	-0.05911	-1.457008
N	-3.168899	-0.056514	-1.459636
C	-0.066025	1.128742	-2.207891
N	0.260654	2.052741	-2.855556
N	-0.559791	-1.142956	0.72446
H	-0.143064	-1.106337	1.650381
H	-0.200657	-1.995674	0.305058
N	-0.472159	1.246125	0.555522
H	0.259005	1.689904	1.094022
H	-1.297114	1.089592	1.121022
Cl	3.355214	0.0	0.0
