15

C	-0.527255	-0.198427	-1.449741
C	0.0	0.0	0.0
Br	0.242657	-1.814754	-2.230125
H	1.112077	0.0	0.0
C	-1.983683	-0.348435	-1.423417
N	-3.152418	-0.465484	-1.384463
C	-0.177102	0.931337	-2.309619
N	0.081079	1.868396	-2.970592
N	-0.480857	-1.083979	0.81041
H	0.231779	-1.364718	1.469255
H	-1.33379	-0.820468	1.288849
N	-0.54286	1.291504	0.449176
H	-0.044162	2.033711	-0.035984
H	-0.268744	1.381465	1.423079
Cl	3.357549	0.0	0.0
