14

C	0.0	0.0	0.0
C	-0.479123	-0.17286	-1.430171
Br	1.968149	0.0	0.0
H	-1.560527	-0.326574	-1.361626
H	-0.243692	1.00568	0.360024
H	-0.026145	-1.084119	-1.832542
N	-0.487821	-1.06924	0.822667
H	-1.504659	-1.064057	0.695024
H	-0.308835	-0.855863	1.797977
C	-0.207019	1.028988	-2.323705
H	-0.721664	1.912006	-1.933877
H	0.86057	1.251558	-2.399997
H	-0.589971	0.846599	-3.331301
Br	-3.810109	0.0	0.0
