14

C	0.0	0.0	0.0
C	-0.452407	0.152566	-1.440455
Br	2.045454	0.0	0.0
H	-1.518505	0.404132	-1.370863
H	-0.220691	0.897444	0.574764
H	0.088285	0.990478	-1.889912
N	-0.531068	-1.111021	0.632166
H	-0.320255	-2.002694	0.216602
H	-0.494894	-1.113716	1.636263
C	-0.282125	-1.109414	-2.277354
H	-0.488798	-0.895637	-3.328406
H	-0.995004	-1.872964	-1.960213
H	0.735175	-1.505925	-2.209959
Br	-4.125591	0.0	0.0
