12
Coordinates from ORCA-job run
  C   0.48326253879825     -0.29737640562140     -0.55232198063204
  C   -0.55727520660032      0.16512692801290      0.45676000143081
  H   0.28673891577079     -1.32786761528491     -0.84713667407300
  H   -0.56709699979826     -0.54193048672052      1.28688642182388
  H   0.52710789339964      0.34755992832579     -1.42839687303551
  H   -0.25893384715923      1.14395449869990      0.85883493899543
  N   1.83844328466742     -0.26311332396074      0.06629563213787
  O   2.00221421886603     -0.96283094590335      1.06429821972834
  O   2.68783170031367      0.46636635620549     -0.44121902124195
  N   -1.85963392238669      0.15044443370366     -0.20153528948061
  H   -1.98353127758522      0.99128811083003     -0.75108314865272
  H   -2.59912729828608      0.12837852171316      0.48761777299950
