16

C	-0.500859	0.103271	-1.411918
C	0.0	0.0	0.0
Cl	-2.2296	0.472362	-1.49671
H	1.096697	0.0	0.0
H	-0.308215	0.934902	0.476148
N	0.23908	1.240826	-2.134522
O	0.885134	0.952081	-3.130956
O	0.113594	2.342508	-1.622854
N	-0.227103	-1.14302	-2.257284
O	-0.929347	-1.327797	-3.243184
O	0.722019	-1.824507	-1.894204
C	-0.545013	-1.196067	0.768989
H	-0.217828	-1.114301	1.807005
H	-1.637537	-1.239163	0.757067
H	-0.141038	-2.127629	0.374142
Cl	3.398183	0.0	0.0
