16

C	-0.531436	-0.016487	-1.403439
C	0.0	0.0	0.0
Cl	-2.265581	-0.356962	-1.478252
H	1.091906	0.0	0.0
H	-0.320884	-0.933069	0.467753
N	-0.23343	1.31924	-2.080318
O	0.951112	1.49414	-2.326119
O	-1.153095	2.110201	-2.244972
N	0.119556	-1.086918	-2.277561
O	0.501452	-2.091487	-1.698943
O	0.11936	-0.879034	-3.484094
C	-0.49742	1.210353	0.783972
H	-0.147126	1.120262	1.81334
H	-1.586602	1.297711	0.789501
H	-0.07245	2.132694	0.383198
Cl	3.40793	0.0	0.0
