16

C	-0.567871	-0.033127	-1.386142
C	0.0	0.0	0.0
Cl	-2.333517	-0.091368	-1.401222
H	1.102684	0.0	0.0
H	-0.3063	0.963829	0.420638
N	-0.134216	1.203115	-2.210319
O	0.860372	1.785805	-1.799378
O	-0.789916	1.474083	-3.207605
N	-0.063413	-1.222699	-2.229209
O	-0.556654	-1.350203	-3.343494
O	0.797317	-1.926245	-1.719453
C	-0.486159	-1.131911	0.903314
H	0.042682	-1.04754	1.854302
H	-0.235611	-2.105188	0.48267
H	-1.560007	-1.089291	1.096376
Cl	3.456282	0.0	0.0
