16

C	-0.527101	0.019458	-1.404837
C	0.0	0.0	0.0
Cl	-2.253254	0.385688	-1.487626
H	1.092969	0.0	0.0
H	-0.318739	0.934132	0.467287
N	0.146745	1.07638	-2.279721
O	0.501999	2.094237	-1.706511
O	0.190356	0.845105	-3.481895
N	-0.245372	-1.322768	-2.076744
O	0.942901	-1.536976	-2.267212
O	-1.183138	-2.078493	-2.298115
C	-0.504261	-1.208749	0.781651
H	-0.158199	-1.122147	1.812858
H	-0.080967	-2.132008	0.380613
H	-1.594118	-1.291034	0.783116
Cl	3.421415	0.0	0.0
