11
Coordinates from ORCA-job run
  C   0.27902915121763     -0.14703658268760      0.22228427872677
  C   -0.19914555527301      1.25364363682010     -0.09381357302264
  Br  1.00626387106062     -0.24256947894866      2.02485575690274
  H   -0.93892601111521      1.56639169208624      0.64008833513246
  H   0.65155626513735      1.93517240888811     -0.07527161465917
  H   -0.64816928573965      1.26385025518517     -1.08996332080729
  N   -0.90404772378948     -1.13276554289825      0.19324614935603
  O   -0.65713285690207     -2.27771610647938     -0.15781758832147
  O   -1.98171044694024     -0.68571488025808      0.55754538350472
  C   1.28532515957053     -0.61597681369906     -0.71901548758843
  N   2.10795743277354     -0.91627858800858     -1.50313831922373
