11
Coordinates from ORCA-job run
  C   0.28768881942800     -0.12538587528930      0.22685682698051
  C   -0.25312474772237      1.23544304592773     -0.15598434928833
  Br  1.03335951554778     -0.09560098306933      2.02377846247264
  H   -0.99960829457640      1.55265617446131      0.56925477088453
  H   -0.71017256167341      1.17550892675393     -1.14684438809343
  H   0.56662599607946      1.95367242591406     -0.18109428378793
  N   -0.85559206757219     -1.15574801612659      0.25910030244126
  O   -1.93339015422666     -0.74392270778980      0.66248594301071
  O   -0.58329624235173     -2.29505229285048     -0.09259807365751
  C   1.30613470939732     -0.59997425743369     -0.69866183247030
  N   2.14237502767018     -0.90259644049784     -1.46729337849214
