12

C	0.0	0.0	0.0
C	-0.514717	0.015335	-1.458387
Br	1.950839	0.0	0.0
H	-0.105422	-0.863682	-1.969379
H	-0.218352	0.928813	0.534261
H	-0.132576	0.908921	-1.961574
C	-0.485834	-1.153819	0.724874
N	-0.89838	-2.10871	1.305912
N	-1.987917	0.076779	-1.475194
H	-2.383304	-0.845088	-1.32075
H	-2.351469	0.445218	-2.369379
H	-1.547737	0.0	0.0
