12

C	0.0	0.0	0.0
C	-0.296389	0.001271	-1.519268
Br	1.957439	0.0	0.0
H	0.169295	-0.901674	-1.94304
H	-0.323036	0.939076	0.440659
H	-1.376657	-0.067527	-1.603993
C	-0.598801	-1.142569	0.684059
N	-0.609112	-2.203261	1.217453
N	0.152663	1.24697	-2.140952
H	-0.362737	1.379573	-3.00153
H	1.136501	1.191509	-2.36955
H	-2.324737	0.0	0.0
