12

C	0.0	0.0	0.0
C	-0.415908	-0.045428	-1.471437
Br	1.958718	0.0	0.0
H	-0.055304	0.880907	-1.942928
H	-0.362361	0.906505	0.482423
H	-1.510608	-0.031956	-1.406325
C	-0.428517	-1.177739	0.749227
N	-0.545693	-2.162591	1.3811
N	0.056794	-1.264661	-2.112411
H	-0.580124	-1.525705	-2.851598
H	0.98105	-1.144135	-2.503031
H	-2.772545	0.0	0.0
