12

C	0.0	0.0	0.0
C	-0.335003	-0.019653	-1.503751
Br	1.959366	0.0	0.0
H	-1.420971	0.051383	-1.533601
H	-0.350531	0.916874	0.468125
H	0.114894	0.883738	-1.944822
C	-0.491318	-1.165223	0.731696
N	-0.558384	-2.149477	1.379327
N	0.101562	-1.264184	-2.124603
H	-0.474138	-1.454937	-2.932822
H	1.067559	-1.211046	-2.41724
H	-2.516709	0.0	0.0
