12

C	0.0	0.0	0.0
C	-0.427088	-0.067468	-1.507655
Br	1.955228	0.0	0.0
H	-1.139831	-0.879968	-1.61524
H	-0.307172	0.931555	0.461735
H	0.455857	-0.286869	-2.112358
C	-0.460837	-1.1317	0.797785
N	-0.521925	-2.110429	1.454628
N	-1.051928	1.140677	-2.014245
H	-1.880691	1.231827	-1.419066
H	-0.442521	1.930897	-1.825538
H	-2.399739	0.0	0.0
