12

C	0.0	0.0	0.0
C	-0.49214	0.207749	-1.48802
Br	1.950951	0.0	0.0
H	0.355064	-0.036862	-2.134447
H	-0.355161	0.780601	0.670409
H	-0.68608	1.280516	-1.584171
C	-0.380832	-1.309758	0.519465
N	-0.57525	-2.400473	0.910694
N	-1.655737	-0.518052	-1.910668
H	-2.431928	-0.310985	-1.226226
H	-1.47173	-1.514905	-1.845844
H	-3.330136	0.0	0.0
