16
Coordinates from ORCA-job run
  C   -0.55074375527679     -0.47482736093573     -0.03039523135236
  C   0.92525976316005     -0.17687422182005     -0.38331065891268
  F   -0.56890575007383     -1.76796197892556      0.51114163898149
  H   1.32378377937333     -1.03529637496512     -0.93651763109742
  N   -1.27543877607680     -0.42321001111468     -1.24932608685046
  H   -1.00775743701279     -1.17850748527942     -1.86948001424993
  H   -2.27170619870332     -0.47489587944956     -1.08045276416466
  C   -1.12762920358006      0.48160025508875      0.98758231405377
  H   -0.60110489265146      0.38891259292035      1.93551730260624
  H   -1.06995294848351      1.50803914362355      0.62290753991958
  H   -2.17546306200225      0.22532317495289      1.15856092351696
  N   1.84156043690730     -0.05730270638596      0.83089790931469
  O   2.79208411272185      0.70774463638190      0.72174992940482
  O   1.59099894474803     -0.77368098734796      1.78996478041817
  C   1.04327088874322      1.03720203393213     -1.18079511433037
  N   1.13174409820701      2.01273516932448     -1.82804483725785
