16
Coordinates from ORCA-job run
  C   -0.52178899013154     -0.52884879641659     -0.09361630124137
  C   1.01454523950437     -0.23878052235560     -0.01412175457628
  F   -0.51592902424450     -1.90295783718435     -0.35702997092875
  H   1.46251794639171     -0.86634210708317      0.75720408278493
  N   -1.20913774838084      0.10516531022455     -1.14243719279183
  H   -1.57051261815080      1.02174902802501     -0.93049937786130
  H   -0.76355162851967      0.04978718492570     -2.04485641362973
  C   -1.20760053846884     -0.30459073041523      1.23509406916717
  H   -2.21043523233342     -0.72040055204172      1.15280750135965
  H   -1.27547579362179      0.75339384626878      1.48652412122189
  H   -0.67536403182196     -0.81403350282044      2.03662116812494
  N   1.21460390216134      1.18236187062030      0.41472085334137
  O   1.37341491460068      1.35731224799723      1.61986457655904
  O   1.14003423818256      2.04663421573122     -0.44879140560223
  C   1.64002807795969     -0.46650337807788     -1.30786936916438
  N   2.10565128687302     -0.67294627739782     -2.36461458676316
