20

C	-0.468529	-0.070137	-1.447081
C	0.0	0.0	0.0
Br	0.209995	1.640546	-2.4166
H	1.094994	0.0	0.0
C	0.201935	-1.193941	-2.213105
H	1.278342	-1.150682	-2.029001
H	0.003899	-1.110169	-3.285171
H	-0.19547	-2.149077	-1.859324
N	-1.885757	-0.124728	-1.571569
H	-2.307621	0.675112	-1.113952
H	-2.15391	-0.107398	-2.548987
C	-0.388727	-1.288849	0.736431
H	-0.085102	-1.189871	1.783298
H	-1.46467	-1.485304	0.694797
H	0.150555	-2.149928	0.337298
C	-0.515749	1.20364	0.778295
H	-1.583311	1.120739	1.023855
H	-0.345667	2.136994	0.240274
H	0.036007	1.264287	1.720451
H	2.997499	0.0	0.0
