20

C	-0.448133	-0.039888	-1.461053
C	0.0	0.0	0.0
Cl	0.274106	1.457593	-2.306285
H	1.095424	0.0	0.0
C	0.14032	-1.225759	-2.205016
H	-0.043511	-1.129236	-3.27871
H	1.217689	-1.266817	-2.026934
H	-0.331612	-2.144254	-1.851009
N	-1.877982	-0.026594	-1.582353
H	-2.243309	0.83067	-1.184154
H	-2.133681	-0.040466	-2.563552
C	-0.435748	-1.279662	0.720308
H	-0.16667	-1.198595	1.7774
H	0.08419	-2.155318	0.328556
H	-1.514886	-1.438246	0.641367
C	-0.506814	1.220453	0.762428
H	-0.007991	1.262588	1.733256
H	-0.280581	2.149406	0.237859
H	-1.586822	1.164383	0.947571
Br	3.731385	0.0	0.0
