20

C	-0.241857	-0.016277	-1.516639
C	0.0	0.0	0.0
Cl	-2.031502	-0.220311	-1.866174
H	1.101042	0.0	0.0
C	0.21102	1.27415	-2.175739
H	-0.391239	2.125132	-1.858716
H	0.132784	1.160009	-3.2579
H	1.257548	1.445987	-1.900734
N	0.438452	-1.106687	-2.195507
H	1.43167	-0.99213	-1.983552
H	0.153758	-1.986361	-1.780485
C	-0.482988	-1.251193	0.722587
H	-0.114809	-2.16859	0.25853
H	-1.575752	-1.295063	0.761301
H	-0.098431	-1.242151	1.745863
C	-0.510059	1.250403	0.704155
H	-0.312126	1.172024	1.777323
H	-1.590008	1.373262	0.563873
H	-0.002959	2.149652	0.351134
Br	3.615214	0.0	0.0
