20

C	-0.377696	0.045091	-1.49604
C	0.0	0.0	0.0
Cl	-0.174482	-1.624746	-2.199701
H	1.098273	0.0	0.0
C	-1.81708	0.45019	-1.771123
H	-2.515869	-0.202035	-1.243648
H	-1.987608	1.480973	-1.447816
H	-2.007673	0.386541	-2.842882
N	0.51336	0.892774	-2.269039
H	0.36153	1.854476	-1.981482
H	1.473085	0.659724	-2.007566
C	-0.522345	-1.19102	0.792212
H	-1.613594	-1.277372	0.726995
H	-0.079803	-2.12414	0.448853
H	-0.257304	-1.066053	1.845983
C	-0.419056	1.300028	0.694869
H	0.118521	1.377734	1.642195
H	-0.157681	2.187126	0.113587
H	-1.493141	1.327265	0.906895
Br	3.651707	0.0	0.0
