20

C	-0.340905	0.040633	-1.488262
C	0.0	0.0	0.0
Cl	-2.204011	0.520318	-1.665325
H	1.09832	0.0	0.0
C	0.421414	1.118564	-2.234175
H	0.158724	2.112992	-1.875985
H	1.489433	0.941077	-2.067858
H	0.193767	1.073804	-3.303324
N	-0.125793	-1.207688	-2.106396
H	-0.682404	-1.944098	-1.693078
H	-0.30768	-1.161918	-3.100365
C	-0.487028	-1.266969	0.69329
H	-0.264014	-1.202398	1.761157
H	-1.570138	-1.3951	0.5802
H	0.031194	-2.150992	0.316064
C	-0.44638	1.235889	0.775307
H	0.063089	1.238692	1.742391
H	-1.526174	1.239343	0.944751
H	-0.175664	2.162995	0.267686
Br	3.682555	0.0	0.0
