20

C	-0.461805	-0.034188	-1.466056
C	0.0	0.0	0.0
Cl	0.156674	1.460346	-2.294468
H	1.096373	0.0	0.0
C	0.134372	-1.218441	-2.206738
H	-0.327318	-2.146454	-1.858389
H	-0.065844	-1.11587	-3.274115
H	1.21007	-1.261519	-2.023027
N	-1.906622	-0.015333	-1.682653
H	-2.297333	-0.849214	-1.251164
H	-2.301971	0.790104	-1.205793
C	-0.414406	-1.280129	0.732134
H	-1.5018	-1.428402	0.739938
H	0.062935	-2.164708	0.308033
H	-0.085747	-1.211538	1.77296
C	-0.500479	1.212448	0.776832
H	-1.586027	1.177087	0.93505
H	-0.247178	2.147336	0.276648
H	-0.023423	1.226809	1.759826
Br	3.712556	0.0	0.0
