16

C	-0.394937	4.6e-05	-1.492993
C	0.0	0.0	0.0
Br	0.213687	-1.651979	-2.299609
H	1.09056	0.0	0.0
N	-1.929134	0.06119	-1.597118
O	-2.549593	-0.963368	-1.332324
O	-2.418694	1.164141	-1.824054
C	0.155624	1.100264	-2.271641
N	0.579946	1.932549	-2.985482
N	-0.434981	-1.093848	0.778373
H	0.304178	-1.778537	0.812365
H	-1.32239	-1.500072	0.521832
N	-0.554587	1.289207	0.546394
O	-1.550572	1.239057	1.269212
O	0.010825	2.325673	0.203029
F	2.494266	0.0	0.0
