16

C	-0.595534	-0.048205	-1.395383
C	0.0	0.0	0.0
Br	-2.560084	0.068868	-1.350638
H	1.092557	0.0	0.0
N	-0.034247	1.050336	-2.33702
O	-0.778307	1.913161	-2.768813
O	1.156426	0.907482	-2.567594
C	-0.260877	-1.320091	-2.022615
N	0.001573	-2.322424	-2.577802
N	-0.391445	-1.160819	0.724365
H	-1.217339	-0.997952	1.285707
H	0.379789	-1.420918	1.326064
N	-0.40354	1.279103	0.65419
O	-0.246868	2.310902	0.001447
O	-0.820384	1.240904	1.813578
F	2.464401	0.0	0.0
