16

C	-0.544861	-0.021323	-1.42326
C	0.0	0.0	0.0
Br	0.479364	-1.292068	-2.456409
H	1.090211	0.0	0.0
N	-2.027318	-0.48767	-1.344921
O	-2.420134	-1.439473	-1.993811
O	-2.696193	0.204953	-0.584178
C	-0.592802	1.221597	-2.186134
N	-0.70056	2.138879	-2.914314
N	-0.413621	-1.189885	0.673449
H	0.375344	-1.513328	1.218956
H	-1.189819	-1.000941	1.296087
N	-0.401644	1.250955	0.716324
O	-0.162432	2.318602	0.157683
O	-0.87496	1.145891	1.849462
F	2.488965	0.0	0.0
