16

C	-0.495747	-0.041733	-1.443062
C	0.0	0.0	0.0
Br	-2.462502	0.094015	-1.558793
H	1.09224	0.0	0.0
N	0.136159	1.044167	-2.354197
O	-0.539401	1.994782	-2.706987
O	1.303712	0.812883	-2.629273
C	-0.134146	-1.32698	-2.027478
N	0.148169	-2.36575	-2.500678
N	-0.395648	-1.114868	0.772254
H	0.340837	-1.804177	0.778397
H	-1.303105	-1.507134	0.566702
N	-0.464628	1.286501	0.604747
O	-1.15142	1.271395	1.621845
O	-0.093262	2.305574	0.019433
F	2.473336	0.0	0.0
