16

C	-0.436522	0.007808	-1.490937
C	0.0	0.0	0.0
Br	-2.332575	0.325895	-1.757898
H	1.092244	0.0	0.0
N	0.378556	1.040205	-2.329429
O	-0.201834	2.019121	-2.779675
O	1.565394	0.74336	-2.423461
C	-0.126208	-1.298378	-2.050513
N	0.127042	-2.372585	-2.457296
N	-0.517745	-1.039408	0.79989
H	-1.521457	-1.159246	0.7318
H	-0.017186	-1.905367	0.653452
N	-0.445759	1.332863	0.540128
O	-1.283374	1.349189	1.442237
O	0.14229	2.311566	0.084763
F	2.508646	0.0	0.0
