19

C	0.0	0.0	0.0
C	-0.346653	0.194159	-1.505664
Cl	1.800208	0.0	0.0
H	0.15541	-0.606698	-2.051484
C	-0.525027	1.069374	0.936672
H	-1.618172	1.077201	0.890337
H	-0.228772	0.822025	1.959588
H	-0.142271	2.055203	0.683168
C	-0.515024	-1.368388	0.409538
H	-0.135019	-2.148754	-0.255524
H	-0.197178	-1.597467	1.429072
H	-1.608805	-1.351742	0.376529
N	0.331524	1.440922	-2.053093
O	1.17789	1.288709	-2.932635
O	-0.050998	2.52557	-1.62277
N	-1.709611	0.270266	-1.889384
H	-2.33615	0.670738	-1.194607
H	-2.090903	-0.640257	-2.09881
Cl	-4.224956	0.0	0.0
