19

C	0.0	0.0	0.0
C	-0.535835	-0.081265	-1.434329
Cl	1.804567	0.0	0.0
H	-1.627341	-0.157046	-1.333578
C	-0.476217	1.31292	0.602845
H	-0.12218	1.383923	1.634373
H	-1.570217	1.307457	0.593483
H	-0.108618	2.161296	0.028603
C	-0.462467	-1.165496	0.860149
H	-1.555133	-1.195403	0.834471
H	-0.127185	-0.998688	1.886656
H	-0.061721	-2.117537	0.514453
N	-0.099567	-1.402438	-2.08185
O	0.838487	-1.363173	-2.881202
O	-0.712739	-2.421146	-1.773495
N	-0.162263	1.035413	-2.230227
H	-0.720547	1.060477	-3.072869
H	0.814676	0.963584	-2.485738
Cl	-3.820464	0.0	0.0
