19

C	0.0	0.0	0.0
C	-0.353893	0.056442	-1.511675
Cl	1.800303	0.0	0.0
H	0.191461	-0.755993	-1.994837
C	-0.521684	1.146552	0.843272
H	-0.120953	2.104962	0.522254
H	-1.613974	1.166722	0.780179
H	-0.243911	0.972709	1.886314
C	-0.506315	-1.329262	0.534911
H	-0.14844	-2.162116	-0.076589
H	-0.154844	-1.475523	1.558852
H	-1.600015	-1.312496	0.533095
N	0.262866	1.290471	-2.158362
O	1.122444	1.109172	-3.020213
O	-0.176647	2.386256	-1.821885
N	-1.718312	0.026714	-1.895272
H	-2.022655	-0.915872	-2.088735
H	-2.383215	0.403762	-1.219495
Cl	-4.230356	0.0	0.0
