19

C	0.0	0.0	0.0
C	-0.376819	0.099051	-1.501274
Cl	1.802139	0.0	0.0
H	0.098815	-0.743482	-2.006
C	-0.510237	1.129193	0.876778
H	-0.135514	2.09723	0.55169
H	-0.194555	0.948987	1.907503
H	-1.604573	1.130314	0.849835
C	-0.505916	-1.338029	0.514836
H	-1.60044	-1.315854	0.521216
H	-0.155375	-2.161175	-0.113663
H	-0.149988	-1.503477	1.534141
N	0.296166	1.297811	-2.146063
O	-0.072085	2.412523	-1.784291
O	1.127812	1.079204	-3.025218
N	-1.74805	0.167056	-1.860908
H	-2.335008	0.690694	-1.217316
H	-2.169282	-0.750287	-1.904695
Cl	-4.270224	0.0	0.0
