19

C	0.0	0.0	0.0
C	-0.545161	0.070694	-1.444637
Cl	1.805373	0.0	0.0
H	-1.615647	-0.152608	-1.357436
C	-0.47893	1.223885	0.762942
H	-0.084709	2.146305	0.333139
H	-0.141545	1.158041	1.79961
H	-1.573383	1.230748	0.739804
C	-0.456777	-1.266151	0.709352
H	-0.098195	-1.249099	1.741818
H	-1.549915	-1.284177	0.70231
H	-0.074597	-2.162498	0.222223
N	0.054346	-1.043921	-2.268301
O	1.01908	-0.775265	-2.979871
O	-0.449281	-2.161805	-2.154519
N	-0.367027	1.292667	-2.163725
H	0.547279	1.692803	-1.998967
H	-1.092845	1.940001	-1.889647
Cl	-3.78568	0.0	0.0
