19

C	0.0	0.0	0.0
C	-0.534469	-0.045334	-1.436417
Cl	1.804237	0.0	0.0
H	-1.62516	-0.125042	-1.337472
C	-0.476785	1.297443	0.635316
H	-0.104403	2.160076	0.086091
H	-0.126629	1.339747	1.669734
H	-1.570565	1.294843	0.621959
C	-0.464324	-1.187212	0.828849
H	-0.132199	-1.045847	1.860087
H	-0.062142	-2.129978	0.46041
H	-1.556846	-1.215963	0.799035
N	-0.096116	-1.34834	-2.116551
O	-0.709845	-2.374702	-1.836698
O	0.845259	-1.288009	-2.910721
N	-0.161671	1.09236	-2.203463
H	0.814862	1.024862	-2.46199
H	-0.72132	1.137335	-3.04451
Cl	-3.818788	0.0	0.0
