19

C	0.0	0.0	0.0
C	-0.407143	-0.008384	-1.501594
Cl	1.796926	0.0	0.0
H	0.360423	-0.533408	-2.074504
C	-0.519289	1.207987	0.757816
H	-0.244725	1.115696	1.81126
H	-0.101902	2.139365	0.373356
H	-1.610511	1.236242	0.677396
C	-0.471921	-1.28936	0.654899
H	-0.064725	-1.344667	1.667954
H	-0.138824	-2.160652	0.088769
H	-1.562797	-1.292905	0.698676
N	-0.250008	1.440015	-2.040258
O	-1.23631	2.170069	-2.014603
O	0.860461	1.763005	-2.467818
N	-1.67213	-0.56578	-1.725678
H	-2.445567	-0.213366	-1.148922
H	-1.938537	-0.52296	-2.699492
Cl	-4.258884	0.0	0.0
