19

C	0.0	0.0	0.0
C	-0.400391	0.112545	-1.494834
Cl	1.803022	0.0	0.0
H	0.343888	-0.409702	-2.100331
C	-0.517931	1.136477	0.861791
H	-1.608504	1.175306	0.780634
H	-0.099723	2.098376	0.565108
H	-0.247729	0.946401	1.90324
C	-0.472744	-1.341839	0.539524
H	-0.066911	-1.486311	1.544197
H	-0.139937	-2.160378	-0.100817
H	-1.563708	-1.346884	0.581302
N	-0.169606	1.580927	-1.949522
O	0.91247	1.840382	-2.481143
O	-1.082064	2.385089	-1.77846
N	-1.687631	-0.368321	-1.753318
H	-2.451137	-0.067816	-1.13652
H	-1.962898	-0.249314	-2.717773
Cl	-4.286852	0.0	0.0
