15
Coordinates from ORCA-job run
  C   0.54063147911790     -0.33962156453778     -0.47026887878884
  C   -0.89805455255588     -0.16165188895998      0.07173415486532
  Cl  0.48514821065366     -1.52266475184704     -1.81438423385589
  H   -1.20134104665322     -1.13932085705058      0.46059952679221
  C   1.00432893058585      0.94606856461688     -0.99279165676538
  N   1.35812764602867      2.00729061149525     -1.35333320685178
  C   1.47831100498860     -0.85428155606420      0.61343201979322
  H   1.11906623106672     -1.82274451506999      0.96805038493650
  H   1.49638645985339     -0.14826408883438      1.44266428761747
  H   2.48243356473756     -0.97949616961884      0.20704259708002
  C   -1.82929927456050      0.20792488097933     -1.01179044101539
  N   -2.60526211900946      0.56802337204401     -1.81726224187895
  N   -0.87622233932271      0.79088690141421      1.16898325631607
  H   -0.83084006316427      1.73882389135522      0.81038264255045
  H   -1.72241413176632      0.70802717007790      1.71894178920498
