15
Coordinates from ORCA-job run
  C   0.57435734115493     -0.40932268747773     -0.47851451142969
  C   -0.92792921243448     -0.05210895655262     -0.29913131344983
  Cl  0.66809766769446     -2.15020432753799     -0.88398611847039
  H   -1.44080122971290     -0.38411404944944     -1.20682693748393
  C   1.10984666024962      0.34371689136624     -1.61319545409483
  N   1.53237361822333      0.96997936645778     -2.51347988380966
  C   1.37884112175187     -0.14087367067593      0.78439528730562
  H   1.32317686594275      0.91925428230481      1.04631805890011
  H   0.97856627956727     -0.75055151512356      1.59472626638455
  H   2.42346139305194     -0.40876239358114      0.62520724422227
  C   -1.06228655707625      1.41326748753723     -0.20441874502014
  N   -1.18413357588838      2.57234497402309     -0.05269490560623
  N   -1.48449501939871     -0.74940082519783      0.84359990298688
  H   -2.45164591966720     -0.99125854654650      0.67873771165515
  H   -1.43542943345828     -0.18296602954641      1.68026339791012
