15
Coordinates from ORCA-job run
  C   0.54955503085236     -0.38602180768635     -0.44927500342713
  C   -0.93178783378704      0.03230354905791     -0.24303790690153
  Cl  0.54806672929115     -2.15583096992151     -0.77800073759033
  H   -1.46062696817348     -0.19920201727974     -1.17963383853347
  C   1.06674097107708      0.28329245341236     -1.64247220971414
  N   1.47910161749877      0.84476810339893     -2.58902549832793
  C   1.41607408729594     -0.09806057014328      0.76616023853036
  H   2.42858040879829     -0.46429532964027      0.59442366740648
  H   0.98384504878410     -0.59111129546810      1.63515202188692
  H   1.45409724869722      0.97961117472501      0.94224415290327
  C   -0.98329012152266      1.48534585918610     -0.04845652501019
  N   -1.03290638382347      2.64608584336412      0.12143580468907
  N   -1.47920722742237     -0.62999269483484      0.93182862245541
  H   -1.71355748296692     -1.58782352643240      0.70159369482514
  H   -2.32268512459896     -0.16006877173795      1.23606351680807
