15
Coordinates from ORCA-job run
  C   0.54740794006099     -0.34301385557612     -0.48000790397716
  C   -0.89571542839896     -0.16351748805222      0.06071305388230
  Cl  0.51515261562558     -1.66098599004045     -1.69575328253088
  H   -1.19748531999026     -1.14139517046126      0.45557748533662
  C   0.97208314152004      0.89342238649442     -1.13408948438687
  N   1.30817449412066      1.90018095381273     -1.63808032189877
  C   1.50210445224954     -0.71671750197845      0.64395742204295
  H   1.16579104550735     -1.64385587889784      1.11468282200927
  H   2.50525527390680     -0.87220179622020      0.24596612799352
  H   1.52225113438264      0.08811172805282      1.37872465383447
  C   -1.81599137837968      0.17600545179000     -1.03125767398022
  N   -2.56855958349649      0.50349298992391     -1.87158813910384
  N   -0.89369961999846      0.85965117939581      1.09635536554257
  H   -1.49035925052768      1.64133919228868      0.86566568065456
  H   -1.17640951658208      0.47948379946817      1.98813419458148
