15
Coordinates from ORCA-job run
  C   0.55826091650450     -0.34482669301743     -0.44561636919861
  C   -0.89878680700864     -0.16619706674298      0.04454245756659
  Cl  0.55494661164755     -1.55380758814381     -1.76753733304425
  H   -1.20867792366445     -1.13828720229994      0.44210071971865
  C   1.03168687605484      0.93360843190020     -0.97702782806297
  N   1.39132412062340      1.99009328768981     -1.34546754897846
  C   1.46205694066132     -0.83228288638314      0.67871049765908
  H   1.44943219122547     -0.10959924084335      1.49347615497812
  H   2.47959070936223     -0.96034663052723      0.30826470475239
  H   1.09590759708780     -1.79518813183584      1.04112890320200
  C   -1.79587933056663      0.17610101598889     -1.07607876482158
  N   -2.54751720090406      0.51579626507906     -1.91293114221917
  N   -0.91951303072226      0.80734827446834      1.12330339597340
  H   -1.78394724072510      0.73014716930125      1.64521263439881
  H   -0.86688442957597      1.74844099536617      0.74791951807600
