15
Coordinates from ORCA-job run
  C   0.56787209476270     -0.40500802043812     -0.48852369227229
  C   -0.92990807398069     -0.03667200067471     -0.29540187626169
  Cl  0.64234194069895     -2.13897180961293     -0.92653857684146
  H   -1.44992700908509     -0.34490692708756     -1.20740013606722
  C   1.10576408720483      0.36288024062534     -1.61216966580191
  N   1.53226436598428      0.99627810567990     -2.50551015497051
  C   1.38095227083812     -0.16793780310998      0.77512617572471
  H   2.42196055355810     -0.44371586288569      0.60576946336092
  H   1.33755472337886      0.88777972980178      1.05671694872875
  H   0.97824393031403     -0.78813413317980      1.57635379636531
  C   -1.04951780616495      1.42779680069642     -0.17064871192897
  N   -1.16077093985880      2.58467618319129      0.00453181549542
  N   -1.48862471329148     -0.75111684723782      0.83557172383437
  H   -1.43204968423434     -0.20154209595655      1.68291716111795
  H   -2.45815574012452     -0.98240555981157      0.66920572951662
