15
Coordinates from ORCA-job run
  C   0.55436698041150     -0.39154265770732     -0.43915791361809
  C   -0.92597436363560      0.04273184092894     -0.26059266581344
  Cl  0.53989077211657     -2.16089662273762     -0.76982207489346
  H   -1.43931256291124     -0.18194887283975     -1.20739510098566
  C   1.10026242188410      0.27346245878095     -1.62191763423729
  N   1.53370821271695      0.83247790357666     -2.56044480702768
  C   1.40095720763496     -0.11424427182610      0.79256205387342
  H   2.41284347050145     -0.49008016979665      0.63879381846358
  H   1.44605235208183      0.96260682769558      0.97170424304135
  H   0.94810510553871     -0.60476389422916      1.65248903419227
  C   -0.96578618864931      1.49611965738475     -0.06482713896688
  N   -1.01045971633462      2.65695203198737      0.10559691160188
  N   -1.50286665370436     -0.61440089518971      0.90303857503908
  H   -1.74272195728908     -1.56975281094346      0.66783213363707
  H   -2.34706508036186     -0.13572052508447      1.19114056569385
