15
Coordinates from ORCA-job run
  C   0.49683006648202     -0.38250217120303     -0.45831129817993
  C   -1.00085627850427      0.05574732491980     -0.31580119483246
  Cl  0.49352091980637     -2.14958253549860     -0.78855781817410
  H   -1.48684417086525     -0.19039696097849     -1.26633102545185
  C   1.07570396443426      0.28664706720477     -1.62128813132689
  N   1.52611901051172      0.85128689541354     -2.54874175496928
  C   1.31800658986720     -0.10849315124540      0.79186287074675
  H   2.34345055820718     -0.44923710253473      0.64744944597756
  H   0.89467866634769     -0.64732660619844      1.64054824972901
  H   1.32780724600359      0.96344833157130      1.00337637688225
  C   -1.02787052148776      1.51526523045782     -0.15199784598728
  N   -1.01292005641805      2.67735773567552      0.01512050164297
  N   -1.76178686166321     -0.55454216745475      0.74659496187784
  H   -1.40616850648029     -0.30555243276283      1.66002492082014
  H   -1.77867062624118     -1.56111945736648      0.64705174124527
