15
Coordinates from ORCA-job run
  C   0.60805617966572     -0.22096536053364     -0.45849847234476
  C   -0.88602362051119     -0.22343476059249     -0.05451176726705
  Cl  0.77421634315121     -1.15530303704160     -1.97795097156685
  H   -1.15064800914993     -1.26954395749354      0.13155067310877
  C   1.02149904012835      1.16045683624952     -0.70704503688853
  N   1.32726725212631      2.28673365505274     -0.84605343363822
  C   1.47195933355236     -0.85940146550945      0.62066970228037
  H   1.35826234881518     -0.30553264821925      1.55155869861062
  H   2.51702517834685     -0.85682849322917      0.30945221512711
  H   1.15235986567834     -1.89276501055218      0.77122584183248
  C   -1.73254029637046      0.27248517169288     -1.15689388751007
  N   -2.45158042583782      0.71992706099532     -1.97139700265759
  N   -1.04317071499598      0.52500794693586      1.18110877889805
  H   -1.03549292839858      1.52160819262844      0.99138750600701
  H   -1.93018954620034      0.29955586961654      1.61439715600867
