15
Coordinates from ORCA-job run
  C   0.54381351477201     -0.38353291407496     -0.45855743599976
  C   -0.93199946579551      0.04685828503637     -0.23781672220392
  Cl  0.52182087280459     -2.14708299917946     -0.81973590987769
  H   -1.46737680037127     -0.16023419289779     -1.17636695146143
  C   1.06161284014255      0.30215324672378     -1.64222745426219
  N   1.47136505925165      0.87925955194294     -2.58044987509567
  C   1.41886749480049     -0.12724097203982      0.75777293998098
  H   0.98291593488586     -0.62880146817168      1.62012750786822
  H   1.47271298903711      0.94688358890440      0.95136073229198
  H   2.42562188468453     -0.50457883228298      0.57579160626724
  C   -0.96646591770677      1.49636256593761     -0.01475587643442
  N   -1.00483332845195      2.65411782504044      0.17712990069929
  N   -1.48192350533455     -0.63186314112367      0.92637132502548
  H   -2.32055641320598     -0.16018017269424      1.24112787871493
  H   -1.72557515951277     -1.58312037112096      0.67922833448698
