15
Coordinates from ORCA-job run
  C   0.60708765479458     -0.29017978038608     -0.44143156509780
  C   -0.88685606957667     -0.21384362339276     -0.03055047996094
  Cl  0.76273893771620     -1.55407636312413     -1.70415982564136
  H   -1.16590819613278     -1.22326129026240      0.29631516756530
  C   1.01630659338539      0.99498167755154     -1.00539508952800
  N   1.34615831704663      2.03884155222382     -1.43195450853023
  C   1.47611415974794     -0.65922526654803      0.75161024271299
  H   2.51737209661287     -0.75071800648176      0.44140883113458
  H   1.39019212299839      0.11747928224788      1.51149847170610
  H   1.14770176006535     -1.61858202716723      1.15911398889763
  C   -1.72335199986381      0.12199026375120     -1.18893213036052
  N   -2.42032083622871      0.43766053863931     -2.07985293038507
  N   -1.03896817702047      0.76398138244805      1.03685461541531
  H   -1.34751568089595      0.32807598409277      1.89377253743451
  H   -1.67875068264895      1.50587567640783      0.79170267463752
