15
Coordinates from ORCA-job run
  C   0.54428534564230     -0.46435332790658     -0.08132347402957
  C   -0.79055497831599      0.32023827920326      0.02642782473365
  Cl  0.43146682245065     -1.98131967952691      0.85010439256524
  H   -0.60878982189663      1.27637120994265     -0.49224219508574
  C   0.72358050043639     -0.79406877564622     -1.49672850997266
  N   0.84445708064906     -0.99172607097118     -2.64873577977166
  C   1.72174546810823      0.35580123687956      0.43164850354910
  H   1.58099853495392      0.57576557362992      1.49115323054562
  H   2.64773194437488     -0.20652864833456      0.31093392024026
  H   1.80144487765198      1.29161348145315     -0.12771216216303
  C   -1.05497619220425      0.64169624927580      1.43161975449619
  N   -1.28584061557819      0.92121125777007      2.54813683863680
  N   -1.88785225508846     -0.45006288795489     -0.52887903770308
  H   -2.77716453904951     -0.12234765578700     -0.17570780152302
  H   -1.89153217213437     -0.37129024202704     -1.53869550451810
