15
Coordinates from ORCA-job run
  C   0.48359687010598     -0.41613962504118     -0.08952941534854
  C   -0.81713868519026      0.44714646214247     -0.03265319897928
  Cl  0.15737178815575     -2.00137038479229      0.68125463713465
  H   -0.56039285373129      1.39824202333451     -0.51662237053438
  C   0.77783193018060     -0.64562624267084     -1.50426622549960
  N   0.98576045578250     -0.77157224218479     -2.65409796241942
  C   1.65863758084519      0.25323779435535      0.60932930503979
  H   2.55279409410563     -0.36396719575660      0.51748471630819
  H   1.85389423209821      1.22740179404229      0.15280005519676
  H   1.43026394230991      0.38913283173362      1.66718397279301
  C   -1.12672978180897      0.74178591021241      1.37303478539699
  N   -1.35445870846114      0.97256468250200      2.50103335124025
  N   -1.98482604104675     -0.08136170466333     -0.69255483951141
  H   -2.23013821949000     -0.99095629858500     -0.32136493117415
  H   -1.82746660385534     -0.15851780462861     -1.69003187964287
