15
Coordinates from ORCA-job run
  C   0.55116152546738     -0.38953899183091     -0.19897522515884
  C   -0.80129213073828      0.33366090202493     -0.02319067590184
  Cl  0.42283775616612     -2.02933124018851      0.52442236749707
  H   -0.68395245255804      1.31129070694624     -0.50587771093832
  C   0.80714099210284     -0.53680713527147     -1.63236565483244
  N   1.07526714227798     -0.60714871149765     -2.77355478584072
  C   1.69660807679938      0.35659284914117      0.47306502869064
  H   1.52043137316506      0.42388242531141      1.54738908227131
  H   2.63479328520378     -0.17142099808945      0.30156822537941
  H   1.77745096937829      1.36293364834336      0.05339565813896
  C   -1.05383222437236      0.57657397328498      1.41201837544197
  N   -1.30946653813505      0.76196822736006      2.54385370507839
  N   -1.85473604329510     -0.37680760101812     -0.71413805785145
  H   -2.10354570512822     -1.22051963289338     -0.21252651661018
  H   -2.67986602633377      0.20367157837734     -0.79508381536396
