15
Coordinates from ORCA-job run
  C   0.51777702421292     -0.26794207986082     -0.46674147059565
  C   -0.99214288291011     -0.09137699790970     -0.11592521494046
  Cl  0.62826653843933     -1.23512826733096     -1.97040798463958
  H   -1.39566051804589     -1.10459265582591     -0.00459628409888
  C   1.10593559402159      1.05041119851190     -0.69795740540610
  N   1.55258163075178      2.13163879275857     -0.81121222321719
  C   1.26475546597531     -1.00071502619087      0.64111717877252
  H   0.78544259168290     -1.96412585840044      0.82939623868042
  H   2.29758339631711     -1.17766015369146      0.34043522837821
  H   1.27184923811543     -0.40578585504547      1.55598611239655
  C   -1.69148443929935      0.55121988730110     -1.23764019815850
  N   -2.24702148524106      1.09355583221123     -2.11800717916505
  N   -1.26888531125947      0.65123351634937      1.09092766840754
  H   -0.92902046128728      0.17662910031831      1.91530682507282
  H   -0.89997638147322      1.59363856680513      1.05031870851334
