15
Coordinates from ORCA-job run
  C   0.54631938013022     -0.40539184582467     -0.18391448801643
  C   -0.79953725758893      0.33583289949270     -0.03338625965050
  Cl  0.41323031574693     -2.00583312335803      0.62083017463811
  H   -0.68074987742121      1.28507113401719     -0.56956287183520
  C   0.78924661697218     -0.62272232878037     -1.61058807128244
  N   1.04814426458766     -0.74220565392406     -2.75001085424485
  C   1.70300063063526      0.36513164299589      0.43989487842420
  H   1.78735343995941      1.34824289819090     -0.03125486862777
  H   1.53702572581024      0.48824992921579      1.51093435254523
  H   2.63577858050522     -0.17821911471266      0.28713842697628
  C   -1.03519974825440      0.65799953174278      1.38900858759657
  N   -1.27547820553140      0.91060905144522      2.51119658783381
  N   -1.86493309073662     -0.40343824467742     -0.67443496678130
  H   -2.68499949402540      0.17970435072712     -0.78332033312558
  H   -2.11820128078914     -1.21403112655039     -0.12253029445013
