15
Coordinates from ORCA-job run
  C   0.49131621455221     -0.37723566928007     -0.46790028296751
  C   -1.00349605363259      0.06519363236704     -0.30973498264399
  Cl  0.47809564048914     -2.13839187985886     -0.82730053728440
  H   -1.49604157357603     -0.16391436339011     -1.26116092187020
  C   1.06834352292408      0.30857466040157     -1.62210249215093
  N   1.53240763344652      0.88342491170524     -2.53646567845794
  C   1.32044214704365     -0.12740667415237      0.78217240914886
  H   0.89918454619811     -0.67845306916270      1.62397512785968
  H   1.33580143349071      0.94083734426197      1.01124604953225
  H   2.34364604241591     -0.46987347676238      0.62652935884665
  C   -1.02345146438312      1.52205489775337     -0.12295317886034
  N   -1.00310348754788      2.68135974087112      0.06192672477508
  N   -1.76104749300153     -0.55844540548822      0.74735109667646
  H   -1.78223740795154     -1.56334088432445      0.63287455348485
  H   -1.39985970046765     -0.32438376494113      1.66254275391149
