15
Coordinates from ORCA-job run
  C   0.60764329869982     -0.30130543960932     -0.41096158241820
  C   -0.88795301836449     -0.21741030433797     -0.02132276182168
  Cl  0.76765838113752     -1.47795437779219     -1.75197019711146
  H   -1.16642416417134     -1.21377229535737      0.33763558263988
  C   1.04019022121702      1.01422454940191     -0.88352579950192
  N   1.36001890335555      2.09744374342923     -1.20836662598049
  C   1.45810052080653     -0.76149586038590      0.76526057945238
  H   1.34300166975842     -0.06138969297151      1.59153219458363
  H   2.50521694445462     -0.81875495872676      0.46672668313132
  H   1.12766539641077     -1.75349154497798      1.08023903460043
  C   -1.72456120033769      0.09281507358762     -1.19670298072107
  N   -2.43613402899842      0.39756162667064     -2.08073240634668
  N   -1.04088422370315      0.73119995315558      1.06862173151408
  H   -1.93117339037725      0.59113698871893      1.53024230157212
  H   -1.02136530988790      1.68119253919508      0.71332424640767
