15
Coordinates from ORCA-job run
  C   0.54583777076302     -0.33950863487706     -0.04788828590131
  C   -0.88515251304647      0.28716227846460     -0.03953205992803
  Cl  0.57519692889283     -1.72411882949814      1.09054662247616
  H   -0.84385822289134      1.12443992817507     -0.74827756209948
  C   0.77482765826652     -0.85252136763447     -1.39862883900784
  N   0.91991754344446     -1.21729695367220     -2.50649195891718
  C   1.62274632320739      0.66137557967003      0.34598630709335
  H   1.44928003816408      1.00724891635030      1.36568685132201
  H   1.59988482552940      1.51614142778989     -0.33531708228355
  H   2.60733005999331      0.19595874165190      0.29371845622088
  C   -1.14620127190592      0.85303566904116      1.29108479104945
  N   -1.33813850029746      1.30196705967867      2.35833357206093
  N   -1.97792161850951     -0.56792433349708     -0.43116787757287
  H   -2.02548646849655     -1.38858163922038      0.15971004504730
  H   -1.87826255311376     -0.85637784242231     -1.39676297955980
