15
Coordinates from ORCA-job run
  C   0.43360529790116     -0.42428295981575     -0.43526093440318
  C   -0.99155271296585     -0.10101012534846      0.11035192149998
  Cl  0.30394750558056     -1.85259601838017     -1.50895506511071
  H   -1.32595600331776     -1.00539284869039      0.63213043943952
  C   0.91426660406886      0.71754146467219     -1.21156853534621
  N   1.28852474189255      1.67784356412897     -1.77634733612723
  C   1.40216747499857     -0.74967933245219      0.69536723225496
  H   1.00552046765024     -1.57602989991170      1.28969320050081
  H   2.36755601600161     -1.04676485830719      0.28518411804430
  H   1.55478210235158      0.12384350260520      1.33151141002909
  C   -1.91177463996002      0.13793557093903     -1.01062525664085
  N   -2.64582716705599      0.36365978824511     -1.89832850364836
  N   -1.07178425010442      1.01528209371114      1.02270368500890
  H   -0.75724204691397      1.87804918452039      0.59574761874947
  H   -0.56523339012713      0.84260087408382      1.87939600574950
