15
Coordinates from ORCA-job run
  C   0.54428825750440     -0.34244642779836     -0.04522177246297
  C   -0.88508278480880      0.28726529595523     -0.04344137977425
  Cl  0.56881783098804     -1.71977132901186      1.10218072185178
  H   -0.84178985522777      1.11679829663785     -0.76106965938580
  C   0.77492865145511     -0.86438769891144     -1.39234568607551
  N   0.92369513499467     -1.23666076351139     -2.49724415180854
  C   1.62305560715133      0.65824628966783      0.34419388541443
  H   2.60695388682911      0.19105526112137      0.29218371910496
  H   1.60051151766617      1.51104715017715     -0.33979455352329
  H   1.45116564084643      1.00781162647467      1.36305740745507
  C   -1.14391062794112      0.87015705571261      1.28010967798427
  N   -1.33148124857075      1.33927643342090      2.33942935195358
  N   -1.98005370589077     -0.56882697555195     -0.42606951030101
  H   -1.88138760727941     -0.86698919360405     -1.38883964016175
  H   -2.02971069771664     -1.38357502077856      0.17287158972902
