15
Coordinates from ORCA-job run
  C   0.56509918341439     -0.41404683132404     -0.48414968816196
  C   -0.92773192787544     -0.01757937016326     -0.30648115207578
  Cl  0.61125203813173     -2.14663456132017     -0.93115699177620
  H   -1.44254675350785     -0.31289807523626     -1.22568328895955
  C   1.13106124214641      0.35021619275022     -1.59636694525183
  N   1.58094900251889      0.98353324185988     -2.47834798765568
  C   1.36773086873566     -0.19983484812723      0.79024971692657
  H   2.40501131780733     -0.49516353002350      0.63143709243716
  H   0.94365276833753     -0.81632071354038      1.58318804012759
  H   1.34186524719262      0.85507897996481      1.07685683185588
  C   -1.01942402024805      1.44862896596289     -0.17815239286192
  N   -1.10521262472179      2.60726229820340     -0.00089640435459
  N   -1.51298897544676     -0.72509627623269      0.81488093930734
  H   -2.48568588279348     -0.93424253337711      0.63858600241964
  H   -1.45203148369122     -0.18190293939656      1.66603622802334
