15
Coordinates from ORCA-job run
  C   0.54933733424986     -0.39200221621042     -0.44518127267088
  C   -0.92712410931001      0.04952924937296     -0.25305196252914
  Cl  0.52181414946616     -2.15868667103715     -0.78890922784931
  H   -1.44867424877349     -0.16730378751682     -1.19724796381063
  C   1.09080704186600      0.27849801806553     -1.62689925031442
  N   1.51821478222777      0.84061085999887     -2.56629448986712
  C   1.40595491456374     -0.12900402107400      0.78272277306436
  H   0.95692442145007     -0.62447104107718      1.64180617934182
  H   1.45720983447708      0.94615173807763      0.97030508528921
  H   2.41494590267200     -0.50817809974619      0.61865021319940
  C   -0.95803103500048      1.50210402461779     -0.05071532196218
  N   -0.99588130650380      2.66296428410850      0.12130403757823
  N   -1.49922642577547     -0.61126166549571      0.91081965475813
  H   -1.74976393598327     -1.56246370860437      0.67029233307335
  H   -2.33650731962616     -0.12748696347942      1.21039921269919
