15
Coordinates from ORCA-job run
  C   0.55058734868777     -0.26509915445815     -0.42959525037868
  C   -0.98115650367171     -0.12612404522861     -0.16793335743133
  Cl  0.77225054568735     -1.27081275148135     -1.89536573425605
  H   -1.36070362622359     -1.14828978824904     -0.05319512488411
  C   1.11197911490063      1.06340283897486     -0.66849187161069
  N   1.53314260754819      2.15370653811589     -0.79334459319207
  C   1.25606777549171     -0.94253221627999      0.73898155468650
  H   2.30831949981658     -1.09749211738695      0.49977967896846
  H   0.79444552758188     -1.91373303844481      0.93131539993930
  H   1.19659417680325     -0.32080565347959      1.63390830607708
  C   -1.63420689123865      0.46797044078863     -1.34312320393241
  N   -2.15444579838427      0.97565683834829     -2.26460667421013
  N   -1.34742674383307      0.63728541500480      1.00162424381005
  H   -1.00852249306257      1.59047122016273      0.95430697878049
  H   -1.03692454010351      0.19639547361327      1.85573964763359
