15
Coordinates from ORCA-job run
  C   0.48610088473605     -0.38658071658844     -0.46613331240666
  C   -0.99616884026374      0.09968331529311     -0.31909506584144
  Cl  0.42303170228705     -2.14246961128123     -0.84682001358602
  H   -1.48469357926714     -0.10279846990799     -1.27858628395106
  C   1.09531884772326      0.29423242751846     -1.60652204751564
  N   1.57089962682861      0.86734116055708     -2.51600309363909
  C   1.30833497086656     -0.17724662226464      0.79577648096057
  H   1.35547019915756      0.88740135460770      1.03686998898581
  H   2.32169126238336     -0.55110943458340      0.64792767048833
  H   0.86009384926680     -0.72340643055771      1.62677101480890
  C   -0.97357956061713      1.55425970904402     -0.11542180800736
  N   -0.91998116365832      2.71040695273428      0.08200947864393
  N   -1.78459170471216     -0.51276007986865      0.72170820499767
  H   -1.83644854311355     -1.51488449249507      0.59377769724713
  H   -1.42647795161720     -0.30206906220750      1.64374108881492
