16

C	-0.135151	0.175268	-1.522824
C	0.0	0.0	0.0
F	-1.364283	0.74971	-1.895794
H	1.103042	0.0	0.0
N	0.937636	1.004759	-1.940054
H	1.780566	0.75767	-1.378947
H	1.114734	0.925565	-2.932452
C	-0.154788	-1.153659	-2.201456
N	-0.137063	-2.178474	-2.776606
C	-0.607582	-1.267698	0.582828
H	-1.66994	-1.366925	0.33806
H	-0.072456	-2.140741	0.205914
H	-0.503999	-1.255701	1.669544
C	-0.495057	1.194109	0.660351
N	-0.910454	2.117041	1.258151
F	2.637111	0.0	0.0
