16

C	-0.402526	-0.273452	-1.442914
C	0.0	0.0	0.0
F	-0.010017	-1.560143	-1.783214
H	1.103088	0.0	0.0
N	-1.827231	-0.212337	-1.653361
H	-2.19717	0.625552	-1.2211
H	-2.037857	-0.187188	-2.644294
C	0.33451	0.628811	-2.371949
N	0.783534	1.361335	-3.173091
C	-0.457129	-1.1077	0.946265
H	0.036033	-2.032796	0.647774
H	-1.540627	-1.257837	0.952543
H	-0.118331	-0.861644	1.954641
C	-0.512394	1.296307	0.387644
N	-0.961094	2.341271	0.694659
F	2.523465	0.0	0.0
