16

C	-0.094366	0.248157	-1.516956
C	0.0	0.0	0.0
F	-1.342124	0.752619	-1.891795
H	1.102396	0.0	0.0
N	0.930944	1.152663	-1.976632
H	0.691506	2.065427	-1.597364
H	1.784202	0.846158	-1.467665
C	0.053793	-1.041517	-2.236263
N	0.125945	-2.06569	-2.805044
C	-0.635544	-1.276647	0.528475
H	-0.540545	-1.315213	1.615735
H	-1.69732	-1.347369	0.271059
H	-0.11286	-2.142235	0.117365
C	-0.471865	1.188926	0.685221
N	-0.852075	2.144248	1.256666
F	2.61305	0.0	0.0
