16
Coordinates from ORCA-job run
  C   -0.78312443242564      0.24491954013408      0.26333660973778
  C   0.58465692031062     -0.39827292036257      0.50281611776194
  Cl  -1.62018600373266      0.41826417006507      1.81475191376975
  H   0.53148863396367     -1.21542274552241      1.21549405869812
  N   -1.62633078047201     -0.84005879970836     -0.49907087663120
  O   -2.48281668089361     -0.41064109658695     -1.25442625125297
  O   -1.37565069159047     -2.01061102144094     -0.24165247947896
  N   -0.71192788325062      1.47775412266284     -0.38194390657113
  H   -0.25723664160455      1.39334212773502     -1.28310171708851
  H   -1.62498803329990      1.90273264007646     -0.47655954608947
  N   1.54220073445928      0.63364418764608      1.03598480504403
  O   2.21510436384899      1.24145408776333      0.21413522520585
  O   1.53524952380095      0.77208731561435      2.25148260506262
  N   1.19742733056859     -0.94125225119697     -0.75331578457173
  O   0.77825291001090     -0.51840780823819     -1.82668809170744
  O   2.09888073030646     -1.75053154864083     -0.58024268188867
