16
Coordinates from ORCA-job run
  C   -0.79592047268622      0.00788016182634      0.23040723732499
  C   0.68594879352331     -0.09855796765337     -0.18070038352869
  Cl  -1.07328812857047     -0.63087556529942      1.82699729189871
  H   0.76861489448530      0.03432324858085     -1.25901633934423
  N   -1.59087927531949     -0.80871293414775     -0.82894566008478
  O   -2.38161459217437     -1.65483454981696     -0.46676514125798
  O   -1.36272011267702     -0.43789205083650     -1.97618995724331
  N   -1.33048716312702      1.32337739127710      0.12834152891936
  H   -1.07982761786985      1.89829091988876      0.92097694803858
  H   -1.08944192643897      1.76782338745139     -0.74921798206046
  N   1.29875440526705     -1.42985322409359      0.13657325775468
  O   0.61374751000475     -2.38108665850746     -0.21970363456083
  O   2.40922553884915     -1.45386536391750      0.64520736897118
  N   1.46415362421615      1.00681060443177      0.45049506561447
  O   1.53694403402404      1.02243180347024      1.67301493366014
  O   1.92879048849366      1.83574079734611     -0.33047453410182
