16
Coordinates from ORCA-job run
  C   -0.75770165538840      0.36548111507517      0.18705737380988
  C   0.54037555531700     -0.33866443851369      0.58869693409907
  Cl  -1.58383415325863      0.93199154459935      1.64782414175976
  H   0.40395437645774     -0.98277409774996      1.45181247469652
  N   -1.69609585159532     -0.77033566966709     -0.35921601118898
  O   -1.56180685078528     -1.88033268182439      0.14001295673886
  O   -2.50129545492184     -0.42900537757479     -1.20993134862643
  N   -0.56415113671442      1.42677814329922     -0.69482145465654
  H   -0.11449692868859      1.11647633178527     -1.54773342817649
  H   -1.43137589907569      1.90642102220401     -0.89741986815529
  N   1.58902622984087      0.68789634478871      0.92401665931977
  O   2.32244649680407      1.04783883635093      0.01287130255758
  O   1.58816090975590      1.07376732688269      2.08496806401267
  N   1.10610380051270     -1.18334725074533     -0.51292269559869
  O   1.92459890359819     -2.01950770337369     -0.15433105880574
  O   0.73709165814168     -0.95368344553640     -1.66088404178594
