16
Coordinates from ORCA-job run
  C   -0.75003846396878      0.11175051438651      0.17353305723398
  C   0.74379946670908     -0.11353175238446     -0.07256684454315
  Cl  -1.32013908860780     -0.62318808714189      1.64897488920604
  H   0.99510681552021      0.18669478410798     -1.08950208327100
  N   -1.49826308271653     -0.54382306334793     -1.04882441809751
  O   -2.48218266935890     -1.23087402423044     -0.85603747122270
  O   -1.04258035919100     -0.18560586173480     -2.13160868976988
  N   -0.98370817409515      1.50717574150385      0.20070306711965
  H   -0.75129670165323      1.94474451073729     -0.68389035919920
  H   -1.93332274796004      1.72427775109364      0.47521581788655
  N   1.16685789135317     -1.54728724850462      0.06050730139293
  O   2.30842006265744     -1.75453881326111      0.44477350214545
  O   0.34387587859864     -2.37214000427553     -0.31774805720072
  N   1.54616172899280      0.74861232067728      0.84904139129698
  O   2.08872680028786      1.71243050515559      0.31660013109322
  O   1.56958264343223      0.43730272721863      2.03082876592937
