16
Coordinates from ORCA-job run
  C   -0.75611750681662      0.03389608551902      0.05794056068067
  C   0.75440792984680     -0.07229847164221     -0.15329395904245
  Cl  -1.28033635440857     -0.95380068459832      1.45131985302262
  H   0.99110269624081      0.13367008641525     -1.19470294511999
  N   -1.47110008699024     -0.51653022542874     -1.20912516140708
  O   -0.81454360626245     -0.61119489307121     -2.23479397067907
  O   -2.66926123670341     -0.71032495871171     -1.08035610695907
  N   -1.15089415124489      1.39122844773567      0.09149821801610
  H   -0.82708969016329      1.83437681854932      0.94291971713485
  H   -2.16229020024171      1.45542076838682      0.04599010873588
  N   1.27467091249584     -1.45405738231453      0.15441197353057
  O   2.16158839265633     -1.55862970318871      0.98895449796064
  O   0.74559469052806     -2.34446240486193     -0.49427696967329
  N   1.53162770540084      0.89724850865621      0.67626147603878
  O   2.57779427876513      1.28810000070074      0.17030861230448
  O   1.09584622689736      1.18835800785432      1.78594409545635
