16

C	-0.551224	0.054466	-1.41991
C	0.0	0.0	0.0
Cl	0.06496	1.491883	-2.251484
H	1.094282	0.0	0.0
H	-0.35863	-0.932387	0.440586
N	-0.081143	-1.199102	-2.162129
O	0.502006	-1.106222	-3.231483
O	-0.402185	-2.251429	-1.61116
C	-2.066546	0.052092	-1.481229
H	-2.444384	-0.851548	-0.999927
H	-2.407005	0.085523	-2.518648
H	-2.426307	0.925322	-0.941118
N	-0.54566	1.13403	0.763387
H	-0.472045	0.895859	1.745449
H	0.089376	1.913326	0.625647
Cl	3.485489	0.0	0.0
