16

C	-0.597576	0.049567	-1.407803
C	0.0	0.0	0.0
Cl	0.079984	1.425512	-2.31296
H	1.094236	0.0	0.0
H	-0.357424	-0.934046	0.449407
N	-0.151925	-1.230858	-2.119783
O	1.014871	-1.311143	-2.469167
O	-0.996303	-2.121464	-2.228299
C	-2.106677	0.14291	-1.420531
H	-2.482786	0.119349	-2.443507
H	-2.389076	1.071577	-0.928802
H	-2.532079	-0.695295	-0.870562
N	-0.529153	1.132847	0.776944
H	0.088281	1.918282	0.594752
H	-0.396268	0.911796	1.75765
Cl	3.507521	0.0	0.0
