16

C	-0.417669	-0.031134	-1.460945
C	0.0	0.0	0.0
Cl	-2.217575	-0.022939	-1.598795
H	1.095632	0.0	0.0
H	-0.359544	0.927385	0.451701
N	0.021794	1.277394	-2.113412
O	0.565948	1.215897	-3.211663
O	-0.222818	2.311115	-1.499525
C	0.146223	-1.210188	-2.202436
H	-0.207869	-2.106928	-1.696415
H	-0.165338	-1.210632	-3.245616
H	1.235633	-1.166152	-2.135366
N	-0.46018	-1.212355	0.671367
H	0.262933	-1.511983	1.311887
H	-1.302649	-1.028109	1.198985
Cl	3.435937	0.0	0.0
