16

C	-0.382593	0.013837	-1.483271
C	0.0	0.0	0.0
Cl	-0.034181	-1.585926	-2.193421
H	1.093697	0.0	0.0
H	-0.374239	-0.914593	0.459693
N	-1.89437	0.181563	-1.622466
O	-2.598572	-0.383755	-0.790046
O	-2.320905	0.856527	-2.555827
C	0.340982	1.085189	-2.260712
H	0.111011	1.029206	-3.323322
H	1.412069	0.944953	-2.088783
H	0.043518	2.069063	-1.890694
N	-0.451174	1.156799	0.753046
H	0.117731	1.966418	0.551594
H	-1.430649	1.36116	0.613812
Cl	3.472548	0.0	0.0
