16

C	-0.364224	0.111231	-1.492773
C	0.0	0.0	0.0
Cl	0.026	-1.387518	-2.348215
H	1.093531	0.0	0.0
H	-0.344914	0.930937	0.464052
N	-1.871003	0.329268	-1.568584
O	-2.618617	-0.627217	-1.755611
O	-2.247803	1.476164	-1.327957
C	0.362469	1.266532	-2.139731
H	0.100576	1.3509	-3.195981
H	1.432072	1.077194	-2.032718
H	0.113234	2.193196	-1.624899
N	-0.509779	-1.139545	0.72567
H	0.039402	-1.956453	0.494449
H	-1.475873	-1.327537	0.496786
Cl	3.462434	0.0	0.0
