16

C	-0.425148	0.016112	-1.457527
C	0.0	0.0	0.0
Cl	0.066329	-1.488014	-2.251596
H	1.092518	0.0	0.0
H	-0.340808	0.942328	0.433653
N	-1.951311	0.132874	-1.518439
O	-2.614896	-0.658016	-2.17404
O	-2.408154	1.089395	-0.894218
C	0.170727	1.197267	-2.198974
H	-0.120196	1.178855	-3.251435
H	-0.171645	2.126577	-1.73872
H	1.257148	1.129635	-2.114114
N	-0.612241	-1.119856	0.711735
H	-0.802264	-0.839073	1.664561
H	0.064546	-1.870927	0.757931
Cl	3.489531	0.0	0.0
