11

C	-0.556766	-0.119334	-1.396786
C	0.0	0.0	0.0
Cl	-0.231437	-1.730536	-2.134039
H	1.092357	0.0	0.0
H	-1.64245	-0.007154	-1.402937
H	-0.084735	0.615147	-2.051766
H	-0.325413	0.985943	0.359865
N	-0.590704	-1.017374	0.888887
H	-0.114024	-1.88977	0.675962
H	-0.279833	-0.783751	1.825058
H	3.121727	0.0	0.0
