13

C	0.0	0.0	0.0
C	-0.531019	0.075952	-1.409985
Cl	1.854956	0.0	0.0
H	-0.273539	-0.856372	-1.938509
H	-0.250688	0.918779	0.525853
H	-1.618975	0.108375	-1.277221
N	-0.510536	-1.11414	0.679165
H	-0.28384	-1.992711	0.239175
H	-0.298429	-1.128841	1.663595
N	-0.075027	1.287897	-2.081678
H	-0.728919	1.523209	-2.815503
H	0.834006	1.137199	-2.499142
Cl	-4.118605	0.0	0.0
