13

C	0.0	0.0	0.0
C	-0.320857	0.115106	-1.51342
Cl	1.788199	0.0	0.0
H	0.137765	1.040959	-1.879079
H	-0.31393	0.898502	0.533211
H	0.221656	-0.704598	-2.000603
N	-0.545351	-1.137693	0.67516
H	-1.527865	-0.944468	0.862118
H	-0.504044	-1.94812	0.068
N	-1.695012	0.06873	-1.940238
H	-2.134724	-0.800505	-1.666662
H	-2.265424	0.763777	-1.472855
Cl	-4.208358	0.0	0.0
