13

C	0.0	0.0	0.0
C	-0.451388	-0.138455	-1.444473
Cl	1.805034	0.0	0.0
H	-0.139042	-1.134485	-1.80325
H	-0.288712	0.987754	0.359398
H	-1.542853	-0.112515	-1.402485
N	-0.510796	-0.995043	0.896667
H	-1.517162	-0.817732	0.953516
H	-0.393504	-1.910583	0.473936
N	0.021466	0.968271	-2.27239
H	-0.554826	1.032603	-3.101914
H	0.977308	0.801614	-2.562721
Cl	-3.685815	0.0	0.0
