13

C	0.0	0.0	0.0
C	-0.428148	0.346082	-1.430302
Cl	1.842649	0.0	0.0
H	0.05833	1.285594	-1.709169
H	-0.274175	0.789637	0.698907
H	-0.006199	-0.425933	-2.087662
N	-0.549021	-1.221268	0.427596
H	-0.251773	-1.998844	-0.145433
H	-0.399461	-1.418612	1.404584
N	-1.846711	0.44705	-1.666889
H	-2.279354	1.176099	-1.111924
H	-2.342918	-0.385799	-1.368735
Cl	-4.746678	0.0	0.0
