13

C	0.0	0.0	0.0
C	-0.4505	0.309561	-1.423104
Cl	1.85358	0.0	0.0
H	-1.538528	0.190888	-1.423647
H	-0.274064	0.801708	0.682257
H	-0.008287	-0.440553	-2.087993
N	-0.511577	-1.216998	0.453261
H	-0.39662	-1.393129	1.436779
H	-0.25717	-2.008858	-0.115039
N	-0.109766	1.63436	-1.924097
H	0.855826	1.844583	-1.701928
H	-0.694624	2.316458	-1.456316
Cl	-3.982133	0.0	0.0
