13

C	0.0	0.0	0.0
C	-0.50536	0.200731	-1.412503
Cl	1.872827	0.0	0.0
H	-0.075297	1.118344	-1.832194
H	-0.232095	0.862284	0.622922
H	-1.588653	0.317331	-1.29658
N	-0.519392	-1.169393	0.529351
H	-0.448442	-1.94755	-0.107618
H	-0.287525	-1.374255	1.485099
N	-0.233434	-0.996443	-2.208511
H	-0.957469	-1.114836	-2.902609
H	0.659598	-0.914539	-2.675878
Cl	-4.159124	0.0	0.0
