15

C	-0.408398	0.022603	-1.47102
C	0.0	0.0	0.0
F	-1.80279	0.039473	-1.573285
H	1.092161	0.0	0.0
H	-0.066001	-0.930722	-1.887323
C	0.17842	1.176212	-2.249474
H	-0.25828	2.120718	-1.925346
H	1.258401	1.211122	-2.082293
H	-0.029242	1.033743	-3.312142
C	-0.528449	-1.163905	0.700712
N	-0.91318	-2.133518	1.23954
N	-0.470907	1.249426	0.690193
O	0.171506	2.265042	0.453098
O	-1.466027	1.178114	1.409953
Br	3.396901	0.0	0.0
