15

C	-0.487893	-0.085619	-1.44796
C	0.0	0.0	0.0
F	-0.178088	1.13007	-2.049414
H	1.091852	0.0	0.0
H	-1.578296	-0.174861	-1.468556
C	0.215459	-1.201184	-2.182544
H	-0.062791	-1.172643	-3.238013
H	1.295558	-1.073321	-2.082277
H	-0.067699	-2.172995	-1.771683
C	-0.512753	-1.130845	0.761688
N	-0.928301	-2.066684	1.337061
N	-0.54766	1.266083	0.600606
O	0.246807	2.129535	0.944128
O	-1.775301	1.340289	0.669909
Br	3.438392	0.0	0.0
