12

C	-0.258266	-0.003058	-1.471332
C	0.0	0.0	0.0
Cl	-1.984833	0.072642	-1.980565
H	1.094995	0.0	0.0
H	0.18314	-0.865489	-1.963571
H	-0.373016	0.916467	0.458863
N	0.41207	1.193449	-2.098941
O	0.260554	2.277459	-1.548663
O	1.025927	0.99198	-3.142475
C	-0.546362	-1.17556	0.634615
N	-0.973218	-2.137514	1.159339
F	2.505573	0.0	0.0
