12

C	-0.567207	0.067897	-1.399738
C	0.0	0.0	0.0
Cl	0.237666	1.329554	-2.347838
H	1.091359	0.0	0.0
H	-1.637829	0.254244	-1.453045
H	-0.28797	0.928016	0.507624
N	-0.403869	-1.258164	-2.107095
O	-1.455841	-1.839355	-2.383269
O	0.726104	-1.665622	-2.328002
C	-0.57112	-1.118058	0.725414
N	-1.023765	-2.026589	1.319403
F	2.51636	0.0	0.0
