12

C	-0.255455	-0.00422	-1.471929
C	0.0	0.0	0.0
Cl	-1.982188	0.059393	-1.98376
H	1.094963	0.0	0.0
H	0.194035	-0.862817	-1.963421
H	-0.372273	0.916162	0.459649
N	0.406934	1.196708	-2.09806
O	0.248585	2.278747	-1.546702
O	1.021616	1.000531	-3.141996
C	-0.544743	-1.176456	0.634536
N	-0.970613	-2.139124	1.158566
F	2.506167	0.0	0.0
