12

C	-0.573083	0.027017	-1.397101
C	0.0	0.0	0.0
Cl	0.249242	1.241535	-2.395855
H	1.091398	0.0	0.0
H	-1.64237	0.227911	-1.455067
H	-0.284387	0.944016	0.479716
N	-0.430497	-1.322908	-2.067848
O	0.686511	-1.805785	-2.168731
O	-1.484486	-1.835193	-2.450388
C	-0.575035	-1.092937	0.759565
N	-1.038022	-1.980386	1.377361
F	2.516363	0.0	0.0
