12

C	-0.286853	-0.08757	-1.463463
C	0.0	0.0	0.0
Cl	-2.017553	-0.29487	-1.919243
H	1.092786	0.0	0.0
H	0.263102	-0.920633	-1.894215
H	-0.295641	-0.954261	0.447657
N	0.203609	1.118334	-2.221367
O	-0.132958	2.221898	-1.808658
O	0.880229	0.894959	-3.222418
C	-0.640842	1.071456	0.726665
N	-1.154716	1.890691	1.398663
F	2.511999	0.0	0.0
