12

C	-0.258194	-0.003068	-1.471346
C	0.0	0.0	0.0
Cl	-1.984731	0.072309	-1.980685
H	1.094966	0.0	0.0
H	0.183408	-0.865413	-1.96356
H	-0.373037	0.916465	0.45885
N	0.411969	1.193567	-2.098897
O	0.260258	2.277535	-1.5486
O	1.025892	0.992232	-3.142415
C	-0.546355	-1.175572	0.634603
N	-0.973232	-2.13752	1.159317
F	2.505594	0.0	0.0
