12

C	-0.573185	0.082776	-1.394376
C	0.0	0.0	0.0
Cl	0.243572	1.336043	-2.345562
H	1.091331	0.0	0.0
H	-1.640861	0.286799	-1.442822
H	-0.285275	0.9235	0.517637
N	-0.434002	-1.235739	-2.121431
O	0.679013	-1.729802	-2.215661
O	-1.484883	-1.714543	-2.556407
C	-0.574175	-1.123329	0.714024
N	-1.03858	-2.035331	1.29382
F	2.516118	0.0	0.0
