16

C	-0.441793	-0.021926	-1.459494
C	0.0	0.0	0.0
F	-1.833232	0.032921	-1.52917
H	1.092569	0.0	0.0
C	0.143697	1.185699	-2.172503
H	-0.26255	2.097986	-1.733629
H	-0.123543	1.144044	-3.229404
H	1.230036	1.176183	-2.058768
C	-0.013615	-1.241951	-2.16753
N	0.284956	-2.109163	-2.899129
N	-0.455485	-1.191286	0.79489
O	-0.365404	-1.094772	2.012654
O	-0.841711	-2.178125	0.177509
C	-0.487504	1.201812	0.662019
N	-0.884497	2.19528	1.147049
Cl	3.124428	0.0	0.0
