16

C	-0.51449	0.003172	-1.452333
C	0.0	0.0	0.0
F	0.156054	-0.94861	-2.188147
H	1.09549	0.0	0.0
C	-2.009981	-0.245304	-1.580285
H	-2.570713	0.504233	-1.018695
H	-2.240138	-1.242809	-1.208814
H	-2.290742	-0.18478	-2.633029
C	-0.193125	1.321535	-2.040232
N	-0.01895	2.35843	-2.563534
N	-0.389541	-1.242814	0.752642
O	-0.512518	-2.280286	0.108671
O	-0.490473	-1.140998	1.970995
C	-0.516656	1.15804	0.7127
N	-0.95514	2.114381	1.236592
Cl	3.1123	0.0	0.0
