16

C	-0.440645	0.004523	-1.460776
C	0.0	0.0	0.0
F	-1.832108	0.064998	-1.529925
H	1.092488	0.0	0.0
C	0.149397	1.222851	-2.152691
H	1.2366	1.202405	-2.045619
H	-0.124017	1.204638	-3.2085
H	-0.246685	2.130055	-1.69403
C	-0.013807	-1.205624	-2.188028
N	0.300718	-2.091427	-2.892052
N	-0.460819	-1.200348	0.776061
O	-0.837952	-2.183722	0.146506
O	-0.377934	-1.11563	1.99599
C	-0.484469	1.193666	0.679537
N	-0.868034	2.181465	1.186011
Cl	3.123851	0.0	0.0
