16

C	-0.442855	-0.027129	-1.480679
C	0.0	0.0	0.0
F	-0.299515	1.287449	-1.920939
H	1.095324	0.0	0.0
C	0.43742	-0.896394	-2.354292
H	0.1784	-0.708395	-3.398491
H	0.293451	-1.948676	-2.121482
H	1.477204	-0.621998	-2.164433
C	-1.875178	-0.359116	-1.614929
N	-3.014846	-0.603866	-1.758947
N	-0.393307	-1.243551	0.743853
O	-0.615406	-2.253702	0.079109
O	-0.406637	-1.175773	1.966379
C	-0.535123	1.157425	0.698188
N	-0.9617	2.104303	1.246668
Cl	3.156655	0.0	0.0
