16
Coordinates from ORCA-job run
  C   -0.44998166488506     -0.66569849019052      0.15988673552537
  C   0.52839052016887      0.13529423541100     -0.72543408062868
  Br  -0.28070468157968     -2.61143798451878     -0.48068408423267
  H   0.25399710080265     -0.01748637557714     -1.77630671173010
  N   -1.76485502781978     -0.17524012723432     -0.01345758984502
  H   -2.43554228091087     -0.75490559091874      0.47643882559130
  H   -2.02723416797726     -0.12184257569130     -0.98991511463402
  N   -0.06401123634004     -0.61374690379770      1.53894174630247
  H   -0.79287417844592     -0.19562176693505      2.10028622234816
  H   0.22629488343390     -1.50183822570939      1.91562071437890
  C   1.89103397860890     -0.36443354788397     -0.54536108579996
  N   3.00662643649976     -0.70725177183836     -0.41987202570240
  C   0.48187452389480      1.62745082695235     -0.37586513313706
  H   0.75236864270057      1.76399824918715      0.67131717220576
  H   1.19347047720764      2.17556080441444     -0.99621112566529
  H   -0.51785332535849      2.02819924433033     -0.54038446497676
