16
Coordinates from ORCA-job run
  C   -0.53366487032930     -0.41379147410447      0.49626095835905
  C   0.55004649101515      0.21971514476644     -0.41294260311023
  Br  -0.54470501109110      0.54471869370616      2.21896339908850
  H   0.47390923644985     -0.33506671121398     -1.36144343189157
  N   -0.30527250891407     -1.80130452171190      0.83516492380985
  H   -0.25341908321664     -2.35184956295130     -0.01702843270350
  H   0.55540573179852     -1.92336263687477      1.35755286043109
  N   -1.80957273529606     -0.20950436725613     -0.12957535093975
  H   -2.51705373775771     -0.68792043485390      0.41747767025360
  H   -1.80034810318260     -0.60941191852508     -1.06344642343898
  C   1.87988296189520     -0.06616875390051      0.12597747260383
  N   2.94680775659535     -0.29824387593162      0.55815928421675
  C   0.37207082087890      1.71104073189094     -0.70301685404620
  H   -0.64984722714188      1.89800000499449     -1.03089389519932
  H   0.56563576515582      2.29987766088599      0.19274573372991
  H   1.06812451314057      2.02427202107963     -1.48395531116303
