16
Coordinates from ORCA-job run
  C   -0.47960802623562     -0.61561469843190      0.16120416951951
  C   0.73674472645844      0.14917769101701     -0.40684486232086
  Br  -1.50331802414342     -1.35566415618657     -1.42120971947715
  H   1.39262149347930     -0.57984812457551     -0.89807943582098
  N   -1.38352036306661      0.29668710760366      0.80979648238074
  H   -1.01139084945125      0.51013120588584      1.73088496651695
  H   -2.30613050448303     -0.10709244874534      0.90799751117970
  N   -0.02246992054215     -1.65350898045559      1.01363521586527
  H   0.60364298179218     -2.29673708037910      0.54383155728958
  H   -0.79501541279972     -2.17227939555027      1.41324354007163
  C   1.46173479703960      0.70783162116167      0.74102439512209
  N   2.02008488837586      1.20471508414875      1.64680586136569
  C   0.38469142319227      1.27225015074978     -1.38365463318356
  H   1.27843717133053      1.85550749625408     -1.61229718887453
  H   -0.36437414218828      1.92319942344358     -0.93441909805155
  H   -0.01113023875811      0.86124510405993     -2.31091876158254
