16
Coordinates from ORCA-job run
  C   -0.42661529372849     -0.38299623004938      0.53334358583481
  C   0.60723363275558      0.17155270360806     -0.46619097620516
  Br  -0.27174538937573      0.55516551572153      2.24900280554489
  H   0.44329615825636     -0.40050949270696     -1.39376035306344
  N   -0.09416959343730     -1.76233107504743      0.80473753561118
  H   -0.72285840350455     -2.15781716195129      1.49417824817135
  H   -0.15846385101252     -2.30547762051469     -0.05114913833752
  N   -1.75261220781350     -0.07436483980680      0.02648842569143
  H   -2.45376778216525     -0.29489657967066      0.72450741859958
  H   -1.92894104179145     -0.65036330337278     -0.79246017299143
  C   1.97216707986924     -0.12226868091636     -0.02590161622231
  N   3.09386201060586     -0.29538023866069      0.27409354405753
  C   0.44946992733295      1.65869360331564     -0.78614583942463
  H   1.12720752475642      1.93481837193984     -1.59617045931004
  H   -0.57810191815421      1.86389974086810     -1.08157057901663
  H   0.69303914740660      2.26227528724387      0.08799757106038
