17

C	-0.422015	0.004783	-1.452621
C	0.0	0.0	0.0
F	-1.827421	-0.080166	-1.53649
H	1.094021	0.0	0.0
H	-0.146967	0.964629	-1.890182
C	0.194028	-1.132457	-2.233376
H	-0.035769	-1.022278	-3.295258
H	1.277441	-1.120904	-2.092618
H	-0.201327	-2.091884	-1.896099
C	-0.514658	-1.173244	0.805305
H	-0.146025	-1.11379	1.827313
H	-0.134764	-2.096886	0.366485
H	-1.605056	-1.20077	0.819951
N	-0.414193	1.30112	0.633802
O	-0.249179	2.327576	-0.019326
O	-0.858036	1.279181	1.781829
Br	3.491667	0.0	0.0
