17

C	-0.415133	-0.045955	-1.455037
C	0.0	0.0	0.0
F	-1.820807	-0.104447	-1.543075
H	1.093719	0.0	0.0
H	-0.116922	0.889965	-1.92809
C	0.179408	-1.226712	-2.185771
H	1.262869	-1.231	-2.042136
H	-0.045819	-1.154692	-3.252138
H	-0.237413	-2.163448	-1.811401
C	-0.51509	-1.146356	0.842558
H	-0.180382	-1.032354	1.871867
H	-1.604687	-1.198579	0.825967
H	-0.098944	-2.078855	0.458289
N	-0.42917	1.320652	0.576533
O	-0.955081	1.333747	1.689556
O	-0.21084	2.328028	-0.093401
Br	3.493606	0.0	0.0
