17

C	-0.46755	-0.006117	-1.449477
C	0.0	0.0	0.0
F	0.067828	1.102743	-2.099904
H	1.091264	0.0	0.0
H	-0.016759	-0.892002	-1.910411
C	-1.96386	0.02233	-1.68424
H	-2.394449	0.93492	-1.270564
H	-2.151396	0.002588	-2.760159
H	-2.460698	-0.835118	-1.227142
C	-0.491063	-1.200252	0.786705
H	-0.126807	-2.109998	0.303096
H	-1.577033	-1.232694	0.867072
H	-0.065155	-1.172435	1.791231
N	-0.472682	1.265121	0.642231
O	0.277605	2.235507	0.625863
O	-1.616252	1.269696	1.118081
Br	3.585505	0.0	0.0
