15

C	0.0	0.0	0.0
C	-0.599134	-0.111252	-1.388039
F	1.374685	0.0	0.0
H	-0.473829	-1.145299	-1.735109
H	-1.681965	0.086047	-1.25034
N	-0.331922	1.386971	0.572446
O	-0.715136	1.460712	1.733802
O	-0.102213	2.337917	-0.171841
C	-0.513353	-1.068995	0.917162
H	-0.099372	-0.927743	1.914116
H	-0.196659	-2.038398	0.526893
H	-1.605477	-1.01237	0.951195
C	-0.070968	0.776074	-2.424448
N	0.299226	1.436843	-3.324661
Br	-3.878114	0.0	0.0
