15

C	0.0	0.0	0.0
C	-0.549893	0.147411	-1.405901
F	1.358789	0.0	0.0
H	-1.649546	0.164852	-1.322951
H	-0.209865	1.089843	-1.836759
N	-0.340977	1.282248	0.776851
O	-0.424645	1.189337	1.996752
O	-0.388976	2.329246	0.136941
C	-0.506823	-1.205295	0.736126
H	-0.052904	-1.246434	1.724663
H	-1.594249	-1.145202	0.815588
H	-0.227005	-2.095304	0.16844
C	-0.109876	-0.960761	-2.244464
N	0.255282	-1.843686	-2.92666
Br	-3.84023	0.0	0.0
