15

C	0.0	0.0	0.0
C	-0.560762	0.237239	-1.388295
F	1.358493	0.0	0.0
H	-1.634376	0.453897	-1.275874
H	-0.475908	-0.701019	-1.944672
N	-0.332099	1.204355	0.896944
O	-0.752259	2.226991	0.365964
O	-0.063083	1.067023	2.087806
C	-0.526363	-1.253636	0.636328
H	-1.618821	-1.208851	0.657103
H	-0.198701	-2.108522	0.039844
H	-0.126777	-1.340161	1.645652
C	0.139616	1.279231	-2.132423
N	0.717755	2.072784	-2.776368
Br	-3.867336	0.0	0.0
