15

C	0.0	0.0	0.0
C	-0.583823	0.041075	-1.396011
F	1.374472	0.0	0.0
H	-1.673466	0.203943	-1.276049
H	-0.467827	-0.9604	-1.826058
N	-0.322071	1.31304	0.727275
O	-0.608805	1.25947	1.919228
O	-0.169326	2.337651	0.068984
C	-0.507808	-1.172066	0.789221
H	-0.096287	-1.145314	1.796477
H	-1.600031	-1.131488	0.8314
H	-0.188429	-2.088783	0.287137
C	-0.011576	1.004034	-2.332324
N	0.371961	1.675689	-3.21243
Br	-3.861292	0.0	0.0
