15

C	0.0	0.0	0.0
C	-0.593133	0.465744	-1.31035
F	1.358478	0.0	0.0
H	-0.478233	-0.333167	-2.04794
H	-1.669856	0.614065	-1.137575
N	-0.323678	1.051151	1.081575
O	-1.164691	1.907082	0.837857
O	0.327613	0.94859	2.118937
C	-0.544861	-1.322132	0.457844
H	-0.249672	-2.094293	-0.257281
H	-0.124763	-1.560242	1.435907
H	-1.635482	-1.259834	0.506431
C	0.041822	1.675833	-1.824697
N	0.546536	2.634479	-2.274981
Br	-3.992097	0.0	0.0
