13
Coordinates from ORCA-job run
  C   0.03068389490477      0.04209638166702      0.41959576725318
  C   1.20085470206650     -0.69769724569915     -0.20456495086976
  H   0.09996653847031      0.03965131939449      1.50794989907177
  H   1.17254792391603     -1.74635400335729      0.09883748463656
  H   1.14422966160355     -0.64386491073151     -1.29237722178223
  H   2.15240654503551     -0.27198013692420      0.12095522418973
  C   -1.32091191204915     -0.47254326252890     -0.04325824778160
  H   -1.44074011531966     -1.51245510599470      0.26784521679209
  H   -1.39359731171884     -0.41929164984296     -1.13013983278137
  H   -2.13349592056188      0.11182253111433      0.39368019155216
  N   0.13679075279410      1.49463657429953      0.04879598232956
  O   0.08399491850658      1.76741977935255     -1.14844161618275
  O   0.26827032235218      2.30855972925079      0.96112210357268
