13

C	-0.43744	0.06378	-1.440191
C	0.0	0.0	0.0
Br	-2.385347	0.117228	-1.625747
H	1.095524	0.0	0.0
H	-0.05492	0.945584	-1.945788
H	-0.356842	-0.931823	0.448137
N	0.028726	-1.123531	-2.227364
O	-0.114478	-2.229823	-1.717227
O	0.505096	-0.895341	-3.336568
N	-0.442969	1.218895	0.673005
H	0.28919	1.511923	1.307306
H	-1.285431	1.047624	1.206028
Cl	3.409806	0.0	0.0
