13

C	-0.569343	-0.077648	-1.41744
C	0.0	0.0	0.0
Br	0.136194	-1.566771	-2.416657
H	1.090557	0.0	0.0
H	-1.65377	-0.179485	-1.413976
H	-0.330174	-0.914019	0.505346
N	-0.329429	1.215159	-2.149433
O	-1.288906	1.993608	-2.13791
O	0.770822	1.442131	-2.626255
N	-0.457486	1.17237	0.728935
H	0.159188	1.951312	0.539136
H	-1.401582	1.438508	0.481332
Cl	3.480609	0.0	0.0
