16
Coordinates from ORCA-job run
  C   0.66145447104793      0.53474310983813      0.56990905780492
  C   -0.47077862725812     -0.44838763489268      0.23481835643949
  F   0.25880844229137      1.32489043161129      1.63666268854717
  H   -0.65645068987690     -1.01800226309022      1.15695699094112
  C   1.83834810456330     -0.23677539637242      1.05644769297506
  N   2.76448829797175     -0.88850696376318      1.36977843193922
  N   0.93999257185697      1.36317423846121     -0.54925970633570
  H   0.94854338505650      0.78004130459788     -1.37917951172823
  H   1.82244133276680      1.84844979037172     -0.45266764959836
  N   -0.00993356886062     -1.27495951194102     -0.87885089407893
  H   0.60657280849997     -2.01034276660346     -0.55128240963597
  H   -0.80019295542923     -1.71607982189537     -1.33214832009912
  C   -1.73706860345848      0.29913714567417     -0.15038431976749
  H   -2.56422761648271     -0.40879857233885     -0.25278888367386
  H   -1.60112312397049      0.82559183971375     -1.09516431965474
  H   -2.00087422871804      1.02582507062906      0.61715279592543
