16
Coordinates from ORCA-job run
  C   0.70838604611947      0.55800900523670     -0.06737710210942
  C   -0.42218316773546     -0.47400705483181     -0.01933381117479
  F   0.33512425243515      1.64516330174986     -0.82496897520915
  H   -0.04481749089403     -1.28721549336918      0.62884201022622
  C   0.98832999757132      1.06988363646998      1.30182575923350
  N   1.26190473645860      1.42026904623107      2.38912521771766
  N   1.87184545160181     -0.00618089889168     -0.70371001424811
  H   2.58396982579432      0.70819516414229     -0.80750986111217
  H   2.25079725518262     -0.75659689593185     -0.13738250907300
  N   -0.69897333921513     -0.88910524477495     -1.38493619195450
  H   -1.30824255501985     -1.69732046220104     -1.37699323797603
  H   0.16526333227012     -1.13361831768026     -1.85226540954882
  C   -1.68105051301743      0.10819189733772      0.60468490483484
  H   -2.00391253274456      0.97374446633662      0.02563045841637
  H   -1.52563421503240      0.39845452375796      1.64599317934338
  H   -2.48080708377453     -0.63586667358143      0.57937558263403
