16
Coordinates from ORCA-job run
  C   0.82516791773787      0.48948011505467      0.08592430738173
  C   -0.33588187881524     -0.51558165612648      0.08367393901666
  F   0.49422550433244      1.47950247912178     -0.88001144883511
  H   -0.08191653885814     -1.26709489940171      0.83766919625032
  C   0.92321355038623      1.21026449019614      1.36992788273361
  N   0.98661105574691      1.77003738296267      2.39948017912724
  N   2.03496996560930     -0.16249925544683     -0.20145696616178
  H   1.89483927605921     -0.76101795823138     -1.00724001008581
  H   2.79794314323726      0.48653139072019     -0.33843541037250
  N   -0.29974064634195     -1.17170587569823     -1.22299922335749
  H   -0.81309645401078     -2.04294588487013     -1.18668728564574
  H   -0.74565575480812     -0.57478127443558     -1.91044468498158
  C   -1.66532944401903      0.14394771153230      0.43057483284714
  H   -1.89767577946318      0.92978710487124     -0.29107602618338
  H   -1.65238901328917      0.58668199674656      1.42937353063803
  H   -2.46328490350364     -0.60160586699520      0.40072718762865
