16
Coordinates from ORCA-job run
  C   0.77559753767224      0.41036431540264      0.47566136275613
  C   -0.44335020444044     -0.50133807971667      0.31136542744546
  F   0.47901848603378      1.31803210357511      1.51393269687802
  H   -0.61814281437390     -0.93866885785689      1.29987430017438
  C   1.94766054241430     -0.36373758121151      0.92650611423887
  N   2.86602847668986     -0.98206003628663      1.31481260576896
  N   1.08972989525186      1.07874278879818     -0.73607852318797
  H   0.35998154233320      1.74033010689646     -0.96969319765934
  H   1.97297475761938      1.56866788470944     -0.67023467516753
  N   -0.05397877225225     -1.57412988600748     -0.58687704109602
  H   0.08371717911250     -1.20556263748610     -1.52025964034503
  H   -0.76946863899496     -2.28880149399046     -0.61951486741481
  C   -1.68137359586655      0.29500711761450     -0.10284695333551
  H   -1.58802649976683      0.65475384055854     -1.13145375233759
  H   -1.86141324490014      1.14242234332078      0.56224299172890
  H   -2.55795464653204     -0.35602192831992     -0.06743684844691
