16
Coordinates from ORCA-job run
  C   0.75415381716672      0.41113155849532     -0.05926116183046
  C   -0.47139332238434     -0.51644684869025      0.05808938196163
  F   0.53313422742417      1.31009799498192     -1.09102816875560
  H   -0.23140333650665     -1.24811710638447      0.84140232439019
  C   0.94105580872841      1.21756426643094      1.17288054374370
  N   1.12054979179187      1.79081306468175      2.18284862520211
  N   1.91826690583431     -0.34980557434043     -0.42229389799502
  H   2.13738511229739     -1.02220127336460      0.30372810155775
  H   2.71530453953079      0.26585487495343     -0.54074727702444
  N   -0.71957154787834     -1.23880554740416     -1.17657681584526
  H   0.15060462732233     -1.63739568599445     -1.51169624977103
  H   -1.02981928267612     -0.57855506657405     -1.88145420722475
  C   -1.71638542050271      0.25747932325948      0.46244249552322
  H   -1.61801144123104      0.70530234246341      1.45244036916512
  H   -2.56726955842791     -0.42413535887407      0.46676102027541
  H   -1.91560092048887      1.05521903636024     -0.25753508337257
