16
Coordinates from ORCA-job run
  C   0.78530811917490      0.41700660618214      0.44407770416455
  C   -0.44242222835438     -0.49119125670882      0.34176733204162
  F   0.52390666515319      1.35697561875113      1.46278929644828
  H   -0.59565909967235     -0.89131518375612      1.34945801793657
  C   1.96839737199091     -0.34836352166051      0.88180850205471
  N   2.94071205631341     -0.89618369226096      1.24384283416313
  N   1.06959541541278      1.04673230219721     -0.79542480736675
  H   1.95917408265051      1.52900099760841     -0.77018968267196
  H   0.33924755123147      1.70917398295199     -1.02509631911031
  N   -0.07844101333655     -1.59760140838581     -0.52598946700080
  H   0.04022837585498     -1.26310624888184     -1.47473199710027
  H   -0.79756477487330     -2.30932486119689     -0.51739973320745
  C   -1.68594165434697      0.29650099567942     -0.07172869805718
  H   -1.61433968699933      0.61956733198747     -1.11413465797836
  H   -1.84632540397638      1.16770751834378      0.56729963689400
  H   -2.56487577622289     -0.34757918085060      0.00665203879022
