16
Coordinates from ORCA-job run
  C   0.84307236228504      0.33114394858069      0.35208196740554
  C   -0.53905114364988     -0.31841581054066      0.31547252612821
  F   1.50292666401121     -0.20665810833132      1.48605734447909
  H   -1.05564934738363      0.06225293891365      1.21538554468726
  C   1.65443830930946     -0.06203869206844     -0.81502419631844
  N   2.30851217687296     -0.33146807626787     -1.75096243976955
  N   0.75819056301645      1.74064037079817      0.41778504578795
  H   0.23020728446058      2.02617652374458      1.23332921840414
  H   1.67557776538314      2.16747873746453      0.43886327008220
  N   -0.34634213197976     -1.75903470510159      0.32484102712183
  H   0.06040005200629     -2.05533953841930      1.20259249084052
  H   -1.23616428880400     -2.22748195503138      0.21064216470149
  C   -1.31601906010359      0.08942563580719     -0.92472691959640
  H   -1.41117265362751      1.17257665136082     -0.99296974392506
  H   -2.31824726597062     -0.34680680307161     -0.89374558998173
  H   -0.81067928582613     -0.28245111783745     -1.81862171004704
