16
Coordinates from ORCA-job run
  C   0.81290679768542      0.28572583854316      0.39241176573832
  C   -0.60886086205294     -0.30371954483739      0.35096800325241
  F   1.45908168248532     -0.31125519073324      1.50348846157842
  H   -1.08337419619618      0.04960231931145      1.27725065981556
  C   1.58274769397921     -0.14064641716327     -0.79177562471752
  N   2.15483580454785     -0.51371301757288     -1.74641336520103
  N   0.80378340583286      1.69438663814377      0.48440098717542
  H   0.25268215771241      1.99402744377288      1.27939839980787
  H   1.73983352849706      2.07298992143189      0.55632068456189
  N   -0.63105260635720     -1.75290396478010      0.37911170508656
  H   -0.29214270403514     -2.12788882328164     -0.49993582768353
  H   -0.03927889218726     -2.10277465384284      1.12192489642213
  C   -1.39037349503221      0.20372998606474     -0.84941627328480
  H   -2.40125559878029     -0.20412049805083     -0.80965323188476
  H   -1.43568172480105      1.29176962061355     -0.86901577267013
  H   -0.92385099129787     -0.13320965761924     -1.78006546799681
