16
Coordinates from ORCA-job run
  C   0.78370964761820      0.50071611279682      0.54241470841567
  C   -0.42236345459519     -0.42519984456181      0.28948344291296
  F   0.45412074137674      1.34265744236483      1.58829960506956
  H   -0.63571878979915     -0.92574325776866      1.24593276713818
  C   1.92420058158030     -0.34381436510198      0.97254742593829
  N   2.77750135246416     -1.08083251235719      1.29828231474211
  N   1.20045541995145      1.32056094653707     -0.55885991739256
  H   0.48198295607516      2.01423006734247     -0.73360435606590
  H   1.28337051105479      0.72498264210920     -1.37661294215203
  N   -0.02463130755167     -1.34253883627689     -0.77555983216718
  H   -0.84304894759878     -1.74538504610057     -1.21419092924389
  H   0.53021278211025     -2.10544014036153     -0.40464498214151
  C   -1.64262543605066      0.37277650270103     -0.13642040313946
  H   -2.52110242469915     -0.27658075660612     -0.16470677222531
  H   -1.84588188259463      1.18234298138029      0.56530022479886
  H   -1.49918174934181      0.78726806390306     -1.13666035448778
