16
Coordinates from ORCA-job run
  C   0.78873497682707      0.57590416361576      0.08334163027985
  C   -0.32200865847421     -0.48100443492073     -0.05317755128485
  F   0.21405219627725      1.80552996574656     -0.32328118855258
  H   0.07221851007998     -1.38844267734377      0.41826582235713
  C   1.15434923998547      0.75761880737596      1.50180461734113
  N   1.45042841480590      0.85973250179297      2.63316303231942
  N   1.90668749954190      0.27069570566417     -0.69817091364728
  H   2.81037510265888      0.30233251373269     -0.26238049326181
  H   1.74231299054660     -0.47066039011016     -1.36121505756686
  N   -0.45409727167103     -0.76517341352986     -1.48024168098961
  H   -1.06139231116680     -1.56368910316051     -1.61680053066411
  H   -0.88115463708364      0.03103527185118     -1.94135330508064
  C   -1.60918662677197     -0.05934174220818      0.64567105090289
  H   -1.44712716215155      0.14042748810277      1.70818789309797
  H   -2.35191792801139     -0.85678848381138      0.56206008819611
  H   -2.01327433539247      0.84282382720253      0.18412658655323
