16
Coordinates from ORCA-job run
  C   0.78978507245914      0.34013418039341      0.03875997289384
  C   -0.51879369676519     -0.46699505190527     -0.07343581063279
  F   0.65986518104889      1.50148121564060     -0.70634576869131
  H   -0.35332282855910     -1.40275907488724      0.47750454727397
  C   1.04687610524734      0.76105749460370      1.43872670884096
  N   1.27469905473312      1.02109180803352      2.56181330304703
  N   1.87787317894604     -0.39824757451996     -0.54172966760471
  H   2.03093666091321     -1.25821158331504     -0.02751520225688
  H   2.72977567424301      0.15083055299385     -0.50949973702142
  N   -0.82769678556318     -0.80107443774289     -1.45222131418057
  H   0.00318179251432     -1.17108590093627     -1.90063891833284
  H   -1.07066532697585      0.05163053476427     -1.94521229413902
  C   -1.68714322623366      0.27954775307014      0.55084338971547
  H   -2.59765938130979     -0.29893741813833      0.39344537568953
  H   -1.54942267602520      0.43642271321798      1.62161789372489
  H   -1.81028879867308      1.25511478872754      0.07388752167384
