16
Coordinates from ORCA-job run
  C   0.83919387810147      0.26756429514131      0.53535786025753
  C   -0.54861441848341     -0.34003965447978      0.31970057090031
  F   1.40181930126907     -0.38932214745403      1.63805046829018
  H   -1.13283288716248     -0.01018098881847      1.19528754728576
  C   1.73080606314328     -0.04210624610858     -0.60608337613401
  N   2.43325603570332     -0.19487002590963     -1.53453425938019
  N   0.77178386160131      1.65367766133311      0.82983050692411
  H   1.59608032081034      2.16788803363119      0.55752417442665
  H   -0.06285564900097      2.09833378389608      0.48296278391107
  N   -0.37899912308917     -1.78186392062827      0.23668163447357
  H   -0.01043611273788     -2.13936768228073      1.10868539039336
  H   -1.27328816416277     -2.22441644666516      0.06578122433860
  C   -1.20737075876064      0.15082716399186     -0.96139934604441
  H   -1.35304031393723      1.23267057203046     -0.97920030743508
  H   -0.60828777643110     -0.14288697748450     -1.82541446448567
  H   -2.19521425686316     -0.30590742019485     -1.06323040772177
