16
Coordinates from ORCA-job run
  C   0.78269798942027      0.39495045207055      0.46645806462130
  C   -0.44193334256779     -0.50964093763978      0.30969436831802
  F   0.51343239201319      1.28020148460661      1.53139716788820
  H   -0.59814252184388     -0.96475599129367      1.29327666559469
  C   1.96412827736175     -0.38987832424634      0.87347233319180
  N   2.92141607389595     -0.95679477274245      1.24590048288885
  N   1.07196542178461      1.08934889592437     -0.73688238443509
  H   1.95945622948009      1.57265812784484     -0.68079345458096
  H   0.34091283408461      1.76089854577626     -0.93559501549806
  N   -0.06956814231265     -1.56626123082526     -0.61488166681505
  H   -0.78616664272530     -2.27977053410062     -0.64902326291278
  H   0.05302310818869     -1.18031961410750     -1.54337820664436
  C   -1.68579209819757      0.29582042210284     -0.06586903681168
  H   -1.85085828388466      1.13025739948809      0.61929740263729
  H   -1.61126497368501      0.67597493225813     -1.08860123428741
  H   -2.56330632101232     -0.35368885511605     -0.02647222315477
