16
Coordinates from ORCA-job run
  C   0.86499046725110      0.38880714764201      0.40555232145790
  C   -0.49363044713216     -0.32790997439021      0.40742949853278
  F   1.51387210741235      0.07394898693345      1.60432644804506
  H   -0.97660923688602     -0.00098452327490      1.33709299514850
  C   1.70814439674254     -0.14488890815913     -0.68433576643369
  N   2.33714285507241     -0.58820225114203     -1.57032126888572
  N   0.71917525504952      1.79169798116550      0.24279070755200
  H   1.62093432537725      2.25213470164037      0.26852791798615
  H   0.13784074369492      2.16514253021107      0.98444836407560
  N   -0.24643949468897     -1.75883944953202      0.52190457980927
  H   -0.15196801338363     -2.17214877191790     -0.39893209652445
  H   -1.01802355402220     -2.21553261543673      0.98877601218808
  C   -1.34447218877866      0.06972832516526     -0.79522269702277
  H   -0.83600462894565     -0.20952884885116     -1.72313646595783
  H   -1.54118989445609      1.14100767745680     -0.83197432552945
  H   -2.29576269230671     -0.46643200751040     -0.75592622444144
