16
Coordinates from ORCA-job run
  C   0.73010625612463      0.62944634303034      0.17976670248259
  C   -0.27423241944072     -0.49276569215818     -0.13811345528956
  F   0.02392491068985      1.84709110144328      0.01905847502069
  H   0.22314719287161     -1.42616478144746      0.14929551032322
  C   1.12177324539522      0.58115412527115      1.60203746068609
  N   1.44247096823674      0.50092918733992      2.72843099665024
  N   1.84728522980102      0.59175446881225     -0.65988095400898
  H   1.73515530421463     -0.02682223120352     -1.44795632672585
  H   2.75680831648348      0.63257636735204     -0.23690190057847
  N   -0.42304294438326     -0.52084594860518     -1.59157505142731
  H   -0.95334170843849     -1.33867660425159     -1.86575790584707
  H   -0.94218369744406      0.29792198894317     -1.89027759307264
  C   -1.57389365214353     -0.34339245189172      0.64373258736413
  H   -1.39871879771360     -0.32845550977875      1.72265531673294
  H   -2.23635652886213     -1.18371888090138      0.42152506657279
  H   -2.07990167539140      0.58196851804562      0.36496107111720
