16
Coordinates from ORCA-job run
  C   0.79891704567742      0.21377638798833      0.52176549244238
  C   -0.61564143496337     -0.36863446878361      0.38398097710835
  F   1.42025248980358     -0.43043815430484      1.58356278522680
  H   -1.08632660116510     -0.14701149494844      1.34806408637150
  C   1.59771998087307     -0.12512171998617     -0.68795640404137
  N   2.17192070474995     -0.34687229637586     -1.68890198944712
  N   0.78380601268726      1.60757075254013      0.84733993601821
  H   0.35092186433357      2.14777376654141      0.10969660797666
  H   1.73069344848996      1.94403636289118      0.98134524150622
  N   -0.61737026956678     -1.80779455171592      0.20096612206100
  H   -0.05404884906765     -2.25684264630410      0.91226696166604
  H   -0.24065555142179     -2.05592094235586     -0.70721304442803
  C   -1.40206235454306      0.29108051755481     -0.73800707388980
  H   -1.58371280193573      1.35049490883875     -0.54838214513739
  H   -2.36917164472330     -0.20580887223747     -0.81980591095315
  H   -0.88624203922801      0.18671245065765     -1.69772164248030
