16
Coordinates from ORCA-job run
  C   0.76762936369786      0.56678589376609      0.13130814086849
  C   -0.28952229909326     -0.54516396001261      0.06553117335459
  F   0.39764596905290      1.52470475463446     -0.85247100710066
  H   -0.00798922311465     -1.27007643827126      0.83555950635587
  C   0.72403067465468      1.28716602548733      1.41885176570629
  N   0.67662273324351      1.84480258879608      2.45044934439266
  N   2.04865225434232      0.03543488796503     -0.08708354070983
  H   2.75260680477153      0.75558671992216     -0.17808782690659
  H   2.01307991386169     -0.56781923974628     -0.90095232098712
  N   -0.11626737392420     -1.19207190842471     -1.23461670148268
  H   -0.53896159786944     -2.11136536074755     -1.22278424303220
  H   -0.58264812151572     -0.64284569407233     -1.94767820546265
  C   -1.69380205380529     -0.01703602689629      0.33352600181051
  H   -1.77978609620825      0.42668013964631      1.32820174707268
  H   -1.96017831013384      0.74152806015790     -0.40533257898850
  H   -2.41311263795983     -0.83631044220434      0.26457874510914
