16
Coordinates from ORCA-job run
  C   0.84825321445086      0.31154882530510      0.49805099112632
  C   -0.52890676495744     -0.33962896754167      0.35059260424910
  F   1.45829546442876     -0.28392027447267      1.61130563744379
  H   -1.09562816104652      0.01260400285053      1.22913184198219
  C   1.71425328764782     -0.02664531179481     -0.65450646174704
  N   2.39319485548326     -0.20569267177359     -1.59559743446804
  N   0.75465408118377      1.70685429710231      0.73157624980155
  H   1.54642472063484      2.23345172616094      0.39513838370746
  H   -0.11205964712701      2.11223464018203      0.41730565299717
  N   -0.32406890520695     -1.77859775538082      0.32330147720629
  H   -1.20941993791182     -2.25123491893549      0.19247023377449
  H   0.07608964400211     -2.09042723319349      1.19879042191849
  C   -1.23732264260734      0.08037195188531     -0.92916084098138
  H   -1.41717969025476      1.15584152670442     -0.98342432739004
  H   -2.21255353495395     -0.40996254071296     -0.98566266796119
  H   -0.65302598376562     -0.22779729638514     -1.79831176165914
