16
Coordinates from ORCA-job run
  C   0.71583827699065      0.47779487563933     -0.01432596103180
  C   -0.42533074985503     -0.55785990372930      0.02327520073671
  F   0.45898125688671      1.38391452014483     -1.03142295445579
  H   -0.15388437357615     -1.28930801451412      0.79648237039511
  C   0.77768183131878      1.26047360536872      1.24519843248367
  N   0.86238052426568      1.81807027160711      2.27613222219610
  N   1.95799338978979     -0.16593300952852     -0.34457430590168
  H   2.70048005109404      0.52142516841307     -0.41218603137857
  H   2.20644199675308     -0.83664283483334      0.37355041512973
  N   -0.55526401405919     -1.26086924955719     -1.24036645076637
  H   -0.89341500810422     -0.60906080481170     -1.94025242785603
  H   0.36066995534022     -1.57002409018738     -1.54673722096550
  C   -1.75078822129108      0.08984284153781      0.39216609793789
  H   -2.53619493182054     -0.66466431079131      0.34137714725099
  H   -1.99104073045113      0.88768545067707     -0.31512235201931
  H   -1.73454925328162      0.51515548456493      1.39680581824486
