16
Coordinates from ORCA-job run
  C   0.77821382576511      0.57855390685630      0.14343951419728
  C   -0.31675018846896     -0.48257870199184     -0.06644889685533
  F   0.26020722932099      1.78702988357916     -0.38348271813497
  H   0.01711843560154     -1.36752302838975      0.48735541221159
  C   0.98395492476240      0.82712470628257      1.58375992374177
  N   1.15237499615970      0.98236345414812      2.73509823953702
  N   1.97561431307609      0.23625819161608     -0.49258729774876
  H   1.88084594004274     -0.53689620521990     -1.13263466002051
  H   2.82256534055154      0.28046537568498      0.04454376575586
  N   -0.29071775744046     -0.83324447392084     -1.48467145847868
  H   -0.88758349298495     -1.63386684023679     -1.65146249446935
  H   -0.65557122975247     -0.05722868594605     -2.02665582275059
  C   -1.67125515320013     -0.02763896258142      0.46415469448652
  H   -1.62718033715714      0.22514794852412      1.52665783915372
  H   -2.40401081555737     -0.82868822811356      0.33865309793843
  H   -2.01782603071863      0.84972165970884     -0.08371913856401
