16
Coordinates from ORCA-job run
  C   0.78252303566368      0.40295637787514      0.46246341795495
  C   -0.46301255440954     -0.46820536373539      0.22391279826800
  F   0.51686411152833      1.12332223882183      1.65497507919283
  H   -0.67906874806437     -0.90149666510976      1.21229417531620
  C   1.94223247023940     -0.45894790032197      0.77146772956466
  N   2.83057502075354     -1.18317372808592      1.02381103584264
  N   1.10631915089840      1.24969114595398     -0.61210135962775
  H   0.32905221474377      1.84202964431590     -0.86805951072582
  H   1.92293582396328      1.81216409770128     -0.41226527635904
  N   -0.17740148491802     -1.45801089408774     -0.80277318953658
  H   0.44783862933516     -2.17350357366785     -0.45033463070943
  H   -1.03717335317897     -1.91543811239450     -1.07979089887472
  C   -1.65069005053098      0.38267183164897     -0.19987988241589
  H   -1.52766054821088      0.71565254053362     -1.23299445615649
  H   -1.77596183129772      1.24191335542608      0.46077021140756
  H   -2.56637188651506     -0.21162499487366     -0.15049524314112
