16
Coordinates from ORCA-job run
  C   0.88714722789397      0.38091553434806      0.55859559422787
  C   -0.46700376374873     -0.34235294630465      0.42853764740354
  F   1.40882880680431      0.03731815079460      1.78978893983387
  H   -1.02207881442548     -0.03734612841966      1.32490499937447
  C   1.79885720233411     -0.12194511167671     -0.49246702396962
  N   2.45291169559533     -0.53302154356202     -1.37591171749184
  N   0.85023456789102      1.81163298945993      0.49156527342928
  H   0.87230502350137      2.16035853707993     -0.45589154193542
  H   0.04244353348856      2.17808315437274      0.97958166614767
  N   -0.23638111858729     -1.77751479338312      0.51402847719815
  H   -0.07573530469241     -2.16658333911401     -0.40793096977997
  H   -1.03549760437961     -2.24704262333377      0.91736502692788
  C   -1.22182466784407      0.09326166025542     -0.82554481209793
  H   -0.64524631060696     -0.15634594142433     -1.72218588016677
  H   -2.17213567501856     -0.44182535479162     -0.88077889076527
  H   -1.43682479820556      1.16340775569922     -0.84165678833590
