16
Coordinates from ORCA-job run
  C   0.78061097673201      0.33598156142957      0.48389643188939
  C   -0.59586928024824     -0.34395628519892      0.43446156178864
  F   1.42969610117846     -0.10633209350992      1.62884902205703
  H   -1.08671682765787     -0.01021055860908      1.35527159459932
  C   1.60826202010915     -0.12802882707386     -0.66314789645994
  N   2.20354400333367     -0.45894782039089     -1.62069587165498
  N   0.68014514398630      1.75939704122881      0.59953348344148
  H   1.60469465132393      2.16805152661833      0.67990714651705
  H   0.22156020290107      2.15726636079493     -0.20966386913344
  N   -0.51137503520489     -1.79177341475762      0.46763534100059
  H   -0.11061986921133     -2.14909063226904     -0.39260796609092
  H   0.06943527511445     -2.09567211761986      1.23914000869408
  C   -1.41069466794668      0.09380176799347     -0.77260178515941
  H   -0.88362609741869     -0.12543884546422     -1.70653835020626
  H   -1.65184212448591      1.15794011021153     -0.74485036022912
  H   -2.34820447250543     -0.46298777338322     -0.77658849105352
