16
Coordinates from ORCA-job run
  C   0.81775896569636      0.23075215851076      0.48144020808348
  C   -0.59378654863593     -0.37125553916058      0.41718628918961
  F   1.49322740884861     -0.38563507808817      1.52606915416947
  H   -1.02225668218163     -0.14092929735019      1.39881285506834
  C   1.56613375292009     -0.11854332873246     -0.75681131049276
  N   2.10448626982192     -0.33909599757426     -1.77781062913740
  N   0.79905734615141      1.63062347947441      0.78240553607788
  H   0.33818943711953      2.15235606619475      0.04827012411794
  H   1.74704452059530      1.97733703498018      0.87783157872342
  N   -0.58479418423744     -1.81290526306708      0.25493726383462
  H   -0.24873425072938     -2.06954387065391     -0.66679463479042
  H   0.01805873668915     -2.24419310649553      0.94458590155440
  C   -1.43952937416689      0.26280265912693     -0.67595671787510
  H   -0.96778979938305      0.15134261730878     -1.65740327030299
  H   -1.62481446834530      1.32246089624642     -0.49121135500528
  H   -2.40325113016274     -0.24657343072005     -0.70555099321521
