16
Coordinates from ORCA-job run
  C   0.79039087308071      0.30256843474783      0.49008864841068
  C   -0.59858082786614     -0.35017026054541      0.42509695702062
  F   1.43959019445909     -0.19587305410657      1.61191061777410
  H   -1.07560400710419     -0.04551729765341      1.36307929787838
  C   1.60119285078056     -0.13196867520734     -0.68029417038445
  N   2.18285355349267     -0.43616090228082     -1.65494842999925
  N   0.71678718790385      1.72168946480209      0.66235929474595
  H   1.64872666584248      2.11066043489208      0.75114118153213
  H   0.25857502109048      2.15933656168285     -0.12616433156832
  N   -0.53950283087131     -1.79949210434860      0.39870659894808
  H   0.04285310692613     -2.14482809388496      1.15147882108782
  H   -0.15315344828885     -2.12833663295667     -0.47937273176979
  C   -1.41524636113325      0.15045742558869     -0.75586879142391
  H   -2.36185441987761     -0.39050124806856     -0.77490154089789
  H   -1.63890033479253      1.21624715814698     -0.68174436878932
  H   -0.89912722364211     -0.03811121080819     -1.70256705256481
