14

C	-0.563299	-0.076319	-1.403361
C	0.0	0.0	0.0
Br	-0.156589	1.570632	-2.385331
H	1.088676	0.0	0.0
H	-1.652623	-0.109975	-1.375319
H	-0.354751	-0.879644	0.548742
C	0.036597	-1.265675	-2.130871
H	-0.32116	-1.316195	-3.160687
H	-0.254729	-2.18782	-1.61592
H	1.125951	-1.194472	-2.123461
N	-0.565289	1.160397	0.741173
O	-1.797098	1.249565	0.752667
O	0.199009	1.9347	1.304331
Cl	3.425201	0.0	0.0
