14

C	-0.5589	-0.03597	-1.415158
C	0.0	0.0	0.0
Br	-0.198043	1.70744	-2.22982
H	1.088642	0.0	0.0
H	-1.647818	-0.112891	-1.390657
H	-0.401383	0.8462	0.558154
C	0.078488	-1.140555	-2.239758
H	-0.267268	-1.107425	-3.274336
H	1.167925	-1.047404	-2.205955
H	-0.198492	-2.111886	-1.814845
N	-0.514124	-1.22115	0.693049
O	-1.733974	-1.261896	0.892497
O	0.271182	-2.115773	0.991091
Cl	3.434495	0.0	0.0
