14

C	-0.420587	0.020435	-1.445061
C	0.0	0.0	0.0
Br	-2.386504	0.161006	-1.601023
H	1.094029	0.0	0.0
H	-0.181619	-0.938927	-1.901037
H	-0.379216	0.849648	0.565182
C	0.247094	1.168365	-2.174455
H	1.329458	1.057816	-2.057388
H	-0.052875	2.127657	-1.746504
H	-0.013725	1.163989	-3.234076
N	-0.465406	-1.218216	0.705179
O	-0.409818	-2.287274	0.100366
O	-0.853747	-1.087004	1.865693
Cl	3.333544	0.0	0.0
