16

C	0.0	0.0	0.0
C	-0.274175	-0.150497	-1.532372
Cl	1.753636	0.0	0.0
H	0.268392	-1.056552	-1.80789
H	-0.399373	-0.891629	0.5086
N	-0.644166	1.124876	0.666343
O	-0.417913	1.212588	1.897769
O	-1.79635	1.347667	0.103456
N	0.462718	0.916603	-2.300624
O	1.073799	0.546701	-3.306916
O	0.366508	2.077848	-1.92466
C	-1.65306	-0.22	-2.163075
H	-2.159339	0.735294	-2.080758
H	-1.517757	-0.510143	-3.211525
H	-2.268422	-0.950447	-1.642205
H	-2.88461	0.0	0.0
