16

C	0.0	0.0	0.0
C	-0.270254	-0.186007	-1.527306
Cl	1.753493	0.0	0.0
H	0.264247	-1.104895	-1.78001
H	-0.39084	-0.885282	0.52783
N	-0.647511	1.128324	0.650634
O	-1.803314	1.336834	0.087995
O	-0.410012	1.231558	1.881201
N	0.487526	0.855071	-2.31501
O	1.139341	0.452852	-3.28419
O	0.366512	2.029964	-1.987177
C	-1.644436	-0.252082	-2.167385
H	-2.146354	0.70334	-2.086572
H	-2.265212	-0.984488	-1.6568
H	-1.498838	-0.540336	-3.212206
H	-2.891459	0.0	0.0
