12

C	0.0	0.0	0.0
C	-0.459563	0.130468	-1.43798
F	1.386474	0.0	0.0
H	-1.550173	0.052861	-1.405904
H	0.003649	-0.64674	-2.04989
H	-0.141004	1.115752	-1.787097
N	-0.559277	1.044776	0.784535
H	-0.377798	0.846923	1.764522
H	-1.593115	0.859453	0.605296
C	-0.33862	-1.364019	0.521419
N	-0.523652	-2.449672	0.931085
F	-2.807672	0.0	0.0
