12

C	0.0	0.0	0.0
C	-0.570895	0.20346	-1.376187
F	1.411596	0.0	0.0
H	-0.200207	1.163888	-1.776265
H	-0.249495	-0.600097	-2.052767
H	-1.675564	0.204433	-1.183345
N	-0.396605	1.03392	0.912782
H	-0.473085	1.901479	0.408337
H	0.294779	1.087104	1.643498
C	-0.403722	-1.30715	0.574094
N	-0.491741	-2.387433	1.019864
F	-2.848925	0.0	0.0
