12

C	0.0	0.0	0.0
C	-0.459526	0.119177	-1.439593
F	1.38658	0.0	0.0
H	0.001	-0.665213	-2.044417
H	-1.550266	0.044036	-1.405735
H	-0.138181	1.100192	-1.797252
N	-0.558795	1.052075	0.775134
H	-1.592846	0.86583	0.596447
H	-0.380065	0.861669	1.757305
C	-0.339642	-1.359812	0.529681
N	-0.517837	-2.447092	0.937146
F	-2.806541	0.0	0.0
