12

C	0.0	0.0	0.0
C	-0.413759	0.296027	-1.433887
F	1.411811	0.0	0.0
H	0.004879	-0.439871	-2.124989
H	-0.028587	1.286981	-1.695422
H	-1.506131	0.278419	-1.414879
N	-0.540685	0.88207	0.977186
H	-1.575515	0.67365	0.822089
H	-0.382468	1.826566	0.6314
C	-0.37533	-1.392768	0.360186
N	-0.528384	-2.522683	0.641641
F	-2.768619	0.0	0.0
