12

C	0.0	0.0	0.0
C	-0.420898	-0.335852	-1.423973
F	1.400228	0.0	0.0
H	0.005655	-1.289833	-1.746723
H	-1.514222	-0.352915	-1.393609
H	-0.048806	0.459506	-2.079862
N	-0.542323	1.211281	0.520553
H	-0.386792	1.926406	-0.186832
H	-1.575399	0.957452	0.472484
C	-0.379979	-1.108604	0.915849
N	-0.534297	-1.999917	1.663258
F	-2.774074	0.0	0.0
