12

C	0.0	0.0	0.0
C	-0.411275	-0.307457	-1.43204
F	1.386423	0.0	0.0
H	0.06018	-1.242946	-1.741641
H	-1.498079	-0.364293	-1.457714
H	-0.035842	0.504719	-2.058412
N	-0.571937	1.217821	0.449133
H	-0.391041	1.309695	1.442976
H	-1.611658	0.980072	0.333192
C	-0.347782	-1.173735	0.874692
N	-0.499353	-2.110185	1.569583
F	-2.793313	0.0	0.0
