15

C	-0.267841	0.075798	-1.477344
C	0.0	0.0	0.0
Br	-2.223824	0.359775	-1.93113
H	1.106345	0.0	0.0
H	-0.090244	-0.912988	-1.914599
N	0.491743	1.16433	-2.027167
H	0.546443	1.089099	-3.035472
H	1.437677	1.080491	-1.633798
N	-0.493165	-1.230238	0.577459
H	-1.379929	-1.018437	1.021505
H	0.154488	-1.510848	1.304595
N	-0.472827	1.201556	0.701811
H	0.26035	1.457128	1.358092
H	-0.510146	1.957783	0.023746
H	2.86207	0.0	0.0
