15

C	-0.552453	0.085395	-1.41385
C	0.0	0.0	0.0
Br	0.108117	-1.514541	-2.500357
H	1.095239	0.0	0.0
H	-0.109441	0.918657	-1.958447
N	-1.967865	0.146578	-1.386957
H	-2.372883	0.071256	-2.310018
H	-2.283028	-0.617614	-0.795948
N	-0.596077	-1.176387	0.654425
H	-0.56053	-0.96324	1.644939
H	0.034201	-1.958246	0.495914
N	-0.38769	1.192627	0.746535
H	0.391256	1.840423	0.711855
H	-1.213676	1.616879	0.343667
H	2.96398	0.0	0.0
