15

C	-0.398601	0.029037	-1.469186
C	0.0	0.0	0.0
Br	-0.185002	1.924152	-2.196224
H	1.097541	0.0	0.0
H	-1.46835	-0.132072	-1.62315
N	0.398709	-0.913742	-2.156569
H	1.376974	-0.778317	-1.892027
H	0.290376	-0.8617	-3.16126
N	-0.463913	-1.288992	0.556695
H	0.300229	-1.613017	1.145859
H	-0.502855	-1.954484	-0.207097
N	-0.580895	1.084174	0.775288
H	0.171072	1.691025	1.080241
H	-1.006769	0.662619	1.590167
H	2.974101	0.0	0.0
