15

C	-0.539853	0.116542	-1.411967
C	0.0	0.0	0.0
Br	0.100482	-1.471267	-2.528118
H	1.10146	0.0	0.0
H	-0.065274	0.941184	-1.93566
N	-1.948922	0.203473	-1.397659
H	-2.338909	0.162042	-2.327194
H	-2.287252	-0.573907	-0.843323
N	-0.6098	-1.175978	0.635679
H	-0.703527	-0.920566	1.609058
H	0.073954	-1.926433	0.583043
N	-0.37768	1.194861	0.745253
H	0.465886	1.78253	0.8475
H	-1.090987	1.707777	0.265421
H	2.929752	0.0	0.0
