15

C	-0.519825	-0.068816	-1.431875
C	0.0	0.0	0.0
Br	-0.063468	-1.788229	-2.285964
H	1.10065	0.0	0.0
H	0.029021	0.657121	-2.042289
N	-1.957728	0.075417	-1.443278
H	-2.284425	0.255534	-2.385457
H	-2.125834	0.898238	-0.867221
N	-0.499775	-1.059621	0.857486
H	-1.283433	-1.52604	0.414171
H	0.24963	-1.732582	0.965715
N	-0.457228	1.320029	0.509537
H	0.376656	1.900398	0.568217
H	-0.750722	1.137205	1.462331
H	2.942716	0.0	0.0
