15

C	-0.333653	-0.270159	-1.471638
C	0.0	0.0	0.0
Br	-0.705044	1.673846	-2.551457
H	1.095196	0.0	0.0
H	-1.328407	-0.65742	-1.668758
N	0.676305	-0.968637	-2.03607
H	1.614441	-0.701184	-1.726087
H	0.580132	-1.270682	-2.992341
N	-0.489137	-1.203534	0.697878
H	-1.040328	-0.862346	1.476232
H	0.328798	-1.662766	1.085313
N	-0.506559	1.206916	0.622731
H	-1.189468	1.654601	0.027277
H	0.273595	1.851535	0.694385
H	2.931816	0.0	0.0
