15

C	-0.467693	0.011986	-1.451219
C	0.0	0.0	0.0
Br	-0.314741	1.815199	-2.265831
H	1.099202	0.0	0.0
H	-1.535723	-0.214947	-1.518272
N	0.289217	-0.909382	-2.265204
H	1.273803	-0.73188	-2.054608
H	0.089137	-1.820296	-1.859331
N	-0.393214	-1.320021	0.506766
H	0.377335	-1.677261	1.062868
H	-1.197167	-1.185477	1.110566
N	-0.590188	1.049824	0.833915
H	0.031783	1.143847	1.633795
H	-0.5161	1.929299	0.33281
H	2.969024	0.0	0.0
