13

C	0.01167	-0.027361	0.025334
C	-0.535508	-0.116256	-1.397038
F	1.413252	0.163837	-0.026999
H	-1.641356	-0.091729	-1.284338
H	-0.21068	-1.041201	-1.880148
N	-0.624132	1.029309	0.684952
H	-1.686582	0.954241	0.464801
H	-0.483571	0.970765	1.687682
C	-0.123089	-1.363429	0.683252
N	-0.239528	-2.395865	1.232671
C	-0.10019	1.019284	-2.199092
N	0.240045	1.895939	-2.901693
H	-3.020315	0.579742	-0.052483
