15

C	-0.524342	-0.00949	-1.447295
C	0.0	0.0	0.0
Br	-2.469287	-0.10174	-1.491233
H	1.094631	0.0	0.0
N	-0.062428	1.310797	-2.10939
O	1.105947	1.292024	-2.466681
O	-0.852385	2.234974	-2.182625
C	0.003971	-1.113938	-2.231988
N	0.384605	-2.024509	-2.873124
C	-0.445192	-1.229562	0.667462
N	-0.832028	-2.172523	1.253832
N	-0.404474	1.220511	0.663
H	-1.268794	1.116301	1.176428
H	0.339824	1.505597	1.287176
Cl	3.188518	0.0	0.0
