15

C	-0.533375	0.011439	-1.444556
C	0.0	0.0	0.0
Br	0.351106	1.389608	-2.472899
H	1.092414	0.0	0.0
N	-0.260378	-1.317274	-2.161694
O	-0.967808	-1.563101	-3.131354
O	0.658767	-1.994277	-1.724215
C	-1.97328	0.242533	-1.467646
N	-3.133244	0.43018	-1.411965
C	-0.513864	-1.192384	0.684448
N	-0.993105	-2.092415	1.270389
N	-0.414656	1.239252	0.640853
H	-1.239456	1.11442	1.212915
H	0.351443	1.573646	1.212052
Cl	3.215697	0.0	0.0
