14

C	-0.367208	0.031168	-1.478614
C	0.0	0.0	0.0
F	-0.246715	-1.289361	-1.964286
H	1.08907	0.0	0.0
H	-0.384093	0.883527	0.509702
C	-1.76306	0.424136	-1.774718
N	-2.847778	0.769658	-2.056968
N	0.519572	0.935625	-2.091113
H	0.414959	0.947195	-3.096249
H	1.485531	0.746766	-1.818111
N	-0.584286	-1.184851	0.670392
O	0.160605	-1.940659	1.283889
O	-1.807485	-1.30779	0.577853
Br	3.499886	0.0	0.0
