14

C	-0.553402	-0.02737	-1.417688
C	0.0	0.0	0.0
F	0.181738	0.829161	-2.233895
H	1.091731	0.0	0.0
H	-0.357475	-0.863508	0.558759
C	-0.357167	-1.393133	-1.957452
N	-0.260851	-2.471497	-2.410028
N	-1.950398	0.260533	-1.468118
H	-2.082935	1.220327	-1.17178
H	-2.282816	0.16066	-2.41976
N	-0.436672	1.19136	0.770701
O	-0.720558	2.224031	0.158471
O	-0.446586	1.077931	1.991991
Br	3.432638	0.0	0.0
