14

C	-0.380783	0.046579	-1.484623
C	0.0	0.0	0.0
F	-1.715219	-0.329115	-1.616567
H	1.09331	0.0	0.0
H	-0.418764	0.821219	0.576482
C	-0.287983	1.458276	-1.925865
N	-0.262236	2.581839	-2.261203
N	0.403303	-0.770392	-2.361006
H	1.369612	-0.449546	-2.301945
H	0.395823	-1.707523	-1.969723
N	-0.475517	-1.251721	0.629711
O	-1.028883	-1.159125	1.723336
O	-0.279141	-2.311025	0.034382
Br	3.415075	0.0	0.0
