14

C	-0.357685	0.092638	-1.481721
C	0.0	0.0	0.0
F	-0.203447	-1.23573	-1.960828
H	1.095067	0.0	0.0
H	-0.43462	-0.893744	0.436744
C	-1.781984	0.412426	-1.737906
N	-2.908422	0.661155	-1.953967
N	0.476606	1.015872	-2.121169
H	0.392485	0.978988	-3.127767
H	1.443763	0.91126	-1.81534
N	-0.515478	1.166705	0.752735
O	-1.504309	0.972858	1.467865
O	0.056855	2.242979	0.611708
Br	3.466239	0.0	0.0
