14

C	-0.400351	-0.248151	-1.454119
C	0.0	0.0	0.0
F	-1.714566	-0.736632	-1.507414
H	1.089051	0.0	0.0
H	-0.428073	0.917514	0.392152
C	-0.466285	1.063183	-2.156761
N	-0.487597	2.087143	-2.733079
N	0.477272	-1.170768	-2.067629
H	0.522434	-1.057039	-3.07018
H	1.40824	-1.136297	-1.659013
N	-0.490842	-1.103696	0.859904
O	-1.309354	-0.808592	1.7333
O	-0.051665	-2.229151	0.651735
Br	3.43273	0.0	0.0
