15

C	-0.462923	-0.007177	-1.444393
C	0.0	0.0	0.0
F	0.063093	1.059914	-2.102622
H	1.094228	0.0	0.0
N	0.145114	-1.22336	-2.193828
O	0.805147	-2.04536	-1.57678
O	-0.140686	-1.27125	-3.39155
N	-1.86443	0.01007	-1.613053
H	-2.105624	-0.168891	-2.580485
H	-2.31591	-0.657656	-1.000367
C	-0.535863	-1.136039	0.724438
N	-0.965982	-2.077094	1.284437
C	-0.427649	1.243362	0.624687
N	-0.727932	2.248691	1.154492
F	2.42697	0.0	0.0
