15

C	-0.47402	0.000138	-1.43903
C	0.0	0.0	0.0
F	0.065046	1.057477	-2.105831
H	1.094356	0.0	0.0
N	0.111173	-1.228617	-2.190708
O	0.79283	-2.042243	-1.587024
O	-0.214135	-1.291506	-3.377367
N	-1.874927	0.040778	-1.595286
H	-2.129484	-0.134098	-2.560181
H	-2.334284	-0.611894	-0.971992
C	-0.538007	-1.138411	0.721105
N	-0.990716	-2.068346	1.282285
C	-0.421726	1.245521	0.627517
N	-0.725222	2.24299	1.169108
F	2.429347	0.0	0.0
