15

C	-0.154881	-0.163722	-1.535008
C	0.0	0.0	0.0
F	-1.314415	-0.785028	-1.878849
H	1.095718	0.0	0.0
N	-0.223078	1.249028	-2.126658
O	0.807682	1.901103	-2.027808
O	-1.278533	1.61434	-2.631958
N	0.952964	-0.823938	-2.123145
H	1.783063	-0.587731	-1.545125
H	0.785992	-1.821676	-2.06868
C	-0.431247	-1.224672	0.64984
N	-0.743267	-2.234128	1.164565
C	-0.614696	1.173369	0.583017
N	-1.10193	2.129981	1.062464
F	2.520455	0.0	0.0
