15

C	-0.08844	-0.015954	-1.526276
C	0.0	0.0	0.0
F	-0.015418	-1.351607	-1.943267
H	1.098926	0.0	0.0
N	-1.453134	0.386051	-2.093149
O	-1.479644	0.679254	-3.286252
O	-2.423323	0.330669	-1.343675
N	0.900487	0.804223	-2.035421
H	1.772571	0.622117	-1.502836
H	0.990193	0.723442	-3.037703
C	-0.586745	-1.152882	0.649954
N	-1.030147	-2.094788	1.194184
C	-0.44893	1.260182	0.564893
N	-0.775	2.282891	1.043051
F	2.539753	0.0	0.0
