16
Coordinates from ORCA-job run
  C   0.78870816494011      0.28590288904222     -0.00714926368765
  C   -0.72948451306957      0.20690713327974     -0.23357706926243
  H   1.23452640468083      1.06591484131110     -0.62998869835169
  H   -1.18148057027140      1.04628133726641      0.30723840144107
  N   1.41820435382899     -0.95791625212263     -0.20795898468816
  H   1.05245703131569     -1.62528656036390      0.45986982123777
  H   2.42016194486662     -0.89280375455783     -0.09337514155147
  N   0.97989795823253      0.84483711305163      1.42052658738754
  O   1.51672306475939      0.12467846010237      2.25561957536353
  O   0.57886261606693      1.99040474492887      1.61265283624787
  N   -1.21323468045707     -1.02186910627239      0.36300072355949
  H   -1.18633443913342     -1.74768723482414     -0.34464286259309
  H   -2.16345678672118     -0.92225102651310      0.69168216685624
  N   -0.98998164644501      0.23589075491828     -1.66922891348124
  H   -1.98786100296605      0.33329945513394     -1.82035264452827
  H   -0.53770789962739      1.03269720561944     -2.10331653394953
