16
Coordinates from ORCA-job run
  C   0.80672038753535      0.43492181232454      0.11803276507954
  C   -0.68306945174209      0.24313893961009     -0.21827391224198
  H   1.18309068081155      1.32631305122029     -0.39255662814382
  H   -1.23006077334335      1.11179852540619      0.16945335821031
  N   1.66152409770209     -0.68490014569966     -0.14741730726067
  H   1.48967635669332     -0.98729217715581     -1.09948030093784
  H   1.43236484898619     -1.43701219921143      0.49145386351457
  N   0.87136509794369      0.77740237327579      1.57782348078384
  O   1.30649156253352     -0.06011503409535      2.35779432132092
  O   0.42751951818083      1.88345546436268      1.88172024712377
  N   -1.16921312573998     -0.93039967071705      0.46593116349573
  H   -2.16670319084472     -0.88353430180367      0.62000071869174
  H   -0.96151625134779     -1.75726704798094     -0.08042931244201
  N   -0.75841843944891      0.09824430489392     -1.67443155049769
  H   -1.71662817274952     -0.10086929889843     -1.93904264513698
  H   -0.49414314517018      0.96611540446885     -2.13057826155945
