16
Coordinates from ORCA-job run
  C   0.85789135280631      0.19066068378220      0.00782851431033
  C   -0.50748487062578     -0.04769216582087     -0.68445805547507
  H   1.44203347484683      0.91162902700594     -0.56763699604479
  H   -0.24423703412900     -0.38928535621882     -1.70150360524463
  N   1.65969708698402     -0.96960831352902      0.26859585004734
  H   1.09128803785903     -1.72757204393743      0.62196262594678
  H   2.15106374992985     -1.26352534297610     -0.56384062155474
  N   0.59223077653192      0.86980266393084      1.31809858873088
  O   0.82462039061092      2.07041570529684      1.40379387194458
  O   0.12647866056466      0.15886288994437      2.20735729670264
  N   -1.26270561197069      1.18583692836917     -0.63270958213849
  H   -2.15322624931559      1.04282569832802     -1.09090313378417
  H   -0.77275887596336      1.95227341966021     -1.07767479933037
  N   -1.35025479117355     -1.07170221614267     -0.11411839157716
  H   -1.47068000146949     -0.91390476990086      0.87939948004862
  H   -0.98495609548606     -2.00001680779183     -0.27519104258175
