16
Coordinates from ORCA-job run
  C   0.72421755140038      0.40282300929421     -0.00506121867053
  C   -0.79975122100038      0.28846649784111     -0.20905271070994
  H   1.08473010063040      1.35837892831037     -0.39257374897277
  H   -1.26860370636348      1.16116753741677      0.26216954442770
  N   1.38135708433772     -0.69394576991151     -0.60090651168076
  H   2.38172414519737     -0.67002376804409     -0.46324849275369
  H   0.99562222612368     -1.55444000745876     -0.23175152410398
  N   0.94098666797065      0.52633782516097      1.51039764615226
  O   1.44896674188214     -0.41971759635991      2.10687518930115
  O   0.54081937156566      1.56936995020517      2.02496207913253
  N   -1.21408621524470     -0.98652375982536      0.36301880324138
  H   -2.12077816075558     -1.21328650912517     -0.02581732319851
  H   -1.30157839325341     -0.92976847558476      1.37082076686978
  N   -1.16909351104592      0.27405915182851     -1.60735861751828
  H   -1.10909214348719      1.20708802168450     -1.99506077377516
  H   -0.51544053795734     -0.31998503543204     -2.10641310774117
