15
Coordinates from ORCA-job run
  C   0.68713423715582     -0.48225318748980      0.06100944268062
  C   -0.31771491980354      0.40314475044881     -0.14053027240658
  N   0.45407670985771     -1.83168057606304      0.38295368683797
  H   1.29190559015652     -2.39026735984713      0.33847025910202
  H   -0.05591307718479     -1.97477080903741      1.23973838128125
  N   2.03484909581320     -0.16026044015418     -0.15884071507222
  H   2.61108785039115     -0.38036997376635      0.64443547131426
  H   2.09298160477894      0.82811437293353     -0.37697857309466
  C   -1.76659112848766      0.01555198393335     -0.13146323467309
  H   -1.88247395184042     -1.06948066058260     -0.17645324710134
  H   -2.29166839191249      0.37924258037122      0.76187590118820
  H   -2.28358891067152      0.44581728583770     -0.99740998015555
  N   0.06317022817656      1.76977259939068     -0.39622492611451
  H   -0.25253072428745      2.05371374245917     -1.31830729352636
  H   -0.38472421214203      2.39172569156607      0.26872509974000
