15
Coordinates from ORCA-job run
  C   0.70089917999487     -0.45378498077530      0.10270093995101
  C   -0.44105083050659      0.19647867462182     -0.22463653224353
  N   1.09383342897121     -0.66812192935840      1.43704555296799
  H   1.24139149737270      0.17511752455518      1.96820155491575
  H   1.87086749866591     -1.30602507380343      1.51142371201548
  N   1.51770850245370     -1.07661561011857     -0.85279856408536
  H   1.15383697729833     -0.85753488479057     -1.77331097295946
  H   2.48339065786311     -0.78179464829124     -0.77378764557799
  C   -1.43766046856028      0.66751323837473      0.79224912080823
  H   -1.43524994846878      1.76002919734812      0.90430575780260
  H   -2.45377947796883      0.38358617005041      0.49392000450287
  H   -1.23774691189633      0.22491304159885      1.77039217218399
  N   -0.68722597022872      0.40825204924728     -1.62936747166501
  H   -1.53935299500142     -0.06710123152777     -1.90958092786643
  H   -0.82986113998888      1.39508846286889     -1.81775670075015
