15
Coordinates from ORCA-job run
  C   0.66397531821619     -0.43703378429566      0.00771494614452
  C   -0.44913489432168      0.29573564656729     -0.22325178066112
  N   1.00321740144745     -1.09148275533883      1.22119313994449
  H   0.22118372424076     -1.17163017779541      1.85400900193020
  H   1.78665865806998     -0.65750327593471      1.69683026942614
  N   1.54946822149510     -0.69019811577626     -1.07741150134086
  H   2.16836944454671      0.08801501223122     -1.26762126126550
  H   2.08860214932703     -1.52518983322573     -0.89379178996890
  C   -1.40674964051720      0.75536416469581      0.83138879436146
  H   -2.36536261970200      0.22626708210862      0.76874863962714
  H   -1.61322940771553      1.82148501381354      0.69774607914025
  H   -1.00953653177106      0.61593291291000      1.83730350576699
  N   -0.71886011681417      0.78614134389011     -1.52441920140965
  H   -1.71080830785277      0.75540407778234     -1.72784791405924
  H   -0.20779339864883      0.22869268836768     -2.20159092763592
