15
Coordinates from ORCA-job run
  C   0.82513969245916     -0.28568055950334      0.09997851698424
  C   -0.42606690228582      0.11919081313872     -0.22911886040096
  N   1.77772068862038     -0.64568593410485     -0.85981234668004
  H   1.32429264853298     -0.69384342059798     -1.76407353691884
  H   2.21940237133601     -1.52379449448833     -0.61969941090292
  N   1.33855247300197     -0.39773055426367      1.39968205880084
  H   0.71024368934785     -0.07365974702569      2.11732355461195
  H   2.24475869376529      0.04433082212472      1.47715269781461
  C   -1.42446850817341      0.69317025713290      0.73564650852858
  H   -2.21784279715733     -0.02112415618929      0.99147893192287
  H   -0.97068714696861      1.02845805121245      1.67227118317219
  H   -1.91638608792584      1.56741291920132      0.29399597492719
  N   -0.80662261834916     -0.04164808424524     -1.61110085751151
  H   -1.04505963168708      0.85582605318262     -2.02035472369361
  H   -1.63397656451639     -0.62522196557433     -1.68236969065457
