15
Coordinates from ORCA-job run
  C   0.60448032171992     -0.34747631710066      0.17579838423829
  C   -0.43671991747085      0.42659794904326     -0.20841054070862
  N   0.39776126198678     -1.68375637532477      0.64410117335788
  H   0.61195035518806     -1.76252157079722      1.63226741523799
  H   0.99838355946585     -2.33225652826101      0.14745938026032
  N   1.92393386596177      0.21721124519594      0.07351392743622
  H   2.49082613723396     -0.05745284873189      0.86669087295395
  H   2.39741812383820     -0.09318097370804     -0.76889635823858
  C   -1.85843939210164     -0.03761832782271     -0.21163395318766
  H   -2.46287574501313      0.56997624560013      0.47200886086814
  H   -2.28628652129114      0.07619126269889     -1.21213274744183
  H   -1.91612377265129     -1.07841782409536      0.09729928687174
  N   -0.22351094213733      1.70544924122865     -0.73677825565489
  H   -0.94424207331619      2.36266950915891     -0.47287566142705
  H   0.70344473858702      2.03558531291589     -0.49641178456591
