15
Coordinates from ORCA-job run
  C   0.74688652074509     -0.44074056970423      0.14333482016562
  C   -0.30295846009980      0.38373640806529     -0.09460311041514
  N   0.69372817686941     -1.83900559138976      0.23429498186435
  H   -0.23841947300351     -2.21675374070965      0.17729244029821
  H   1.17432028163316     -2.17175954463008      1.05961275119591
  N   2.04794064650178      0.03636988100734      0.33740969336177
  H   2.06789068025118      1.02311487100207      0.10993594198870
  H   2.71188290432966     -0.48676359247640     -0.21880796744197
  C   -1.74292788667544     -0.04291797311665     -0.12720199396605
  H   -2.14837684401543     -0.06056862189069     -1.14710533424127
  H   -1.90738081341423     -1.03246908648829      0.30766477531986
  H   -2.35871037030693      0.65982049653527      0.44602284032680
  N   0.01737340942907      1.76748537536719     -0.34382559008336
  H   -0.40772411234683      2.36343542302702      0.35895611965263
  H   -0.35352465989719      2.06001626540158     -1.24198036802605
