15
Coordinates from ORCA-job run
  C   0.66498781996534     -0.24498058080865      0.12386243873291
  C   -0.55817078077064      0.18222970517479     -0.26586773538629
  N   1.58559966921893     -0.64944406159183     -0.90536591113870
  H   1.59956961284209     -1.65837773103390     -1.01529462679119
  H   2.52606280597368     -0.34961117419280     -0.67849502705330
  N   1.01709806165366     -0.30960819439484      1.50925638951016
  H   1.72671847899933      0.37716878284364      1.73978034124678
  H   1.38895367797994     -1.22436036084725      1.73925906400782
  C   -1.64073262429133      0.58006784214517      0.68616143553918
  H   -2.53885996967840     -0.01582354155057      0.49838213145229
  H   -1.31222543112423      0.43761775232463      1.71267694936401
  H   -1.91224403002559      1.63253997350462      0.54343602590844
  N   -0.92442366119274      0.17275664212565     -1.61745250003712
  H   -0.10120621434841      0.12006499524293     -2.20524414284979
  H   -1.52112741520164      0.94975995105841     -1.86509483250521
