15
Coordinates from ORCA-job run
  C   0.71778444425684     -0.49024767373855      0.13291871650283
  C   -0.37015948291761      0.22593632779815     -0.24395047685545
  N   1.28686639821445     -0.51357366272995      1.41441631236243
  H   1.44972002850163     -1.46153150661988      1.72688794269362
  H   0.76983347601400      0.01309228254761      2.10005974226334
  N   1.41386748380546     -1.32126048462819     -0.75153331091588
  H   2.41131581743313     -1.16418633262292     -0.68710528930937
  H   1.07064111266027     -1.15668879290795     -1.68996346131390
  C   -1.26782035208349      0.98634448244075      0.69000698883108
  H   -1.12234629173355      0.71711100501788      1.73962559874880
  H   -1.12960655282002      2.07206931688428      0.60660206976620
  H   -2.31883239160802      0.78204159682378      0.45484328818443
  N   -0.65706723281987      0.25267890622600     -1.65710617106509
  H   -0.68636678901662      1.20975551750469     -1.99333321026980
  H   -1.56882966788661     -0.15254098199572     -1.84236873962324
