15
Coordinates from ORCA-job run
  C   0.67216270790106     -0.49501836741359      0.10726990555075
  C   -0.43376665091016      0.21360014128061     -0.22286978806279
  N   1.09253180301618     -0.66512217028895      1.43899098452539
  H   1.30511942827405      0.19234168338037      1.92292121605547
  H   1.82886041978839     -1.34762325796838      1.52805013806052
  N   1.41502290599871     -1.22146208479975     -0.83563201781490
  H   2.39989902107140     -0.98794199118961     -0.80018714308206
  H   1.03698216531070     -1.02581178311501     -1.75579080307781
  C   -1.36322405899677      0.80498432470319      0.79492945514504
  H   -1.28216868977500      1.89878557818788      0.85019386591807
  H   -1.16604593218009      0.39821860009352      1.78912263573432
  H   -2.40517617208228      0.57916715361706      0.53884316465481
  N   -0.71002602086666      0.36762785675953     -1.62936359283717
  H   -1.59981747572030     -0.06323009309348     -1.85981609083947
  H   -0.79235345082923      1.35048440984660     -1.86766192993017
