15
Coordinates from ORCA-job run
  C   0.75242487591934     -0.41874023137668      0.17833721996943
  C   -0.30707699677250      0.36770398941970     -0.13496456864410
  N   2.07507975586270     -0.02148636731155     -0.04523607168158
  H   2.08022226505646      0.95751258515737     -0.30431873418468
  H   2.64771880183109     -0.19326382429213      0.77106611783301
  N   0.69016344109731     -1.69986942391118      0.74519570658938
  H   -0.24703807445526     -2.05363279889068      0.85138075040695
  H   1.27341420994362     -2.35353043835483      0.23982609774162
  C   -1.74447645076947     -0.06706539390545     -0.09663102091130
  H   -2.28835993573568      0.36843241536169      0.75152184877227
  H   -2.26216448774401      0.25959074964098     -1.00597708532967
  H   -1.86356955116696     -1.15235542994318     -0.03977739436002
  N   -0.00180206121974      1.72318213823997     -0.52110828252605
  H   -0.31593395157866      1.90240217169217     -1.46921907459234
  H   -0.48860184026826      2.38011985847381      0.07990449091708
