15
Coordinates from ORCA-job run
  C   0.70308511988749     -0.35789682854587      0.09990048064198
  C   -0.37849531815748      0.40808083848289     -0.16941718469521
  N   1.99712490982486      0.21593770113656     -0.05027696526175
  H   2.26970115919167      0.77969274731421      0.74527169322103
  H   2.67962575089797     -0.51285206752945     -0.20789171938749
  N   0.69646163131781     -1.74103500411600      0.42068378575589
  H   -0.18067261298491     -2.18906225568798      0.20046380746385
  H   0.94014958516279     -1.92125471510095      1.38845948689548
  C   -1.79915025213958     -0.00137584562608      0.06421052824259
  H   -2.32356963766753      0.79221133727007      0.60499360137622
  H   -1.87382080065508     -0.91431582674475      0.65580298710826
  H   -2.33550671049671     -0.16333786020540     -0.87863623932451
  N   -0.21143246579323      1.74787157620287     -0.59782229284558
  H   0.72223895882383      1.85943155647487     -0.98045306090928
  H   -0.90373931721187      1.99690464667501     -1.29428890828147
