15
Coordinates from ORCA-job run
  C   0.65560071810777     -0.40017976255533      0.13452393960076
  C   -0.48505606538469      0.24996905763978     -0.19473369763729
  N   1.02565385676691     -0.58285557290353      1.49218853995911
  H   1.68505719946014     -1.34468006692690      1.56533454134396
  H   1.40418643612351      0.25123655123175      1.91873143050164
  N   1.53877679394147     -1.00679533554516     -0.80184741385371
  H   1.09180966069368     -1.22382621193050     -1.68093622067278
  H   2.39204869995878     -0.48407929820354     -0.96099573374740
  C   -1.50815266653265      0.65039363981540      0.82189188845402
  H   -1.33827205628912      0.12452346305055      1.76016401021880
  H   -1.48199951311531      1.72984799214380      1.00328723083249
  H   -2.51679547793159      0.41531416003545      0.46101924980781
  N   -0.75902095084319      0.72255768513347     -1.50419571997005
  H   -1.66300738433588      0.41880859881474     -1.84364415548994
  H   -0.04082925061983      0.47976510020002     -2.17078788934742
