15
Coordinates from ORCA-job run
  C   0.70209322572525     -0.26090645178431      0.26661991989363
  C   -0.39061031172661      0.37451248188948     -0.21435489087347
  N   1.97094037535663      0.36919851752295      0.13045144202361
  H   2.60640619490054      0.01827614303406      0.83376247612502
  H   2.37160355243730      0.24829435289908     -0.79133257700008
  N   0.71331398010311     -1.47149647173016      1.00874231142005
  H   -0.19677041771143     -1.71690604350092      1.36944452510698
  H   1.09536368537240     -2.25056493485314      0.48382276945734
  C   -1.76827217069296     -0.20862126161701     -0.26514967703750
  H   -2.19001958200233     -0.06249830343298     -1.26414974813215
  H   -1.77114089532219     -1.27854802882292     -0.05473967154066
  H   -2.44282814237298      0.27930912382567      0.44879130244761
  N   -0.26074215434925      1.64379535209530     -0.83025189506006
  H   0.60561154275713      2.07399473719732     -0.52181999674343
  H   -1.04494888247461      2.24216078727759     -0.59883629008688
