15
Coordinates from ORCA-job run
  C   0.67861406983804     -0.37029851692858      0.04181604773932
  C   -0.51043076890117      0.20136469181416     -0.25978555612716
  N   1.54848445652585     -0.76329852931145     -1.02423074644710
  H   2.32734086779653     -0.12103406181665     -1.11893212038575
  H   1.92382396998093     -1.68156584903352     -0.81722772693885
  N   1.08187294814097     -0.78869028383967      1.33887854167456
  H   1.91402334507009     -0.30807733731706      1.66185008743824
  H   0.34759548566188     -0.69857971693344      2.02620871135753
  C   -1.47667014704084      0.72249349946739      0.76094050168279
  H   -2.29448369637909      0.01437184556983      0.92841613751503
  H   -1.93173365481930      1.65383854908737      0.40779618414344
  H   -0.99465281292914      0.93966073504277      1.71524554824925
  N   -1.00396754072881      0.20629022355810     -1.58225297795265
  H   -0.28334018658817     -0.13046387949289     -2.20893353786588
  H   -1.32547633562779      1.12198863013365     -1.86878909408275
