15
Coordinates from ORCA-job run
  C   0.72573070690382     -0.48536850432617      0.10076893621998
  C   -0.38101419549701      0.22589763885682     -0.22793682016623
  N   1.34823231657743     -0.50762795406634      1.35725102461493
  H   0.85381053126303      0.00964399607828      2.06658641408141
  H   1.53526876877938     -1.45512452607632      1.65752088096486
  N   1.39046136552477     -1.30788942315650     -0.81498092378948
  H   1.00590500038872     -1.14434755371993     -1.73749892142890
  H   2.38860523740587     -1.14335174760051     -0.79278599981739
  C   -1.24512952861235      0.97379389038248      0.74719704203800
  H   -1.11524194970943      2.06094147431039      0.66808905969697
  H   -1.05708736170270      0.69632346715913      1.78796599175732
  H   -2.30367311285244      0.76652929066897      0.55193509034877
  N   -0.72815648081600      0.25334660862831     -1.62742925681831
  H   -1.64636767766012     -0.15312825129027     -1.77427785358086
  H   -0.77234361999295      1.21036159415166     -1.96240466412105
