15
Coordinates from ORCA-job run
  C   0.68083022444147     -0.39315136969258      0.30072436335523
  C   -0.32363673413683      0.39382883573571     -0.15359540886454
  N   2.00295078961010      0.06108978378152      0.42123343119138
  H   2.65756862546309     -0.55753994682510     -0.04195116906421
  H   2.05514694559812      0.99305738265967      0.02559785195835
  N   0.45962877681540     -1.68631383829668      0.80793155077080
  H   0.04160279674388     -2.32769896949375      0.15346114330604
  H   1.27633040158356     -2.07189621218524      1.25525377767945
  C   -1.76987229110613      0.00410100619168     -0.07624606746832
  H   -1.90912234129596     -0.85479686224957      0.58377967460709
  H   -2.18868798155294     -0.24796057730110     -1.05962778269149
  H   -2.36978226544055      0.83285890679521      0.31817181757475
  N   0.05237770229290      1.66918993269349     -0.71059060164959
  H   -0.30668182963316      1.76193910893341     -1.65511154170243
  H   -0.35865281938294      2.42229281925333     -0.16803103900252
