15
Coordinates from ORCA-job run
  C   0.68917209548864     -0.39433899006573      0.10150611440124
  C   -0.45253710924548      0.26802403543445     -0.20547724992527
  N   1.31100242808376     -0.39659243678689      1.36409293552370
  H   0.81841182042929      0.14933522544419      2.05376664983581
  H   1.48265857738360     -1.33809661103286      1.69263127738133
  N   1.44921631959324     -1.15104782753485     -0.81030705612227
  H   2.40692492746386     -0.83272691188774     -0.87604139662905
  H   1.01833682180938     -1.23011275308957     -1.71775635266236
  C   -1.38736007118518      0.83896774740773      0.82056224695371
  H   -2.42317624084788      0.68508556694865      0.50200741560613
  H   -1.27586878725437      0.36430409048774      1.79841163174345
  H   -1.25293954844084      1.92017278834529      0.93644501990297
  N   -0.82334642376067      0.57534453599579     -1.55452466000368
  H   -1.53356402056082     -0.04381499789948     -1.92772879444424
  H   -0.02693078895653      0.58649653823327     -2.17658778156146
