15
Coordinates from ORCA-job run
  C   0.73208370027478     -0.31194980046161      0.09661262304132
  C   -0.49305455069175      0.18440445591860     -0.20106840174204
  N   1.74331017408709     -0.57815984656719     -0.84668305573113
  H   1.50651359817560     -0.27579879923577     -1.77832925449273
  H   2.04491197063006     -1.54339992050440     -0.83115480760334
  N   1.16854815984556     -0.67434364034757      1.38434491972865
  H   2.04505047049064     -0.22788001953748      1.62093516819546
  H   0.47419590992259     -0.52642299095568      2.09995373754763
  C   -1.45167778970130      0.71081987613507      0.82679863692642
  H   -2.23268416375449     -0.01902098634463      1.06693627557542
  H   -0.95148977655010      1.00843392232819      1.75144737657138
  H   -1.96194092228570      1.59667370153613      0.43542517267775
  N   -1.03444557666387      0.15362525226757     -1.52638763976507
  H   -0.99574732164994      1.05068524403739     -1.99637628126382
  H   -0.59257388212916     -0.54766644826863     -2.10445446966591
