15
Coordinates from ORCA-job run
  C   0.76505493713411     -0.41627016624606      0.12252377990492
  C   -0.39899475107862      0.17919538421558     -0.23616994058395
  N   1.49137907059056     -1.23243877935671     -0.75126384545259
  H   1.09254579832460     -1.15084654275364     -1.67858885718752
  H   2.47302091002602     -0.98740940932008     -0.74507999866743
  N   1.39272345642341     -0.31629163841414      1.37272333428207
  H   1.65312282343960     -1.22727525527365      1.72654147446518
  H   0.86228032012708      0.20148978712505      2.05490971626585
  C   -1.31840188405356      0.91097808715922      0.69952452282230
  H   -1.09454525485868      0.72745457791499      1.75377945307454
  H   -1.29044545616864      1.99696020752198      0.54239718186661
  H   -2.35522116717146      0.59419501813541      0.53706021547591
  N   -0.75341524877394      0.09665358640390     -1.63160914144194
  H   -1.62913771599040     -0.40274764522680     -1.74766985950216
  H   -0.88996583797008      1.02535278811494     -2.01707803532181
