15
Coordinates from ORCA-job run
  C   0.77567119512774     -0.35903453286536      0.12290730089847
  C   -0.39387834307622      0.23129900938718     -0.21394552230620
  N   1.07807352940628     -0.95889997637788      1.36413384014639
  H   1.94181837785606     -0.58227427884282      1.73645672261338
  H   0.33103447621143     -0.86668443525218      2.03674982479300
  N   1.85317582142051     -0.47737713853927     -0.77188930412798
  H   1.68067437565926      0.03804547915347     -1.62297574751922
  H   2.11778772415848     -1.43636182353594     -0.95238429307046
  C   -1.44525466492659      0.67554209354807      0.75616460343105
  H   -1.08440282248896      0.67283391784403      1.78633997751172
  H   -2.35059312399069      0.05813891081085      0.71002084620015
  H   -1.74612133891533      1.70677881352708      0.53415365307412
  N   -0.61992637038395      0.54484110100105     -1.59820553420277
  H   -1.48604899273297      1.04811239665892     -1.72364676061246
  H   -0.65200984332505     -0.29495953651721     -2.16387960682918
