15
Coordinates from ORCA-job run
  C   0.79300173978944     -0.25103690558890      0.12652226388094
  C   -0.42814193806088      0.20467244037260     -0.24162299617539
  N   1.80579268188220     -0.53625105327422     -0.80147767208640
  H   2.18605587752325     -1.46582408046360     -0.67109444047498
  H   1.41920774706952     -0.43834510904539     -1.73353102831245
  N   1.18845345868374     -0.35435581595362      1.47260521414363
  H   0.61583401289891     -0.96673623671162      2.03092246599518
  H   2.17169278674169     -0.55171636873744      1.57331496226446
  C   -1.43670332134109      0.72885291261997      0.73700154907453
  H   -1.85701696123452      1.67771489230776      0.38318405542784
  H   -2.28215491445446      0.04163417166189      0.87509430593877
  H   -0.97993242649950      0.90656701490439      1.71294248873964
  N   -0.72706016543196      0.19325720993160     -1.65166515610002
  H   -1.57871895673730     -0.32930759303018     -1.82835195169498
  H   -0.89230962082905      1.13887452100675     -1.98184406062078
