15
Coordinates from ORCA-job run
  C   0.78011268960955     -0.38127610835895      0.13928493578110
  C   -0.40619227991025      0.15224171522445     -0.24293423443107
  N   1.54586562899148     -1.19340960362011     -0.70462606542298
  H   2.51502236086410     -0.90255346193636     -0.70457280463776
  H   1.14796621788366     -1.16006765038523     -1.63532084971729
  N   1.39617911796232     -0.21554719985250      1.38835127204430
  H   1.69639788311158     -1.10364195444445      1.76806384598534
  H   0.83837378887603      0.29497496846561      2.05407943274134
  C   -1.35847528706415      0.87691730775065      0.66461742030129
  H   -1.36480234810050      1.95917468941322      0.48129393638827
  H   -1.14013472339445      0.72615818927381      1.72524191586101
  H   -2.38272004410168      0.52244739829700      0.50023569039626
  N   -0.74721550167508      0.01349411526208     -1.63775379518433
  H   -0.91336874717703      0.92531567252287     -2.05142643335454
  H   -1.60600875587560     -0.51722807761209     -1.74153426675094
