14
Coordinates from ORCA-job run
  C   0.86167314359432      0.00316457961507     -0.01688660006396
  C   -0.37082945727221     -0.62626093879331      0.63108042506287
  Br  2.48281261081481     -0.91852167241433      0.81183177545195
  H   -0.37247714184169     -1.68785892825321      0.36098926930830
  H   -0.25018339129146     -0.57578834391407      1.71504356540207
  N   0.82734402822196     -0.11042791677834     -1.42491728337676
  H   0.74898359946662     -1.07837069428693     -1.71248221511421
  H   1.62908130818359      0.31636362600178     -1.87126572274289
  C   1.00879946096525      1.40849229954025      0.36452694371651
  N   1.08886846056593      2.54106414983907      0.66724600842056
  C   -1.66520244032013      0.05460572877934      0.19510185594751
  H   -1.67095628130614      1.10825309134845      0.48268593550294
  H   -2.51613886988094     -0.42929273842249      0.67972153421279
  H   -1.79977502989991     -0.00442224226129     -0.88467549172769
