14
Coordinates from ORCA-job run
  C   0.86115252426035     -0.02538691759569     -0.00176728367913
  C   -0.40298851407397     -0.62714472743974      0.61060197643306
  Br  2.43597847588976     -1.01779995211367      0.83605593664805
  H   -0.30033080149062     -0.60454399038312      1.69732386293772
  H   -0.43507504922887     -1.68184701938137      0.31652195876523
  N   0.84944598170955     -0.10839140302684     -1.41200436073067
  H   1.67203566834415      0.30171287795407     -1.83531401733506
  H   0.74497676870174     -1.06688261616197     -1.72194475771578
  C   1.04746950713702      1.36582876630274      0.41280711628052
  N   1.15961406585625      2.48855379853295      0.74074709430549
  C   -1.66582871202392      0.10637375618160      0.16755806645884
  H   -1.78171782682482      0.07687542949875     -0.91556077789060
  H   -1.64245996175704      1.15262824550201      0.48002754744274
  H   -2.54127212649958     -0.35997624786972      0.62494763807959
