14
Coordinates from ORCA-job run
  C   0.76597779026283      0.02599981307389     -0.17344745178424
  C   -0.69790788704987     -0.39374771484637     -0.29844276110614
  Br  1.57091981461190     -0.99262512921982      1.39897267016375
  H   -0.71067628936159     -1.47170166254514     -0.49204417816754
  H   -1.06324215048107      0.10749454871112     -1.20124445294227
  N   1.46371103347364     -0.20967773014312     -1.38161871286042
  H   2.44043258513081      0.04950045180862     -1.32088988471917
  H   1.38557518584524     -1.17918878382248     -1.66365193463667
  C   0.89255758044379      1.43468349038700      0.20253360728819
  N   0.97959769984687      2.57473702429690      0.47355738439820
  C   -1.58139959988277     -0.05097852898583      0.89222351574190
  H   -1.26003290454902     -0.57279769783568      1.79357191010322
  H   -1.57384765301138      1.02265609640301      1.09228053635195
  H   -2.61166520527939     -0.34335417728210      0.67919975216925
