14
Coordinates from ORCA-job run
  C   0.79192926287370      0.09043273724231      0.13761973851180
  C   -0.67022942734797      0.53855541529925      0.20047160710235
  Br  1.30719577581495     -0.80120392476420      1.81696320103759
  H   -0.85261307003580      1.11355879567261     -0.71728920074032
  H   -0.77459586760843      1.23799531622477      1.03385096830246
  N   0.98763357343857     -0.85821414051241     -0.93258960937641
  H   0.70837309509025     -0.43169726913497     -1.81114384191913
  H   1.96227071163672     -1.12839812552156     -1.00002832361219
  C   1.66233376879471      1.27514520368307      0.04075580055700
  N   2.33917924308256      2.22410446760478     -0.11659281463708
  C   -1.67191223587384     -0.60306055576089      0.31375959770735
  H   -1.54286104668805     -1.14627955989675      1.25023369983819
  H   -1.55954426283686     -1.31017472126263     -0.50730326822355
  H   -2.68715952034049     -0.20076363887339      0.29229244545197
