14
Coordinates from ORCA-job run
  C   0.85123579303812     -0.02391502133577     -0.04453547094734
  C   -0.61787933106963     -0.40146603187637     -0.27597933803116
  Br  1.52590478774076     -1.04725633001277      1.50600826537498
  H   -0.90841699399985      0.10681177204668     -1.20441510759920
  H   -0.64221131603505     -1.47813764781876     -0.47541989808567
  N   1.74458907655221     -0.29998307887457     -1.14614253099546
  H   1.63425016643863     -1.26382879153975     -1.44159164420399
  H   1.52706351152121      0.31381509022232     -1.92464210011524
  C   0.95999766818152      1.39820498351477      0.29411677219557
  N   1.01511653183583      2.55271011626850      0.50546868985279
  C   -1.58310748577587     -0.03391853320577      0.84275838168383
  H   -1.56108393262401      1.03878479878366      1.04706716930675
  H   -2.60274033035494     -0.29841856946537      0.55452662938489
  H   -1.34271814544893     -0.56540275670680      1.76378018217925
