14
Coordinates from ORCA-job run
  C   0.77394996095041      0.00800498853372     -0.14520657630607
  C   -0.69517928243582     -0.37025086052058     -0.33066621794430
  Br  1.49054609247923     -1.05479599486881      1.44280107718570
  H   -1.01202767010528      0.15268195647439     -1.23954203947915
  H   -0.72892656344041     -1.44480318409577     -0.53983270384553
  N   1.51076203222859     -0.23138716585049     -1.32850619252941
  H   2.49073763074025      0.00207773879839     -1.22837139958839
  H   1.41901337919332     -1.19508009111511     -1.62639239671595
  C   0.92244171970530      1.40709470033532      0.25691621598202
  N   1.01216140507638      2.54000453888925      0.55563551972900
  C   -1.61389870671326     -0.01958990810932      0.83048087076241
  H   -1.34023963400687     -0.56106440261060      1.73601873565552
  H   -2.64232235350259     -0.28275016956136      0.57446991075129
  H   -1.58701801016923      1.05085785370095      1.04519519634287
