14
Coordinates from ORCA-job run
  C   0.78337561503683     -0.15664641932532     -0.04980585047717
  C   -0.70144931806382     -0.38956114446668     -0.32032370676354
  Br  1.37168657979094     -1.25303254233073      1.47535858050275
  H   -0.80874399089720     -1.45340974722112     -0.54698374179944
  H   -0.93538608414709      0.16506253394822     -1.23877933141095
  N   1.55637417904454     -0.58190895889986     -1.19371289047208
  H   2.54505249220745     -0.41642203250903     -1.04095099364297
  H   1.26281624617743     -0.05343088419789     -2.00954727250250
  C   1.02381238239720      1.24314498452059      0.34017251842468
  N   1.21034185666919      2.38110968803764      0.57192255006828
  C   -1.64129778914080      0.04730185051837      0.79429256018116
  H   -1.45126364786616     -0.50935305866332      1.71262456852562
  H   -2.67580694842034     -0.13614206231659      0.49695579571609
  H   -1.53851157278818      1.11328779290574      1.00877721365007
