14
Coordinates from ORCA-job run
  C   0.96284356168158     -0.04455764108241      0.08129305863628
  C   -0.34633449893513     -0.62317731040981      0.63625332796890
  Br  2.44587405163476     -1.01161489291163      0.97167311820096
  H   -0.35039447200541     -1.69195584581421      0.39739594936960
  H   -0.33504883052483     -0.53810776549714      1.72606643155594
  N   1.16384314395787     -0.15817000179961     -1.33989326474602
  H   0.60059632559493      0.51836760185622     -1.84097239646495
  H   0.94121667353928     -1.09518908474800     -1.65512906867107
  C   1.08692188356949      1.36607104578716      0.45944052648961
  N   1.11255894450722      2.50340779923824      0.75326932917183
  C   -1.57852741447685      0.06639142678500      0.05866399076282
  H   -1.63489163394098     -0.04955098154589     -1.02553229999153
  H   -2.48293631118045     -0.37477021098458      0.48232459759371
  H   -1.58672142342146      1.13285586112665      0.29514670012394
