14
Coordinates from ORCA-job run
  C   0.86562946758105      0.18435434611841      0.13015014001298
  C   -0.63564560392939      0.48696263116140      0.27635691623252
  Br  1.47207633718806     -0.79959144209301      1.73250697127257
  H   -0.78653502072893      1.05302793969646      1.19962680183078
  H   -0.88935634047657      1.15638704357916     -0.55550994112836
  N   1.27011516650937     -0.58973240921649     -1.02004714598758
  H   0.79577730263858     -1.48427739520629     -1.02767525353738
  H   1.05020382435106     -0.08261889150965     -1.87131279163159
  C   1.60181995108133      1.45299477727894      0.11352336907872
  N   2.13172481586828      2.50046298503854      0.06423441865602
  C   -1.53699791278009     -0.73977178270555      0.24546244250330
  H   -2.57800835888155     -0.43245630718469      0.36273525001017
  H   -1.46335553203304     -1.27275441272601     -0.70486848586835
  H   -1.29844809638817     -1.43198708223123      1.05381730855622
