14
Coordinates from ORCA-job run
  C   0.78413239882319     -0.14489708840321     -0.06792289595862
  C   -0.70268190940567     -0.39530500626740     -0.31050410619753
  Br  1.41884222690278     -1.25229770189596      1.43098322938951
  H   -0.96335270250989      0.16796517831118     -1.21646291778875
  H   -0.80029866661242     -1.45751688862408     -0.54901228212401
  N   1.53890217868655     -0.54470069033278     -1.23287593908166
  H   1.22005758723485     -0.01173754286930     -2.03615836957926
  H   2.52814261598775     -0.36669292712831     -1.09925692291121
  C   1.01401830935345      1.25286438920332      0.33482376178570
  N   1.19139728064084      2.39031755187986      0.57667685147950
  C   -1.62469252866737      0.01396556576269      0.82914599853614
  H   -2.66295015142608     -0.17624999334586      0.54965356176236
  H   -1.41036677697007     -0.55436570098597      1.73489216770454
  H   -1.52914986203789      1.07765085469584      1.05801786298330
