14
Coordinates from ORCA-job run
  C   0.85392843089966     -0.03164753634111     -0.03623993327580
  C   -0.61653364437377     -0.38518083975793     -0.29534939675530
  Br  1.49771933106322     -1.10238127053704      1.49473070338462
  H   -0.89024272952393      0.15015218035954     -1.21370145316305
  H   -0.65044745561758     -1.45609694337174     -0.52293858607550
  N   1.75747475581918     -0.29037947741126     -1.13404182861019
  H   1.54974867942825      0.33948041946334     -1.90248846774408
  H   1.64429367388865     -1.24746117359334     -1.44989961645297
  C   0.97402566840140      1.37939409868820      0.34236201747157
  N   1.01242730809634      2.52521850526960      0.59952923946517
  C   -1.59195165518337     -0.03604438933645      0.82063323779809
  H   -1.56048429189793      1.03051396977408      1.05349077127881
  H   -1.36934979113718     -0.59435551690701      1.73018441006832
  H   -2.61060827986293     -0.28121202629889      0.51272890261032
