14
Coordinates from ORCA-job run
  C   0.94079629019409     -0.51362154415707      0.06150775951866
  C   -0.42158725689828      0.14446277245673     -0.29033615981075
  H   1.05521146289928     -1.42783158672835     -0.52768774908899
  H   -0.36341132740274      0.45454941767193     -1.33963832772835
  C   0.91297914066722     -0.85851292628752      1.49309643687671
  N   0.79674370887768     -1.11976906503685      2.62777412788319
  C   2.05430256783196      0.40555460690263     -0.19179611426338
  N   2.96601190566805      1.13324396182852     -0.33066512892863
  N   -0.55662693947818      1.34100156929071      0.51512212382177
  H   -1.15651098104068      2.01446013321279      0.05735292455674
  H   -0.96098083244871      1.11388607487160      1.41844835341443
  N   -1.44190386213904     -0.89746755138322     -0.17969046448790
  H   -1.46463789768661     -1.27240283286314      0.76730817574334
  H   -2.36038597904403     -0.51755302977877     -0.37179595750684
