14
Coordinates from ORCA-job run
  C   1.05221194455484      0.07473324361574      0.34648048101274
  C   -0.42725302264250      0.38439488517909     -0.02413062886445
  H   1.59738795591251      1.02504391495643      0.41690094545680
  H   -0.39113283559797      0.89434607383783     -1.00377021123555
  C   1.66369670173946     -0.73005450693778     -0.71703281837625
  N   2.06385466292030     -1.37652161272405     -1.61518576322284
  C   1.12507341767809     -0.60418332789164      1.64298143940884
  N   1.22208768149729     -1.14719077231629      2.67640276848872
  N   -0.96379370487812      1.21978622435552      1.03180942340887
  H   -1.95311969343138      1.05742315141672      1.16811544278938
  H   -0.82930707010881      2.19955955846461      0.81536418789049
  N   -1.14386612324497     -0.86991485422719     -0.05219341779911
  H   -2.14148015604688     -0.70946029600842     -0.11269141388880
  H   -0.87535975835186     -1.41696168172057     -0.86305043506885
