17

C	0.0	0.0	0.0
C	-0.404241	-0.028826	-1.511897
Br	1.963468	0.0	0.0
H	0.518617	0.014766	-2.097836
H	-0.206711	0.999459	0.397312
N	-0.5905	-1.054521	0.763156
H	-1.611232	-0.904323	0.605448
H	-0.429934	-0.864037	1.748926
C	-1.231372	1.210591	-1.857796
H	-1.46575	1.218315	-2.929253
H	-0.677391	2.128304	-1.628229
H	-2.163465	1.175664	-1.284967
C	-1.13374	-1.307113	-1.920083
H	-2.127123	-1.325089	-1.465505
H	-0.575389	-2.19715	-1.620238
H	-1.247277	-1.313495	-3.011244
H	-3.285642	0.0	0.0
