17

C	0.0	0.0	0.0
C	-0.379438	0.074378	-1.526707
Br	1.978723	0.0	0.0
H	0.540509	0.148035	-2.112705
H	-0.240893	0.957119	0.464389
N	-0.582768	-1.014028	0.811782
H	-1.592864	-0.7629	0.818728
H	-0.512292	-1.907202	0.336568
C	-1.204158	1.33649	-1.779386
H	-2.133491	1.264707	-1.204264
H	-1.446763	1.42291	-2.845398
H	-0.644362	2.23277	-1.485979
C	-1.142321	-1.160498	-1.996721
H	-1.345161	-1.070393	-3.069647
H	-2.095521	-1.215315	-1.462459
H	-0.567337	-2.08345	-1.851517
H	-3.30129	0.0	0.0
