10
Coordinates from ORCA-job run
  C   -0.30380155560233     -0.00489310907222      0.09336541422729
  C   0.90673050636115     -0.35368357214484     -0.38381218238783
  H   1.07044767015461     -1.38077162808069     -0.69689067482812
  C   -0.67227603875997      1.29459710517443      0.53946738762739
  N   -0.94008949450650      2.38351137983073      0.89849130553287
  N   -1.36688592715090     -1.04273521251711      0.18206774276594
  O   -2.42961123539882     -0.67538319040933      0.67169879190137
  O   -1.09210456549843     -2.15946171551239     -0.23265803776715
  C   1.96751755419347      0.58632853441277     -0.48948357461881
  N   2.85807308620771      1.35149140831866     -0.58324617245295
