10
Coordinates from ORCA-job run
  C   -0.38518788626413      0.27518661081033     -0.00346734535057
  C   0.86525660313188      0.45168693184207     -0.47748710835732
  H   1.10671889815938      1.41967683661800     -0.90962152084753
  C   -1.37248269349243      1.30133643087524     -0.04492453648436
  N   -2.16685190902723      2.16749757499882     -0.10922903236690
  N   -0.82249675070463     -0.98406736408526      0.64433968371250
  O   -0.25188668825645     -2.01182591012572      0.30474916531569
  O   -1.71845317768948     -0.86557976384312      1.47372799953244
  C   1.90815210605236     -0.51538070906444     -0.43993765285599
  N   2.83723149809073     -1.23853063802591     -0.43814965229796
