10
Coordinates from ORCA-job run
  C   -0.31679978770021     -0.00334271115833      0.02082821454269
  C   0.98150687760628     -0.36230186115973      0.00768747979587
  H   1.24036358378270     -1.40023607470868      0.19531603800463
  C   -0.81288798675291      1.31054259030350     -0.20459305969887
  N   -1.18603608440806      2.41049777163119     -0.39758106930189
  N   -1.34651764508329     -1.04317154736927      0.29328397749690
  O   -2.50924489805302     -0.65372617776868      0.29406428388573
  O   -0.94952494184045     -2.18285270168979      0.48911651789626
  C   2.01517820751524      0.58001656760407     -0.24538187140721
  N   2.88596267493373      1.34557414431572     -0.45274051121411
