10
Coordinates from ORCA-job run
  C   -0.30989865026521     -0.02858092012919      0.06444006584051
  C   0.94936597314891     -0.26002837944782     -0.35432875317056
  H   1.18530896779539     -1.22183555139752     -0.80008464033044
  C   -0.77214103470949      1.17510821129725      0.66502971809174
  N   -1.11913597354847      2.18768866564312      1.15554268506133
  N   -1.32788059819155     -1.10253525804593     -0.09344820797576
  O   -0.97563641074520     -2.12563162386242     -0.66238962706769
  O   -2.43620345286782     -0.85755015853639      0.37087822732578
  C   1.97192133007671      0.71874306761248     -0.22391507175373
  N   2.83329984930675      1.51562194686643     -0.12172439602117
