10
Coordinates from ORCA-job run
  C   -0.30682060496319     -0.01809011246764      0.08245449955615
  C   0.98760799817536     -0.30609634247465     -0.15475730801773
  H   1.34133773053218     -1.31664611761401      0.02791250518123
  C   -0.91795020093416      1.25273961912974     -0.10428672724807
  N   -1.38721170845674      2.32054540227660     -0.26494048346604
  N   -1.20428046165194     -1.09926460897041      0.57378190285502
  O   -0.69513784295861     -2.18837645155211      0.79615803216945
  O   -2.38368195157306     -0.79198073158872      0.70839703444312
  C   1.89711209446522      0.67579363066020     -0.63324024634100
  N   2.66702494736494      1.47337571260101     -1.03147920913213
