10
Coordinates from ORCA-job run
  C   -0.31529492041623     -0.00643962964088      0.03561398688454
  C   0.99891856122667     -0.29465094392135      0.10251334305182
  H   1.31328281881636     -1.18393939592101      0.64099742649039
  C   -0.88192625148065      1.11641785441216     -0.62881622416939
  N   -1.31513052415092      2.05956903653610     -1.18488182156943
  N   -1.28567574483960     -0.92210305934386      0.69584813238722
  O   -0.82526480160477     -1.87633065160721      1.30578459363318
  O   -2.46893463953574     -0.63038435118856      0.56113437384355
  C   1.97790854378311      0.53224808770876     -0.51211154749146
  N   2.80311695820177      1.20561305296586     -1.01508226306042
