10
Coordinates from ORCA-job run
  C   -0.30581200929197     -0.00872133478444      0.08547069429162
  C   0.94611025219503     -0.35451708274675     -0.27228344447892
  H   1.19473103335804     -1.40827028344614     -0.35744186232476
  C   -0.78251018694012      1.32255635855699      0.23958192319236
  N   -1.14078849407826      2.43790664108144      0.35801029831911
  N   -1.30017985983302     -1.08451589778212      0.34917855081417
  O   -2.42096207109034     -0.70591035487101      0.67187423639804
  O   -0.91885959974215     -2.23920063756405      0.22343812691133
  C   1.94416340790844      0.62238250489845     -0.53723010558734
  N   2.78510752751435      1.41629008665764     -0.76059841753560
