10
Coordinates from ORCA-job run
  C   -0.35930808483363      0.28938393192859      0.06500005746807
  C   0.98191829196267      0.43722252027337      0.07543353875056
  H   1.36569674675714      1.43461639754439      0.27686362994186
  C   -1.23866305363886      1.38543847074604      0.30681975790179
  N   -1.92453515115505      2.31947232417594      0.51232004334927
  N   -1.03632107528834     -1.00630955004346     -0.19266188282801
  O   -0.32211118769789     -1.97737074341728     -0.39793708934761
  O   -2.26269537144324     -0.97619566532288     -0.17510288808739
  C   1.95061092637867     -0.58006474438577     -0.15099226329418
  N   2.84540795895854     -1.32619294149895     -0.32074290385435
