10
Coordinates from ORCA-job run
  C   -0.30145679577630     -0.00735438386892      0.09596636766124
  C   0.93017105904188     -0.37160453552831     -0.31035653824067
  H   1.15894605814025     -1.42831032951004     -0.41145572880680
  C   -0.74814606926917      1.33130804900098      0.27487832491335
  N   -1.07637308356092      2.45347063552088      0.41298156790640
  N   -1.30575568641819     -1.06515410902942      0.38747306791798
  O   -0.95357106067663     -2.22587940896970      0.23469371324968
  O   -2.40372749571665     -0.66771701411709      0.76283061016268
  C   1.93225028471601      0.59432843578545     -0.60098529550138
  N   2.76866278951973      1.38691266071616     -0.84402608926248
