10
Coordinates from ORCA-job run
  C   -0.31563104340148      0.00208062431724      0.03757615772388
  C   0.97445459486703     -0.37843200867879     -0.03727565161281
  H   1.22528048929593     -1.41883099732562      0.14787972104475
  C   -0.80098323946182      1.32155986148623     -0.17851929362165
  N   -1.16509443172923      2.42573549281066     -0.36467960835551
  N   -1.34700065132189     -1.01785844734235      0.37084109106587
  O   -0.95908247656757     -2.16099737880114      0.56387962161698
  O   -2.50232604253585     -0.60981647361778      0.42065400315940
  C   2.00928315339791      0.54403014643101     -0.35121053963764
  N   2.88109964745698      1.29252918072054     -0.61014550138328
