10
Coordinates from ORCA-job run
  C   -0.31131337217245      0.00530202667116      0.06567810519055
  C   0.89952950503718     -0.31179934277115     -0.43233858394377
  H   0.98264356800460     -1.15618950648324     -1.11037796025633
  C   -0.58129312352871      1.07763291037594      0.96036836185011
  N   -0.76515254525212      1.97591333163391      1.69892595957100
  N   -1.48746492750632     -0.81735537221006     -0.32896192139336
  O   -1.29234676050297     -1.72286820685850     -1.12680966270788
  O   -2.55316461719974     -0.50698917790957      0.19248478863764
  C   2.06486954634088      0.42815281203958     -0.09359452165272
  N   3.04269272677963      1.02720052551194      0.17562543470475
