10
Coordinates from ORCA-job run
  C   -0.36690828613461      0.29892627812296      0.02337444863447
  C   0.92601657102129      0.46998339904298     -0.32063784511022
  H   1.25854372904733      1.48152674414280     -0.53979077107003
  C   -1.28794780010300      1.38191015821880      0.11269718713749
  N   -2.02839506159992      2.29532111978819      0.16301542676941
  N   -0.92715153568682     -1.02477014801575      0.38446390653128
  O   -0.39449943812474     -2.00859195391028     -0.11098800279297
  O   -1.87452087795491     -1.00034648669018      1.16318609049774
  C   1.90415510896581     -0.56040956330338     -0.39909047666519
  N   2.78970759056958     -1.33254954739616     -0.47622996393198
