10
Coordinates from ORCA-job run
  C   -0.31530656447809     -0.01837624301835      0.03444746987368
  C   1.00688963326458     -0.27255991086858      0.08024367017385
  H   1.34918171713766     -1.17962997137865      0.56986474922488
  C   -0.91672122728745      1.12110847730751     -0.56820484631967
  N   -1.37842441655419      2.07736747425715     -1.07690075762901
  N   -1.25535758762405     -0.99081661209253      0.65590175871466
  O   -0.76668270696181     -1.97893073882747      1.18455131494511
  O   -2.44530252580732     -0.70518181660503      0.57750135045795
  C   1.95887098962604      0.61300110389915     -0.49408893957605
  N   2.76285268868463      1.33401823732680     -0.96431576986538
