10
Coordinates from ORCA-job run
  C   -0.30959660268614     -0.02942493305513      0.06392062353267
  C   0.94783963273643     -0.25576905768087     -0.36340113299522
  H   1.16538524004500     -1.18399846766007     -0.88374893133227
  C   -0.74959745162895      1.13352520714944      0.75492288698851
  N   -1.07658391084586      2.11299822226587      1.32079907293608
  N   -1.35189892215198     -1.06070168824126     -0.19125832996111
  O   -2.47453008081968     -0.79744600169723      0.22576700842823
  O   -1.00437654965108     -2.06940040326028     -0.78822018810704
  C   1.98952640545702      0.68801565199437     -0.15191666187778
  N   2.86283223954524      1.46120147018516      0.01213565238793
