10
Coordinates from ORCA-job run
  C   -0.31648703488756     -0.01894164392875      0.01996187923350
  C   1.00256679372261     -0.27308272889535      0.12127391023352
  H   1.32374613911655     -1.18453524659984      0.61693147189319
  C   -0.89182008692753      1.12617905076210     -0.59723654493594
  N   -1.33159988487051      2.08723415704204     -1.11620386789936
  N   -1.28197635237242     -0.99731839266257      0.59093494435106
  O   -2.46747810716381     -0.70908558061653      0.46736227562385
  O   -0.81626789486531     -1.99242642079784      1.12714270749730
  C   1.97833266120558      0.61810639698473     -0.40212304525259
  N   2.80198376704238      1.34387040871201     -0.82904373074452
