10
Coordinates from ORCA-job run
  C   -0.31296088080818     -0.05078012720524      0.01628671907953
  C   1.02122691064067     -0.13756615820196      0.18083747799168
  H   1.42022375113191     -0.91782833301691      0.82236805827800
  C   -0.98541743868377      0.91087238005962     -0.78771445177908
  N   -1.50924624186361      1.72235643653005     -1.46121886308181
  N   -1.18846860915234     -1.02706979501993      0.72081284650756
  O   -2.39276229317687     -0.89593987603211      0.53082060379520
  O   -0.63834179477931     -1.86541543011272      1.42021517652473
  C   1.91401316779911      0.76273741354256     -0.46158750820834
  N   2.67073342889240      1.49963348945663     -0.98282005910746
