10
Coordinates from ORCA-job run
  C   -0.36972398770486      0.29410098666362      0.03409218699170
  C   0.94753788110165      0.50551510465718     -0.16432199558373
  H   1.29102699442583      1.53619045786866     -0.20307646620364
  C   -1.30175654494439      1.35901531603174      0.19643654756296
  N   -2.04683241858756      2.26265912140644      0.31215878486729
  N   -0.95102074484314     -1.06468936498443      0.14712393257743
  O   -0.36872769650636     -1.96975166386369     -0.43480399064834
  O   -1.96497041363578     -1.14729733784837      0.83232405039650
  C   1.93600221899986     -0.50844597316498     -0.30411498504341
  N   2.82946471169475     -1.26729664676617     -0.41481806491676
