10
Coordinates from ORCA-job run
  C   -0.34921560891416      0.29767933265397      0.11665548499679
  C   0.93138461823030      0.49687016223855     -0.25705216103677
  H   1.30357897000811      1.51829000512393     -0.25033611812339
  C   -1.20613395127353      1.36291183605904      0.51699898776267
  N   -1.89221893423681      2.26778447573669      0.82630902069087
  N   -0.95850181691359     -1.05137091416156      0.18849247041936
  O   -0.50361863385716     -1.90806114868037     -0.55733364189286
  O   -1.86236653643119     -1.17736684954295      1.00809825888332
  C   1.84930523051172     -0.52084472039776     -0.63931498876716
  N   2.68778666287630     -1.28589217902953     -0.95251731293282
