10
Coordinates from ORCA-job run
  C   -0.30789594111829     -0.02812594304413      0.07419688453074
  C   0.98342691219807     -0.29195953956804     -0.20433486061831
  H   1.31917383542587     -1.32483461227315     -0.20263279574863
  C   -0.89668597614978      1.26625060171147      0.11120870418098
  N   -1.34593316873060      2.35445501343729      0.13336184454903
  N   -1.22445763839537     -1.16204999938282      0.37264540379504
  O   -2.38660490992183     -0.85679131835549      0.61746055758829
  O   -0.74629320967783     -2.28696586950470      0.34830615353235
  C   1.91114410722732      0.74357916732540     -0.49995064186546
  N   2.69412598914244      1.58744249965417     -0.74926124994405
