10
Coordinates from ORCA-job run
  C   -0.35135089517398      0.29527645650751      0.11591523274362
  C   0.95894273870958      0.49326619951001     -0.13554688170340
  H   1.34986759120046      1.49883547636627     -0.00165855581271
  C   -1.21627710720292      1.34102452859809      0.54914712563751
  N   -1.90647559424232      2.23009815486816      0.89303360110018
  N   -0.99131947533593     -1.03727167754185      0.00970620718350
  O   -0.49524803426606     -1.83182555509172     -0.77748963307824
  O   -1.96112413721481     -1.21474305552518      0.73948123242636
  C   1.88435456676585     -0.50966782646515     -0.53831924682361
  N   2.73063034676013     -1.26499270122612     -0.85426908167322
