10
Coordinates from ORCA-job run
  C   -0.30939158058205     -0.00552744261210      0.08500621952508
  C   0.97349683196574     -0.33987858873104     -0.15350172897584
  H   1.30505353809532     -1.34630897588451      0.08594533046471
  C   -0.89064685064817      1.26737127579729     -0.16924257003523
  N   -1.32672416982022      2.33617214010639     -0.40036814505173
  N   -1.22194815053670     -1.03128954691770      0.66173324655162
  O   -0.74993744907961     -2.13696985372850      0.88279685112567
  O   -2.37321588590867     -0.66237584899940      0.86715115251590
  C   1.90073227214621      0.58689001442529     -0.70280200695050
  N   2.69258144436812      1.33191682654429     -1.15671834916967
