10
Coordinates from ORCA-job run
  C   -0.35076754224648      0.31738338640806      0.02052075090390
  C   0.98435868249879      0.44297551512873     -0.12503763558736
  H   1.37991088545319      1.44243648820014     -0.28759708040045
  C   -1.23719826456512      1.43108228689462     -0.03841648701006
  N   -1.94021049768031      2.37434403733522     -0.07383676259712
  N   -1.01308184137098     -0.99544613561008      0.20582682533982
  O   -0.35444683045338     -1.88144634345939      0.73336748474250
  O   -2.16690037714054     -1.06510982087257     -0.20462406489235
  C   1.92269748582184     -0.62631662239145     -0.10618168309702
  N   2.77463829968299     -1.43890279163329     -0.12402134740186
