10
Coordinates from ORCA-job run
  C   -0.31695629640880      0.00725834041950      0.02086215646147
  C   0.96070933222432     -0.39797551263075     -0.11354709429567
  H   1.16216910853119     -1.45531256487540     -0.25842746768349
  C   -0.74143435267635      1.35059404951588      0.21669587327730
  N   -1.05592439901411      2.47396493399126      0.37642299782070
  N   -1.40217719951278     -1.01006434338375     -0.03462915324940
  O   -1.06759947643306     -2.17355469703364     -0.20467735770209
  O   -2.54266728339189     -0.57943445547168      0.09763487049109
  C   2.04526663659603      0.51966940134029     -0.06801343123710
  N   2.95761393008543      1.26385484812829     -0.03232139388283
