10
Coordinates from ORCA-job run
  C   -0.35494196321324      0.29960628208331      0.03938564422422
  C   0.98732867561811      0.43249531427547      0.00276919270552
  H   1.38537433490592      1.44032223612660      0.09446791823685
  C   -1.21857659779282      1.42375911776856      0.19220834585015
  N   -1.89192821859907      2.38019203709879      0.32189097483941
  N   -1.04878306555516     -1.00843906817783     -0.06577143320636
  O   -0.35451294712043     -1.99205847526839     -0.27987949834394
  O   -2.26678895251056     -0.97522769435363      0.07762256604468
  C   1.94051885743008     -0.61442045610061     -0.13798261937430
  N   2.82330987683716     -1.38622929345226     -0.24371109097622
