10
Coordinates from ORCA-job run
  C   -0.31520826612591     -0.02897655535468      0.00567603851984
  C   1.00351455437005     -0.23860061853332      0.18378754336992
  H   1.32329513918896     -1.06555646074960      0.81084452476188
  C   -0.88725892755361      1.01653689538161     -0.77093313517622
  N   -1.32871808502243      1.89967774140679     -1.41261489270521
  N   -1.28376961746980     -0.94063461071917      0.67188075301896
  O   -0.82168384036966     -1.83049089396462      1.37125031116984
  O   -2.46847954717980     -0.70871382004407      0.45612617395010
  C   1.98038685859047      0.60269561992430     -0.41420191230850
  N   2.79992173157175      1.29406270265277     -0.90181540460063
