10
Coordinates from ORCA-job run
  C   -0.37161906265186      0.29054656774525      0.03977174399824
  C   0.92016131759572      0.50209097105293     -0.28614511421687
  H   1.23633594863304      1.53024021584577     -0.44361688812889
  C   -1.30975432522752      1.35261594088606      0.18521622711649
  N   -2.06268739671056      2.25213486713136      0.28099521983382
  N   -0.91306675043659     -1.06040927388859      0.31944472835837
  O   -0.36105529174402     -2.00556955702194     -0.22744523317662
  O   -1.86637097390011     -1.09566938387321      1.09056049570607
  C   1.91524415699574     -0.50604837473048     -0.41946524642993
  N   2.81281237744616     -1.25893197314717     -0.53731593306067
