10
Coordinates from ORCA-job run
  C   -0.36769215742099      0.29854969254818      0.00282295737257
  C   0.95020408643315      0.48002784113435     -0.22021388919055
  H   1.27754234779408      1.47469845436291     -0.51259925924518
  C   -1.32144211359254      1.34727111935020     -0.13765449796355
  N   -2.08122262731141      2.23932172889479     -0.24778137702867
  N   -0.94104889799242     -1.01945882137916      0.36472030712362
  O   -2.10411137146799     -1.19980847978233      0.01928202198200
  O   -0.20936404574264     -1.80129365374182      0.95665520319125
  C   1.95071654778544     -0.52731029410766     -0.12786277199697
  N   2.84641823151533     -1.29099758727945     -0.09636869424451
