18

C	0.0	0.0	0.0
C	-0.459699	-0.058616	-1.487153
Cl	1.859404	0.0	0.0
H	0.387193	0.235731	-2.11145
C	-0.393832	1.279991	0.715752
H	-0.042708	2.154615	0.172632
H	0.046877	1.280197	1.71713
H	-1.481408	1.315837	0.795882
N	-0.499519	-1.113049	0.702992
H	-0.195795	-1.979687	0.28057
H	-0.278885	-1.077432	1.687759
N	-1.515506	0.909927	-1.7107
H	-1.77564	0.880302	-2.690611
H	-2.355258	0.655897	-1.179958
N	-0.759507	-1.459524	-1.817282
H	-0.843319	-1.531046	-2.825175
H	-1.679583	-1.659408	-1.428642
Br	-4.423656	0.0	0.0
