18

C	0.0	0.0	0.0
C	-0.346914	-0.006721	-1.530689
Cl	1.793686	0.0	0.0
H	0.305481	0.763587	-1.963498
C	-0.46665	1.287824	0.659229
H	-1.560341	1.297863	0.677638
H	-0.093413	1.339125	1.68624
H	-0.100254	2.16332	0.115728
N	-0.513324	-1.197633	0.630891
H	-0.254049	-1.198217	1.612456
H	-1.533239	-1.132382	0.590708
N	-1.694163	0.346823	-1.911369
H	-2.415587	-0.190822	-1.434828
H	-1.902111	1.316728	-1.705217
N	0.024468	-1.304002	-2.079755
H	-0.175014	-2.008847	-1.378382
H	-0.583218	-1.455171	-2.875739
Br	-4.385958	0.0	0.0
