18

C	0.0	0.0	0.0
C	-0.462065	-0.639753	-1.303713
Cl	1.900017	0.0	0.0
H	-1.555184	-0.557949	-1.238074
C	-0.422564	1.443888	0.118147
H	-1.517093	1.457249	0.083622
H	-0.08971	1.851097	1.076329
H	-0.008541	2.039855	-0.691841
N	-0.480735	-0.758328	1.054386
H	-0.359383	-1.750449	0.937672
H	-0.312308	-0.393949	1.975705
N	-0.125108	-2.065173	-1.286102
H	-0.722581	-2.552108	-1.945644
H	0.839167	-2.182688	-1.577742
N	-0.011626	0.139549	-2.444697
H	0.980995	-0.007841	-2.590233
H	-0.51071	-0.161629	-3.271125
Br	-4.113419	0.0	0.0
