18

C	0.0	0.0	0.0
C	-0.491024	-0.262776	-1.458412
Cl	1.868198	0.0	0.0
H	0.377864	-0.20754	-2.119391
C	-0.37037	1.36685	0.554303
H	0.0962	1.493327	1.535458
H	-1.455364	1.410095	0.665232
H	-0.03769	2.16278	-0.10742
N	-0.485465	-0.999631	0.862732
H	-0.276823	-1.924744	0.512983
H	-0.174943	-0.869921	1.814617
N	-1.406743	0.791841	-1.868306
H	-2.260431	0.735161	-1.304068
H	-1.694016	0.597487	-2.823146
N	-0.99851	-1.638616	-1.53631
H	-1.917269	-1.634238	-1.094113
H	-1.138607	-1.863557	-2.514647
Br	-4.309755	0.0	0.0
