18

C	0.0	0.0	0.0
C	-0.466853	-0.616115	-1.31563
Cl	1.900242	0.0	0.0
H	-1.558709	-0.52263	-1.250708
C	-0.416818	1.445758	0.139467
H	-0.008688	2.03923	-0.671821
H	-1.510063	1.453487	0.106397
H	-0.074815	1.844267	1.095988
N	-0.480536	-0.767042	1.043676
H	-0.328346	-0.415777	1.971771
H	-0.391973	-1.760637	0.916556
N	-0.144733	-2.046101	-1.311285
H	0.829711	-2.166245	-1.570076
H	-0.722828	-2.5173	-1.996537
N	-0.001043	0.168716	-2.44876
H	-0.493998	-0.126104	-3.283791
H	0.992553	0.015212	-2.585434
Br	-4.058939	0.0	0.0
