18

C	0.0	0.0	0.0
C	-0.459034	-0.51033	-1.362481
Cl	1.90028	0.0	0.0
H	-1.552269	-0.433788	-1.298336
C	-0.42175	1.427694	0.259597
H	-0.008054	2.096787	-0.491275
H	-0.087907	1.741345	1.252763
H	-1.51591	1.439747	0.222253
N	-0.47549	-0.856977	0.982952
H	-0.244659	-0.588191	1.925624
H	-0.31701	-1.829836	0.771519
N	-0.121447	-1.930926	-1.478388
H	-0.740888	-2.368247	-2.149103
H	0.833547	-2.023385	-1.805662
N	-0.000452	0.373687	-2.422172
H	0.998767	0.259106	-2.55465
H	-0.4735	0.130694	-3.283791
Br	-4.155494	0.0	0.0
