17

C	0.0	0.0	0.0
C	-0.5037	0.014553	-1.431471
Cl	1.785403	0.0	0.0
H	-1.578346	0.223418	-1.296805
H	0.004892	0.81848	-1.967423
N	-0.389253	1.325119	0.661149
O	-0.595664	1.326189	1.868621
O	-0.395536	2.32176	-0.052978
C	-0.497353	-1.147103	0.839674
H	-1.595704	-1.059477	0.765659
H	-0.11584	-2.080829	0.420983
H	-0.137063	-1.048076	1.862958
C	-0.310247	-1.324114	-2.132734
H	0.711477	-1.707624	-2.042984
H	-0.532861	-1.219617	-3.198842
H	-1.003045	-2.060841	-1.723671
F	-2.834319	0.0	0.0
