17

C	0.0	0.0	0.0
C	-0.555579	0.074957	-1.414075
Cl	1.771666	0.0	0.0
H	-1.648373	0.115239	-1.213253
H	-0.324453	-0.908932	-1.841024
N	-0.392383	1.229158	0.823011
O	-0.469054	1.093026	2.039244
O	-0.528634	2.2948	0.232245
C	-0.525157	-1.228241	0.70757
H	-0.194896	-2.111051	0.153884
H	-1.622081	-1.101834	0.65799
H	-0.153245	-1.279664	1.729441
C	-0.052782	1.152046	-2.367997
H	1.039361	1.22269	-2.380348
H	-0.45619	2.129332	-2.114473
H	-0.37867	0.900864	-3.383069
F	-2.906537	0.0	0.0
