17

C	0.0	0.0	0.0
C	-0.259565	0.144835	-1.522637
Cl	1.784082	0.0	0.0
H	0.24164	-0.733858	-1.945537
H	0.334258	1.00491	-1.841983
N	-0.402616	1.263564	0.746521
O	-0.484905	1.182729	1.966354
O	-0.541402	2.293074	0.096025
C	-0.626097	-1.193476	0.649727
H	-0.295176	-1.298602	1.682636
H	-1.721782	-0.972108	0.571499
H	-0.356006	-2.08525	0.078601
C	-1.647697	0.26307	-2.129516
H	-1.49911	0.349155	-3.216291
H	-2.173118	1.129714	-1.744793
H	-2.291383	-0.570472	-1.874047
F	-3.024574	0.0	0.0
