17

C	0.0	0.0	0.0
C	-0.275424	-0.14009	-1.52523
Cl	1.784464	0.0	0.0
H	0.020472	-1.176443	-1.730974
H	0.464003	0.486979	-2.026877
N	-0.366076	1.403363	0.477453
O	-0.35363	2.30288	-0.35672
O	-0.574256	1.555401	1.67559
C	-0.680604	-1.015409	0.859554
H	-1.768803	-0.801383	0.710745
H	-0.423887	-2.014777	0.499881
H	-0.392059	-0.912263	1.905321
C	-1.645839	0.141504	-2.126095
H	-2.465904	-0.221657	-1.488271
H	-1.655605	-0.283703	-3.137972
H	-1.794739	1.219845	-2.205129
F	-3.215566	0.0	0.0
