17

C	0.0	0.0	0.0
C	-0.20878	0.1919	-1.554191
Cl	1.859169	0.0	0.0
H	0.560525	-0.441263	-2.003666
N	-0.504417	1.126815	0.720139
H	-1.52966	0.987821	0.57274
H	-0.318838	0.975275	1.708245
N	-0.486041	-1.307436	0.351323
H	-0.237713	-1.481025	1.321912
H	-1.513632	-1.128357	0.31551
C	0.135124	1.5686	-1.93048
N	0.393089	2.637835	-2.343503
C	-1.52036	-0.217493	-2.235229
H	-1.695495	-1.276664	-2.047621
H	-1.386223	-0.067476	-3.312902
H	-2.373371	0.320288	-1.838266
F	-2.846504	0.0	0.0
