17

C	0.0	0.0	0.0
C	-0.220092	-0.065131	-1.569349
Cl	1.79392	0.0	0.0
H	0.460644	-0.860294	-1.885781
N	-0.520359	1.235559	0.512369
H	-0.303748	1.281579	1.505008
H	-1.54539	1.060066	0.419356
N	-0.514739	-1.227959	0.555682
H	-0.281549	-1.237713	1.545463
H	-1.539579	-1.044056	0.481159
C	0.280866	1.172961	-2.181074
N	0.63126	2.132343	-2.760962
C	-1.57968	-0.397359	-2.190326
H	-2.333194	0.344082	-1.955683
H	-1.945118	-1.343431	-1.798615
H	-1.422116	-0.486368	-3.272493
F	-2.870509	0.0	0.0
