17

C	0.0	0.0	0.0
C	-0.21115	0.224706	-1.550205
Cl	1.857236	0.0	0.0
H	0.56791	-0.383002	-2.015714
N	-0.5068	1.109348	0.744951
H	-0.317555	0.939479	1.729157
H	-1.532408	0.971339	0.59704
N	-0.48452	-1.315713	0.32203
H	-0.239374	-1.509643	1.289835
H	-1.512184	-1.139077	0.28784
C	0.106486	1.615371	-1.892087
N	0.338752	2.700864	-2.275459
C	-1.516594	-0.192487	-2.237776
H	-2.3776	0.312879	-1.814919
H	-1.394942	-0.005272	-3.310904
H	-1.665916	-1.26214	-2.081535
F	-2.852676	0.0	0.0
