17

C	0.0	0.0	0.0
C	-0.216863	-0.017092	-1.581551
Cl	1.804969	0.0	0.0
H	0.546847	-0.707701	-1.95586
N	-0.544503	1.198416	0.54509
H	-1.566144	1.041199	0.395491
H	-0.389336	1.153086	1.548807
N	-0.505016	-1.164771	0.666273
H	-0.230338	-2.006397	0.168435
H	-1.531259	-1.024621	0.5753
C	0.136575	1.291293	-2.142664
N	0.411338	2.296193	-2.686229
C	-1.542982	-0.498512	-2.180543
H	-1.710097	-1.538288	-1.887102
H	-2.390318	0.062078	-1.796804
H	-1.451404	-0.456072	-3.271658
F	-2.906971	0.0	0.0
