17

C	0.0	0.0	0.0
C	-0.478107	0.185381	-1.464294
Cl	1.796465	0.0	0.0
H	-1.575619	0.150829	-1.312728
N	-0.496532	1.129311	0.739434
H	-1.52168	0.995924	0.632175
H	-0.274743	0.940032	1.712901
N	-0.464125	-1.234743	0.585314
H	-1.489601	-1.113656	0.514195
H	-0.181716	-2.021327	0.007786
C	-0.084514	-0.956287	-2.282525
N	0.232555	-1.862781	-2.960659
C	-0.050028	1.49784	-2.117084
H	1.028191	1.523043	-2.289909
H	-0.56206	1.626432	-3.075245
H	-0.317737	2.31702	-1.450564
F	-2.834405	0.0	0.0
