16

C	-0.458718	-0.00385	-1.460197
C	0.0	0.0	0.0
Br	0.31245	1.620228	-2.401344
H	1.093749	0.0	0.0
H	0.014641	-0.825603	-1.998947
N	-1.873325	-0.063544	-1.612385
H	-2.293083	0.767885	-1.212267
H	-2.127069	-0.091038	-2.591833
C	-0.461338	-1.294593	0.661593
H	-1.551813	-1.340184	0.735798
H	-0.025656	-1.337951	1.660933
H	-0.117677	-2.165285	0.096637
N	-0.450393	1.132974	0.796324
H	-0.011513	1.981242	0.459562
H	-1.458195	1.240806	0.7541
Br	3.696477	0.0	0.0
