16

C	-0.520223	-0.009459	-1.427293
C	0.0	0.0	0.0
Br	0.240354	1.615211	-2.407899
H	1.098293	0.0	0.0
H	-0.082591	-0.824737	-2.002483
N	-1.933245	-0.029037	-1.461442
H	-2.29099	0.116213	-2.395546
H	-2.265256	0.701799	-0.840494
C	-0.461783	-1.267136	0.710628
H	0.008225	-1.316237	1.697455
H	-1.54807	-1.286031	0.818776
H	-0.144567	-2.153408	0.156144
N	-0.564111	1.175352	0.687702
H	-0.006287	1.978269	0.411644
H	-0.400871	1.05365	1.681566
Br	3.668817	0.0	0.0
