16

C	-0.395032	0.028811	-1.455339
C	0.0	0.0	0.0
Br	-2.550595	0.260589	-1.513152
H	1.097627	0.0	0.0
H	-0.13453	0.980953	-1.9078
N	0.004037	-1.050373	-2.21113
H	-0.240328	-1.950571	-1.829407
H	-0.209291	-0.982884	-3.193573
C	-0.446292	-1.257844	0.740053
H	-1.536739	-1.348024	0.749309
H	-0.083867	-1.200876	1.76895
H	-0.010469	-2.164488	0.308677
N	-0.40924	1.253003	0.624721
H	-1.348622	1.171622	0.996719
H	0.230307	1.449798	1.385237
Br	3.612292	0.0	0.0
