19
Coordinates from ORCA-job run
  C   -0.65631614420139      0.46781141280398      0.15985466511846
  C   0.86584486897778      0.27046003104486      0.25487625062436
  Cl  -0.96110746546399      2.23843344075493      0.34806069912937
  H   1.20286056083923      0.72826365183427      1.18666790298366
  C   -1.32001348183283     -0.22870799688102      1.34226608993019
  H   -0.85143916961130      0.05960887727892      2.28594717246958
  H   -2.37338588011879      0.05250610685159      1.38530110478500
  H   -1.26313517367838     -1.31370450302628      1.22993987321241
  C   -1.29062432779585      0.02648526696084     -1.14949691232458
  H   -1.12285847779862     -1.04071609081075     -1.31316013028761
  H   -2.36716995163480      0.19982994012592     -1.09630030358811
  H   -0.89091914246378      0.57476751999439     -1.99978732315116
  N   1.58501140610522      1.05417760911498     -0.80547990460980
  O   1.49373380895771      0.64827978422002     -1.96366151311219
  O   2.23549003831874      2.03022539610264     -0.44054921712779
  C   1.33046167135464     -1.17396044969887      0.15748489518325
  H   2.42128023150205     -1.20717026731444      0.20418775516948
  H   0.94446180684911     -1.75869278927895      0.99256737003019
  H   1.01882482169525     -1.62889694007705     -0.78171847443472
