19
Coordinates from ORCA-job run
  C   -0.71958018112355      0.18796620625236      0.29737559414505
  C   0.80442458547575      0.43111802845661      0.25349486267062
  Cl  -1.21865460042409      0.70153017611746      1.95958650373455
  H   0.98785490152234      1.45649356527529      0.57700759575761
  C   -1.12152514832728     -1.26639681171836      0.12413211572831
  H   -0.70724208164053     -1.89417557921374      0.91304289385044
  H   -2.20933851971372     -1.34807637472219      0.16432999947477
  H   -0.77311219823920     -1.63629777562638     -0.84200791606630
  C   -1.44457414259959      1.08846780166170     -0.69187439289003
  H   -1.13464370899228      2.12925375076734     -0.58254620220162
  H   -2.52104977949892      1.02561628469270     -0.52562244578382
  H   -1.23689403271372      0.76758124969159     -1.71604059130507
  N   1.23967148250954      0.42496571627776     -1.18562024443006
  O   1.46989107561232      1.51547141515156     -1.70598173338574
  O   1.31341867324308     -0.66359233930867     -1.75508407303790
  C   1.65507735380733     -0.55246074635368      1.03163370861184
  H   2.70091905841739     -0.23875612258808      1.00568388424244
  H   1.58568411910988     -1.55190406087296      0.60514018792116
  H   1.33067314357522     -0.57780438394030      2.07235025296377
