19
Coordinates from ORCA-job run
  C   -0.66003976992281     -0.21278048083526     -0.18004383018310
  C   0.77786857104941      0.20167844909083      0.18917253914473
  Cl  -0.64245259757746     -1.66567147961510     -1.24350907845225
  H   0.68259948745913      0.98626239270501      0.94426197974522
  C   -1.38927667249438      0.89630900532714     -0.92559707729459
  H   -1.36997297974840      1.81980422647436     -0.34068947161703
  H   -2.42672547607356      0.60160343678887     -1.09153048343175
  H   -0.93380654166906      1.09315629156692     -1.89647964663344
  C   -1.41344836526027     -0.58593782825655      1.09129825823517
  H   -2.43256005800997     -0.88173086722308      0.83715865323735
  H   -0.94312761734256     -1.41984023958639      1.61253125227759
  H   -1.46017938923747      0.27580466893324      1.76385934057836
  N   1.41148903587832      0.91276217963926     -0.97130717261521
  O   1.90912935855861      0.22554319191137     -1.85950922193120
  O   1.36061683951067      2.14309800847026     -0.96262620502345
  C   1.70574348573682     -0.89790014645364      0.66538994157517
  H   1.86807462514173     -1.63253947270102     -0.12002214182505
  H   2.66923529268347     -0.46736078165729      0.94697616194185
  H   1.28883277131776     -1.39526055457893      1.54166620227162
