19
Coordinates from ORCA-job run
  C   -0.71375657194304      0.21099237361145      0.29642103409157
  C   0.81582094342125      0.41404474875645      0.24504029260277
  Cl  -1.19475338372812      0.76284803537315      1.95144695303096
  H   1.02659604988917      1.43949548290843      0.55120822086548
  C   -1.15351422139904     -1.23496425883485      0.14662912008889
  H   -0.75194662519386     -1.86136150880853      0.94320047429953
  H   -2.24287834794902     -1.28803386547442      0.19240887690510
  H   -0.81895341418978     -1.62854624473727     -0.81502900514621
  C   -1.41795124295036      1.11457252309152     -0.70499511492953
  H   -1.22129523564258      0.77333459710377     -1.72474574512146
  H   -1.08105094075566      2.14856847060774     -0.61217684768939
  H   -2.49528894797566      1.08193928000744     -0.53562079488996
  N   1.24677674845068      0.37412813394994     -1.19504750441805
  O   1.50299397048916      1.45014815764159     -1.73304776506651
  O   1.29095370435561     -0.72465910586283     -1.74759116882710
  C   1.64324062605780     -0.57880181019030      1.03635631143217
  H   1.54854220624789     -1.58218975218657      0.62424647814475
  H   2.69642531932464     -0.29129383148343      1.00455638150587
  H   1.32003936349093     -0.58122142547327      2.07773980312113
