19
Coordinates from ORCA-job run
  C   -0.73585031822574      0.36297232727737      0.04895661150210
  C   0.78021619626967      0.43760256519765      0.29650343355327
  Cl  -1.33804906690197      2.06555915223982      0.01084207701819
  H   0.94080422149587      1.03564696604519      1.19539041204781
  C   -1.39858636907516     -0.31992826627009      1.23978146558025
  H   -2.48202760393532     -0.21795065330702      1.16069953569701
  H   -1.15845835145237     -1.38539831742341      1.25339171863289
  H   -1.08148711623262      0.13166859474177      2.18252501310149
  C   -1.15165269918111     -0.30323991202346     -1.25300446238192
  H   -0.76269766085536      0.22400140498641     -2.12139648583886
  H   -2.24179969989805     -0.31562264084965     -1.31049068294738
  H   -0.79484832536138     -1.33549880599466     -1.28386911021159
  N   1.47054042802105      1.22355097149743     -0.78068176228060
  O   1.91530265183471      2.32729028411576     -0.47571489514611
  O   1.56654952479656      0.69535904989175     -1.88809324364398
  C   1.47734662687778     -0.90909005533417      0.40598230857273
  H   1.34241918781625     -1.50097377714429     -0.49828437254975
  H   1.10476319485327     -1.46570070265507      1.26597079834785
  H   2.54851517915392     -0.75124818499132      0.55049164094659
