19
Coordinates from ORCA-job run
  C   -0.69560367258190      0.03690312178432     -0.43648362704035
  C   0.79706366512714      0.38853884434649     -0.31898248307996
  Cl  -1.11185544883062      0.12878743179737     -2.19172236696267
  H   0.95086650007573      1.35119510940305     -0.80996084328623
  C   -1.51389087961344      1.10862869603326      0.27446619154663
  H   -2.57175461362683      0.96971645916854      0.04622844358535
  H   -1.38776795862641      1.03222365065883      1.35674964886085
  H   -1.22337174026848      2.11008453900531     -0.05100470708598
  C   -1.07965637600058     -1.34889681735834      0.05744870700571
  H   -0.57391149339831     -2.13345407716640     -0.50116896447640
  H   -0.83099033439495     -1.45935542122233      1.11562277793283
  H   -2.15776189828984     -1.47768711225252     -0.05653505474981
  N   1.64482198509506     -0.55768716747591     -1.11924595419094
  O   1.76790711436141     -1.70390016590984     -0.68853850614920
  O   2.17882863655352     -0.11551214003230     -2.13332637507144
  C   1.33978020137779      0.40822514561946      1.10109166840827
  H   2.40719895333222      0.63895616010633      1.07729930292576
  H   0.84611928855471      1.18116845314751      1.69021343767345
  H   1.21397807115375     -0.55793470965282      1.58784870415413
