13

C	-0.101397	-0.054832	-1.539158
C	0.0	0.0	0.0
Cl	-0.085317	1.794985	-2.096583
H	1.094398	0.0	0.0
H	-0.444123	0.900472	0.415814
N	0.988334	-0.777288	-1.99385
H	1.842831	-0.546348	-1.428159
H	1.105614	-0.786256	-2.996884
C	-1.376849	-0.515846	-2.096893
N	-2.396881	-0.909149	-2.528977
C	-0.52872	-1.198753	0.621202
N	-0.961083	-2.155823	1.149464
F	2.636628	0.0	0.0
