13

C	-0.100976	-0.070191	-1.537887
C	0.0	0.0	0.0
Cl	-0.045714	1.766346	-2.112242
H	1.094366	0.0	0.0
H	-0.441396	0.905142	0.408383
N	0.976418	-0.820408	-1.98452
H	1.835533	-0.585989	-1.426219
H	1.093837	-0.834788	-2.987863
C	-1.389456	-0.511129	-2.081893
N	-2.436488	-0.86521	-2.483928
C	-0.531819	-1.190267	0.633503
N	-0.970642	-2.139703	1.169928
F	2.637999	0.0	0.0
