13

C	-0.132468	-0.058236	-1.542253
C	0.0	0.0	0.0
Cl	-0.037695	1.632794	-2.191814
H	1.093927	0.0	0.0
H	-0.321331	-0.970891	0.393712
N	0.96435	-0.812967	-2.102418
H	0.761583	-1.80174	-1.990305
H	1.79272	-0.582979	-1.50941
C	-1.417823	-0.605976	-1.994144
N	-2.44693	-1.084312	-2.298458
C	-0.68333	1.068034	0.687788
N	-1.248509	1.915023	1.274944
F	2.615255	0.0	0.0
