13

C	-0.501854	0.001063	-1.445795
C	0.0	0.0	0.0
Cl	0.041953	-1.547582	-2.186369
H	1.092977	0.0	0.0
H	-0.342537	-0.92179	0.482547
N	-1.940518	0.090051	-1.665225
H	-2.254085	0.97134	-1.267408
H	-2.372517	-0.656046	-1.127857
C	0.129331	1.097361	-2.198103
N	0.612027	1.971035	-2.815647
C	-0.556288	1.143946	0.692838
N	-1.029425	2.084082	1.220014
F	2.516925	0.0	0.0
