13

C	-0.40185	-0.034452	-1.452724
C	0.0	0.0	0.0
Cl	-2.267304	-0.508177	-1.578697
H	1.093621	0.0	0.0
H	-0.329155	-0.914438	0.49658
N	-0.14729	1.172509	-2.120633
H	-0.484476	1.967975	-1.594389
H	-0.506983	1.175719	-3.063251
C	0.252535	-1.144952	-2.152813
N	0.736387	-2.034224	-2.747227
C	-0.554478	1.159602	0.658744
N	-0.995398	2.130348	1.155383
F	2.499592	0.0	0.0
