13

C	-0.41715	-0.057272	-1.448951
C	0.0	0.0	0.0
Cl	-2.249949	-0.672062	-1.549823
H	1.093674	0.0	0.0
H	-0.318881	-0.911556	0.50872
N	-0.267468	1.165876	-2.115282
H	-0.694633	1.927235	-1.604746
H	-0.593284	1.133483	-3.070605
C	0.303656	-1.113653	-2.16736
N	0.83054	-1.957454	-2.790054
C	-0.566768	1.158261	0.650342
N	-1.036417	2.11686	1.145744
F	2.497395	0.0	0.0
