16

C	-0.610123	-0.032684	-1.393646
C	0.0	0.0	0.0
Cl	0.058979	-1.418807	-2.291949
H	1.089236	0.0	0.0
C	-2.063472	-0.160943	-1.344823
N	-3.22035	-0.342393	-1.232751
N	-0.24477	1.191955	-2.240338
O	0.889277	1.618054	-2.102479
O	-1.091097	1.581471	-3.036303
N	-0.257086	-1.218662	0.705231
H	0.602608	-1.465452	1.188181
H	-0.999675	-1.100195	1.382586
N	-0.463383	1.1739	0.69786
O	-0.959966	2.111842	0.037333
O	-0.252944	1.218521	1.922301
H	2.380198	0.0	0.0
