16

C	-0.426577	-0.025407	-1.470183
C	0.0	0.0	0.0
Cl	0.244051	1.312732	-2.390523
H	1.09038	0.0	0.0
C	-0.018236	-1.291987	-2.072172
N	0.284059	-2.306318	-2.583574
N	-1.971876	0.023401	-1.555929
O	-2.51398	1.088291	-1.797638
O	-2.532478	-1.035638	-1.279962
N	-0.376967	-1.122537	0.771065
H	0.421406	-1.74256	0.849645
H	-1.215516	-1.601255	0.479297
N	-0.563212	1.258066	0.596986
O	-1.698073	1.185643	1.077541
O	0.134739	2.271455	0.574165
H	2.574173	0.0	0.0
