16

C	-0.556284	0.050237	-1.406225
C	0.0	0.0	0.0
Cl	-2.331509	0.312556	-1.44559
H	1.109766	0.0	0.0
C	0.071934	1.01588	-2.303329
N	0.53206	1.738334	-3.108469
N	-0.257096	-1.34603	-2.00889
O	0.918541	-1.507847	-2.304871
O	-1.161246	-2.155061	-2.103255
N	-0.323397	-1.209481	0.667483
H	-1.115362	-1.091192	1.285329
H	0.489151	-1.469276	1.221555
N	-0.333391	1.212498	0.711233
O	-0.45508	1.141333	1.946645
O	-0.330937	2.275684	0.066694
H	2.369	0.0	0.0
