16

C	-0.559951	0.000477	-1.409074
C	0.0	0.0	0.0
Cl	-2.329729	0.262995	-1.445725
H	1.09161	0.0	0.0
C	0.067175	0.93198	-2.340914
N	0.516395	1.632879	-3.170744
N	-0.263257	-1.418235	-1.96284
O	0.911614	-1.59009	-2.255906
O	-1.169281	-2.22822	-2.028943
N	-0.339046	-1.181998	0.707786
H	-1.138213	-1.036907	1.309923
H	0.466358	-1.425836	1.280028
N	-0.338542	1.243591	0.667513
O	-0.320561	2.281162	-0.014058
O	-0.477656	1.215189	1.901088
H	2.401701	0.0	0.0
