16

C	-0.545034	0.069881	-1.408995
C	0.0	0.0	0.0
Cl	-2.323695	0.261469	-1.425478
H	1.092146	0.0	0.0
C	0.053433	1.085153	-2.273936
N	0.528506	1.797002	-3.079521
N	-0.212845	-1.268047	-2.131791
O	-0.911727	-1.563849	-3.090538
O	0.773716	-1.860951	-1.728413
N	-0.416605	-1.192264	0.666276
H	0.426459	-1.61247	1.051451
H	-1.025042	-0.947649	1.437103
N	-0.334323	1.216268	0.708493
O	-0.326224	2.279251	0.06431
O	-0.471331	1.151294	1.942578
H	2.402655	0.0	0.0
