16

C	-0.636152	0.075823	-1.377178
C	0.0	0.0	0.0
Cl	-0.013297	-1.260781	-2.378973
H	1.109833	0.0	0.0
C	-2.089805	-0.024101	-1.309349
N	-3.251225	-0.162065	-1.18899
N	-0.257448	1.34954	-2.143236
O	-1.142901	1.893248	-2.788792
O	0.918644	1.666569	-2.090384
N	-0.25162	-1.280252	0.610266
H	-0.710508	-1.120467	1.498933
H	0.666208	-1.675958	0.821282
N	-0.44802	1.093929	0.793977
O	-0.888479	2.112363	0.211754
O	-0.27284	1.017589	2.027866
H	2.322282	0.0	0.0
