16

C	-0.461995	-0.009757	-1.433819
C	0.0	0.0	0.0
Cl	0.456565	1.08187	-2.481408
H	1.108599	0.0	0.0
C	-0.342457	-1.357495	-1.991347
N	-0.266109	-2.397298	-2.533822
N	-1.988652	0.321677	-1.555826
O	-2.395353	0.872427	-2.56409
O	-2.666579	-0.08984	-0.623105
N	-0.266136	-1.214475	0.69266
H	-1.112336	-1.151326	1.242688
H	0.529943	-1.40431	1.296411
N	-0.429031	1.199099	0.680365
O	-0.314084	1.207591	1.916738
O	-0.788031	2.180248	0.003785
H	2.375806	0.0	0.0
