16

C	-0.495682	0.128597	-1.41829
C	0.0	0.0	0.0
Cl	-2.290595	0.091033	-1.518317
H	1.10812	0.0	0.0
C	-0.01191	1.282173	-2.17411
N	0.369218	2.12347	-2.90212
N	0.012629	-1.089815	-2.246713
O	0.830644	-1.828526	-1.722933
O	-0.41201	-1.161088	-3.393023
N	-0.405469	-1.235466	0.596992
H	0.446862	-1.69528	0.910478
H	-0.960497	-1.024652	1.417739
N	-0.36865	1.160082	0.771933
O	-0.401	2.264003	0.198969
O	-0.499975	1.015643	2.002133
H	2.375851	0.0	0.0
