16

C	-0.50227	0.006042	-1.426334
C	0.0	0.0	0.0
Cl	-0.251136	1.470275	-2.39591
H	1.100797	0.0	0.0
C	0.121985	-1.108803	-2.139972
N	0.628496	-1.967907	-2.76018
N	-2.032607	-0.247951	-1.448057
O	-2.670777	0.274379	-0.543694
O	-2.487996	-0.91157	-2.370914
N	-0.383956	-1.263563	0.552998
H	-1.138256	-1.134681	1.214299
H	0.426229	-1.633086	1.045647
N	-0.393061	1.153872	0.812063
O	-0.138568	2.278217	0.371093
O	-0.832138	0.935634	1.950845
H	2.458888	0.0	0.0
