16

C	-0.359671	-0.08828	-1.476716
C	0.0	0.0	0.0
Cl	0.08308	1.596172	-2.183383
H	1.092068	0.0	0.0
H	-0.420996	0.913888	0.444589
C	0.563889	-1.078721	-2.152541
H	0.285748	-2.072642	-1.798454
H	1.577273	-0.848763	-1.807437
H	0.488555	-1.032718	-3.243483
N	-1.742491	-0.349516	-1.726299
H	-1.916141	-0.371593	-2.725081
H	-2.300499	0.399041	-1.330505
N	-0.397118	-1.243193	0.66869
H	0.307112	-1.440355	1.366864
H	-1.299327	-1.163017	1.118075
F	2.736869	0.0	0.0
