16

C	-0.386105	-0.080744	-1.463842
C	0.0	0.0	0.0
Cl	0.079699	1.587637	-2.23035
H	1.096553	0.0	0.0
H	-0.359976	-0.940206	0.439279
C	0.521499	-1.080256	-2.149023
H	1.542359	-0.863445	-1.814852
H	0.236398	-2.081716	-1.811327
H	0.437296	-1.03446	-3.238427
N	-1.778528	-0.308257	-1.636119
H	-2.058623	-0.152568	-2.596761
H	-2.262837	0.350501	-1.033655
N	-0.694802	1.111956	0.674316
H	-0.599777	0.958851	1.672245
H	-0.150842	1.945409	0.474695
F	2.764105	0.0	0.0
