16

C	-0.387668	-0.052869	-1.463761
C	0.0	0.0	0.0
Cl	0.069118	1.631502	-2.197305
H	1.096979	0.0	0.0
H	-0.35862	-0.949059	0.421285
C	0.524314	-1.03179	-2.17092
H	1.544253	-0.814191	-1.836004
H	0.435685	-0.965696	-3.257951
H	0.248175	-2.042549	-1.85197
N	-1.778013	-0.281445	-1.638552
H	-2.059745	-0.109008	-2.59548
H	-2.262831	0.365058	-1.024366
N	-0.694657	1.097379	0.698791
H	-0.150555	1.934261	0.515932
H	-0.597051	0.922771	1.693018
F	2.761176	0.0	0.0
