16

C	-0.070848	-0.023408	-1.518303
C	0.0	0.0	0.0
Cl	-1.806837	-0.178174	-2.116142
H	1.09587	0.0	0.0
H	-0.428611	0.922445	0.415496
C	0.530878	1.25581	-2.060318
H	1.536288	1.304178	-1.626384
H	0.584248	1.213603	-3.149668
H	-0.048258	2.130104	-1.752375
N	0.688391	-1.149459	-2.032154
H	1.617919	-0.980135	-1.61964
H	0.331341	-1.956864	-1.523669
N	-0.49583	-1.236835	0.59252
H	0.061729	-1.443827	1.410977
H	-1.462064	-1.138378	0.877481
F	2.742332	0.0	0.0
