16

C	-0.295283	0.051632	-1.472491
C	0.0	0.0	0.0
Cl	-2.232312	0.746989	-1.651091
H	1.094299	0.0	0.0
H	-0.347464	0.927564	0.465745
C	0.539943	1.099167	-2.158722
H	1.566529	0.866276	-1.844467
H	0.425303	1.065866	-3.24506
H	0.276464	2.094213	-1.802959
N	-0.236443	-1.193763	-2.048716
H	-0.552081	-1.23814	-3.003875
H	-0.639372	-1.887956	-1.431616
N	-0.538573	-1.212062	0.614041
H	0.151861	-1.565781	1.265066
H	-1.390395	-1.009023	1.119065
F	2.703642	0.0	0.0
