16

C	-0.242767	0.00529	-1.509345
C	0.0	0.0	0.0
Cl	-0.045009	-1.720997	-2.110699
H	1.101685	0.0	0.0
H	-0.344367	0.984622	0.350898
C	-1.628932	0.439352	-1.935681
H	-1.787895	1.480644	-1.630873
H	-2.36848	-0.185677	-1.431669
H	-1.749526	0.361967	-3.01809
N	0.80781	0.773248	-2.146662
H	0.596537	1.75366	-1.983347
H	1.669676	0.565698	-1.610965
N	-0.725219	-1.035796	0.747853
H	-0.253959	-1.911687	0.546412
H	-0.546517	-0.856251	1.730722
F	2.76249	0.0	0.0
