18

C	0.0	0.0	0.0
C	-0.648666	-0.225522	-1.36329
Br	1.95785	0.0	0.0
H	-1.748665	-0.146788	-1.0778
N	-0.364615	1.385384	0.530379
O	-0.66394	1.487475	1.711236
O	-0.263965	2.319222	-0.259477
C	-0.491884	-1.052956	0.964871
H	-0.183422	-2.029402	0.595971
H	-1.58583	-0.939764	0.94131
H	-0.082016	-0.873908	1.957017
N	-0.27212	-1.511275	-1.871447
H	-0.948912	-1.807879	-2.562058
H	0.646819	-1.457693	-2.297987
N	-0.334695	0.838772	-2.399665
O	-1.245077	1.580142	-2.75723
O	0.795335	0.82858	-2.897444
F	-2.880752	0.0	0.0
