17

C	0.0	0.0	0.0
C	-0.484039	-0.045689	-1.443316
Br	1.983096	0.0	0.0
H	-1.580373	0.025587	-1.337796
H	-0.126133	0.862141	-1.938596
N	-0.500296	1.223223	0.570722
H	-0.320548	1.208784	1.571572
H	-1.52892	1.123417	0.458732
C	-0.426566	-1.234575	0.78192
H	-0.114317	-1.141613	1.826936
H	-1.524931	-1.241602	0.726516
H	-0.007907	-2.159424	0.378321
C	-0.126232	-1.288364	-2.245762
H	0.951857	-1.469664	-2.266662
H	-0.469421	-1.171176	-3.27851
H	-0.620912	-2.174275	-1.841024
H	-3.204444	0.0	0.0
