16

C	0.0	0.0	0.0
C	-0.509472	0.320682	-1.455313
Br	1.95899	0.0	0.0
H	-1.284258	1.061346	-1.285233
N	-0.386833	1.11284	0.964569
O	-0.510057	0.810837	2.142631
O	-0.442769	2.242988	0.501606
C	-0.422856	-1.278714	0.550642
N	-0.571204	-2.35255	1.005767
N	-1.058154	-0.922963	-1.985532
H	-1.895547	-1.015126	-1.391596
H	-1.380377	-0.715147	-2.927105
N	0.508759	0.903361	-2.303634
H	0.046299	1.460874	-3.00986
H	1.028075	0.162006	-2.762658
F	-2.46225	0.0	0.0
