16

C	0.0	0.0	0.0
C	-0.506415	0.391069	-1.438481
Br	1.954742	0.0	0.0
H	-1.280781	1.123993	-1.234743
N	-0.390626	1.062315	1.019297
O	-0.497095	0.700708	2.182257
O	-0.46824	2.212907	0.614463
C	-0.423252	-1.305158	0.487667
N	-0.563918	-2.399721	0.893886
N	-1.053117	-0.824238	-2.033725
H	-1.389309	-0.561472	-2.955986
H	-1.883347	-0.966632	-1.439903
N	0.515612	1.005416	-2.260152
H	0.053758	1.570207	-2.960297
H	1.03839	0.272103	-2.730035
F	-2.449724	0.0	0.0
