16

C	0.0	0.0	0.0
C	-0.472893	0.072755	-1.509578
Br	1.935503	0.0	0.0
H	0.438008	0.123583	-2.112229
N	-0.359332	1.208692	0.883667
O	-0.055655	2.310255	0.453684
O	-0.834813	0.968298	1.984663
C	-0.418285	-1.209497	0.702123
N	-0.566575	-2.210628	1.300197
N	-1.236726	1.27677	-1.768238
H	-1.489677	1.249703	-2.751068
H	-2.081586	1.120183	-1.198384
N	-1.105961	-1.211886	-1.78049
H	-1.987949	-1.13341	-1.253105
H	-1.308711	-1.247384	-2.775232
F	-2.585153	0.0	0.0
