16

C	-0.588645	-0.068457	-1.40884
C	0.0	0.0	0.0
Br	0.288479	-1.360429	-2.532983
H	1.093608	0.0	0.0
H	-1.638807	-0.346438	-1.357935
N	-0.575343	1.280026	-2.069958
O	-1.655562	1.875486	-2.058925
O	0.479473	1.726	-2.494735
N	-0.441364	-1.233527	0.665479
H	0.373732	-1.69164	1.051242
H	-1.070375	-1.015151	1.428123
C	-0.465906	1.253388	0.731148
H	-1.558842	1.304161	0.799309
H	-0.043778	1.232015	1.738875
H	-0.102343	2.16249	0.247714
Br	3.570994	0.0	0.0
