16

C	-0.370531	-0.079733	-1.460793
C	0.0	0.0	0.0
Br	-2.290784	-0.196614	-1.803859
H	1.098165	0.0	0.0
H	-0.014433	0.796363	-1.997221
N	0.255417	-1.241441	-2.188017
O	0.260378	-2.336575	-1.636733
O	0.685245	-1.006125	-3.312288
N	-0.578868	-1.076308	0.802585
H	-0.232543	-0.943204	1.746862
H	-0.186499	-1.952334	0.480075
C	-0.446013	1.340415	0.566308
H	-0.029489	1.452806	1.570838
H	-0.063971	2.169215	-0.034645
H	-1.535623	1.395178	0.627134
Br	3.543765	0.0	0.0
