16

C	-0.535936	-0.036808	-1.434972
C	0.0	0.0	0.0
Br	0.223378	-1.464981	-2.493081
H	1.094096	0.0	0.0
H	-1.617638	-0.178664	-1.444523
N	-0.330686	1.27748	-2.138684
O	0.78989	1.575047	-2.524713
O	-1.336319	1.991164	-2.206284
N	-0.415679	-1.187096	0.737825
H	-1.370658	-1.448438	0.514336
H	0.194412	-1.958666	0.496319
C	-0.494259	1.254971	0.709126
H	-0.083643	2.161147	0.260209
H	-0.14773	1.197087	1.74096
H	-1.588312	1.323976	0.705881
Br	3.593229	0.0	0.0
