16

C	-0.376362	-0.004483	-1.468627
C	0.0	0.0	0.0
Br	-2.307526	-0.201356	-1.79959
H	1.098048	0.0	0.0
H	-0.071436	0.911527	-1.966742
N	0.360224	-1.094297	-2.203517
O	1.362345	-0.705647	-2.790004
O	-0.033972	-2.247375	-2.122555
N	-0.453768	-1.21968	0.655801
H	-1.209953	-1.026788	1.299074
H	0.326293	-1.617055	1.163466
C	-0.483499	1.280256	0.662443
H	-0.090084	2.164929	0.155157
H	-1.578277	1.334258	0.671943
H	-0.118257	1.297013	1.691647
Br	3.288855	0.0	0.0
