15

C	0.0	0.0	0.0
C	-0.474646	0.088125	-1.452979
F	1.388909	0.0	0.0
H	-1.566028	0.104652	-1.404086
H	-0.357948	-0.90812	0.488484
C	-0.396412	1.184728	0.780955
N	-0.557721	2.179044	1.384277
C	-0.010565	-1.142282	-2.218755
H	-0.385946	-1.082805	-3.241258
H	1.081482	-1.199103	-2.253738
H	-0.396207	-2.055252	-1.756138
N	-0.01248	1.301764	-2.121602
H	-0.547268	2.091305	-1.778186
H	0.962346	1.464768	-1.891826
Br	-3.664171	0.0	0.0
