15

C	0.0	0.0	0.0
C	-0.46155	0.018388	-1.486077
F	1.388628	0.0	0.0
H	0.395941	-0.445699	-1.991812
H	-0.332541	-0.924683	0.479992
C	-0.433647	1.144166	0.812384
N	-0.681734	2.083956	1.470507
C	-0.622361	1.440282	-2.002281
H	-0.782492	1.40976	-3.080291
H	-1.493677	1.908955	-1.53769
H	0.263334	2.04556	-1.78659
N	-1.636768	-0.755101	-1.807816
H	-2.474933	-0.386703	-1.34816
H	-1.532096	-1.708032	-1.477381
Br	-4.371019	0.0	0.0
