16

C	-0.19595	-0.051616	-1.50421
C	0.0	0.0	0.0
Br	-2.099476	-0.305787	-2.067443
H	1.099286	0.0	0.0
H	0.049738	0.929838	-1.914099
C	0.692349	-1.10807	-2.136284
H	0.73048	-0.993795	-3.22189
H	0.340334	-2.116753	-1.909267
H	1.680921	-0.947437	-1.682417
C	-0.448689	-1.241577	0.762806
H	0.112274	-2.106354	0.404194
H	-1.520613	-1.435082	0.659888
H	-0.210506	-1.120681	1.821992
C	-0.548291	1.21232	0.574603
N	-0.991982	2.18886	1.059039
F	2.609337	0.0	0.0
