16

C	-0.198472	-0.042845	-1.50469
C	0.0	0.0	0.0
Br	-2.10176	-0.311499	-2.063687
H	1.099272	0.0	0.0
H	0.036755	0.942516	-1.91001
C	0.698203	-1.08728	-2.144108
H	0.733634	-0.966049	-3.228634
H	1.685041	-0.921498	-1.689353
H	0.355467	-2.099763	-1.921918
C	-0.445021	-1.246978	0.756776
H	0.116504	-2.108832	0.390808
H	-0.205038	-1.130945	1.816243
H	-1.517181	-1.441487	0.654454
C	-0.549613	1.208058	0.582656
N	-0.995507	2.180614	1.072281
F	2.611425	0.0	0.0
