16

C	-0.320202	0.094138	-1.504314
C	0.0	0.0	0.0
Br	-0.080256	-1.663595	-2.378023
H	1.096924	0.0	0.0
H	-1.371962	0.325447	-1.703526
C	0.64634	1.079877	-2.144024
H	1.646151	0.824786	-1.774451
H	0.398621	2.08827	-1.795044
H	0.595245	1.06261	-3.234597
C	-0.560173	-1.202914	0.751427
H	-0.396829	-1.07147	1.823209
H	-1.632239	-1.348242	0.576641
H	-0.025991	-2.099173	0.438807
C	-0.486732	1.236833	0.593472
N	-0.90923	2.225158	1.073317
F	2.625548	0.0	0.0
