14
Coordinates from ORCA-job run
  C   -0.63955316588446      0.61495287468469      0.46090444197721
  C   0.47108459680442     -0.33320154675882      0.05383456542900
  F   -0.81021751986965      1.55647466403292     -0.49848324207487
  H   0.60398349773684     -1.08534350993697      0.83208361053572
  H   -0.46606400877657      1.08695847768424      1.42636661086247
  N   -1.90062918916227     -0.20344741326076      0.58690380783236
  O   -1.86757123764377     -1.02481951877156      1.49638386130526
  O   -2.81095664683847      0.00946472905488     -0.19597129551928
  N   1.76727555691367      0.50966462228500      0.11735288205206
  O   2.43189386249190      0.60478175245671     -0.90647183685667
  O   2.02710348629024      1.00436541912323      1.20957700047051
  N   0.19504361448323     -0.91299867733559     -1.19644974990969
  H   0.87766700651761     -1.60909864251092     -1.45825015884579
  H   0.12194014693731     -0.21775323074705     -1.92678049725830
