14
Coordinates from ORCA-job run
  C   -0.60315701371505      0.58676127837212      0.46425034375751
  C   0.58725983225150     -0.26418282221446      0.03162838252842
  F   -0.86526354867397      1.51659428534710     -0.48387811517517
  H   0.79948023020910     -0.99573378663157      0.81082231563541
  H   -0.47319759636713      1.05942374009110      1.43704044077837
  N   -1.77921820803922     -0.34849058988725      0.57542805760020
  O   -2.66451783003773     -0.27179898863310     -0.26349691456197
  O   -1.69924991948658     -1.14402702345216      1.50633985945728
  N   1.76796676037960      0.70954352905173      0.06770164535597
  O   2.06674096315416      1.10653974043171      1.19170014967139
  O   2.28330387247925      1.03875604885044     -0.98861558838978
  N   0.47380803988253     -0.87496624370708     -1.23361168354457
  H   0.00042834910177     -0.30856057815112     -1.92169416767017
  H   0.10561606886178     -1.81185858946746     -1.19561472544289
