14
Coordinates from ORCA-job run
  C   -0.70338754715259      0.65517704112027      0.27521027489276
  C   0.48847157597253     -0.27279237418226      0.14810297568557
  F   -0.88761045803880      1.32344666286774     -0.88910043294937
  H   0.62980794341990     -0.80610019132597      1.08869924048721
  H   -0.61211342863944      1.35674081866303      1.10254237071774
  N   -1.91100352138257     -0.20529861238416      0.55315010944504
  O   -1.86884384102770     -0.78079646236864      1.63477460942877
  O   -2.79281391939320     -0.25623480579186     -0.28748301939928
  N   1.72092331228756      0.65855960597962      0.05353719565730
  O   1.88644725247462      1.42034588700945      1.00086047923217
  O   2.43419269340804      0.55501794285033     -0.93617297107358
  N   0.31900094127257     -1.15261327249447     -0.93459128082471
  H   1.05854701655976     -1.83686024268780     -0.99619226312976
  H   0.23738198023931     -0.65959199725528     -1.81333728816985
