14
Coordinates from ORCA-job run
  C   -0.69730605916468      0.58565256352113      0.30552812451373
  C   0.61876632622195     -0.16094986121826      0.10312872898942
  F   -1.04388114143703      1.21654534025906     -0.84041347549976
  H   0.89726158519565     -0.64362974208994      1.03943564953397
  H   -0.67757870938716      1.28873264275077      1.13773424133299
  N   -1.73576092409710     -0.45738847826886      0.62749619640660
  O   -2.58939218239477     -0.70613920192125     -0.21087192525608
  O   -1.58346060801675     -0.99422906734232      1.72047223698385
  N   1.64458216329565      0.95304822402395     -0.09592488572965
  O   1.86072143348267      1.63548697457046      0.90288398269654
  O   2.12450827063642      1.10631407680801     -1.20824035607655
  N   0.65050064900601     -1.07102873103329     -0.97514735485847
  H   0.15352749401521     -0.74836046428453     -1.79246857293725
  H   0.37651170264393     -2.00505427577490     -0.71361259009929
