14
Coordinates from ORCA-job run
  C   -0.64232055735946      0.04140945293105      0.88704811990821
  C   0.70573701902067     -0.32464199620829      0.20256277390145
  F   -0.58238296859398      1.23643800793299      1.51597893209592
  H   1.29314391421666     -0.90689597157935      0.91240625679349
  H   -0.95670521267623     -0.72912679619413      1.59045885529117
  N   -1.71374108073159      0.10308576979206     -0.16356942153872
  O   -2.34151704582919     -0.93879554546871     -0.33383670307230
  O   -1.82106471276624      1.14702960950132     -0.79412187715585
  N   1.46940414475626      0.96561836474530      0.01736855237209
  O   2.19284511711736      1.31222395041400      0.94320100962562
  O   1.27946999310747      1.56158432071150     -1.03619746248507
  N   0.65736391966778     -1.00083649205819     -1.04785917847574
  H   0.35405939075898     -1.95946302430368     -0.95691014403217
  H   0.10570807931151     -0.50762965021590     -1.73652971322811
