14
Coordinates from ORCA-job run
  C   -0.57419675061411     -0.14799322515505      0.89384876974093
  C   0.74842645903538     -0.28197860368615      0.13292068536033
  F   -0.41039298986788      0.70149238131462      1.93286544799107
  H   1.49848199609362     -0.58500211377293      0.86462098714280
  H   -0.90848343115645     -1.12359473016339      1.25152984920504
  N   -1.69755771617439      0.36587891904880      0.02141511731206
  O   -2.16991374901982      1.46123539721413      0.26808681447204
  O   -2.04205219400699     -0.41375339298423     -0.86361099412765
  N   1.16299820306378      1.11383590377254     -0.28488309493116
  O   2.17460662123606      1.58412395596724      0.22214670503093
  O   0.44439764629318      1.64336956067095     -1.12721987344129
  N   0.78183272857609     -1.12535694000146     -1.00822093968324
  H   -0.09091925202836     -1.13221677220567     -1.51635319405156
  H   1.08377242856986     -2.06104034001946     -0.78614628002031
