14
Coordinates from ORCA-job run
  C   -0.91691682251070     -0.29555752450150     -0.03633835610680
  C   0.59283919056129     -0.26138887924127      0.20114704757470
  F   -1.40521898367045     -1.42372390970229      0.53914668813771
  H   0.77589371912738     -0.17233817706995      1.27250556784420
  H   -1.18695357880793     -0.25731178127360     -1.09176284802167
  N   -1.54719752390601      0.89599912249385      0.62898250553396
  O   -1.67655264194150      0.83868749044211      1.84559601524392
  O   -1.81550533936321      1.83985434374223     -0.10963116834223
  N   1.09615978513162      1.00244450530308     -0.43663087375743
  O   1.38918314504739      1.93704421150725      0.30135886981252
  O   1.13986224862987      0.98912892134999     -1.66406741587584
  N   1.31583202083658     -1.36323830652324     -0.34381552688278
  H   1.07263060540754     -1.53052801235001     -1.31144477364682
  H   1.16494417545812     -2.19807200417668      0.20495426848657
