14
Coordinates from ORCA-job run
  C   -0.93429630253568     -0.27015678386737      0.20096116633849
  C   0.56790797493618     -0.20930729408957      0.01809712192152
  F   -1.20772993442627     -1.34093668655196      1.00916895383297
  H   1.03959480793434      0.07834160005004      0.96488384002308
  H   -1.47844166975900     -0.36261378094948     -0.73575030169967
  N   -1.46749053761943      0.93883985021157      0.91591032044904
  O   -2.57452974017727      1.33164324102061      0.56689408739460
  O   -0.77758931611852      1.39015818330743      1.82633185377649
  N   0.91232317616425      0.89548926829778     -0.94159997709458
  O   2.07736788329801      0.92675775052435     -1.31785223871130
  O   0.02309740232626      1.68305110495111     -1.25478417396493
  N   1.01164441981537     -1.44238641278849     -0.57886572727690
  H   0.79362445597276     -2.21237763598618      0.04081136105838
  H   2.01451738018904     -1.40650240412982     -0.71420628604720
