14
Coordinates from ORCA-job run
  C   -0.73270109654255      0.60129754359884      0.15601025865249
  C   0.60445355833557     -0.13367761738091      0.18546574714617
  F   -0.95861292664006      1.08468012849533     -1.08783299575220
  H   0.78434436430623     -0.49837531598501      1.19631365460103
  H   -0.81075688425587      1.39797422538972      0.89510430006316
  N   -1.78976332404441     -0.41996206862886      0.48716456662019
  O   -1.75168196306135     -0.82157129435316      1.64612247853818
  O   -2.54546603581103     -0.78384465335569     -0.40159441269539
  N   1.63648571772783      0.97424726401527     -0.02920688907595
  O   1.72596777192138      1.77622540429285      0.89760123582570
  O   2.24409196975782      1.00419731366162     -1.08768765058613
  N   0.76053512673451     -1.15999876937608     -0.76900632116531
  H   0.49380949484595     -2.06891847812066     -0.42566271499758
  H   0.33929422672597     -0.95427368225324     -1.66279125717435
