14
Coordinates from ORCA-job run
  C   -0.58436346692176     -0.13006473533882      0.89028267026281
  C   0.74340646624338     -0.29117733858151      0.14343125452769
  F   -0.41927698821364      0.72859560876332      1.92159223206211
  H   1.48286819765285     -0.59392940372916      0.88593449619269
  H   -0.93650518614737     -1.09675586957628      1.25468735853307
  N   -1.68969660710898      0.39103657835299     -0.00038359245526
  O   -2.14023335744460      1.50081857685012      0.22174600333506
  O   -2.04252788061508     -0.39693662866156     -0.87481314258072
  N   1.17895613581212      1.09411338014259     -0.28814072279292
  O   0.48572396852346      1.61398459702074     -1.15719573701820
  O   2.17959929921906      1.56693150759343      0.23817183313955
  N   0.77501515678264     -1.15042150283119     -0.98557015108138
  H   1.06014187765497     -2.08767763801136     -0.74846728893158
  H   -0.09210761543708     -1.15051713199333     -1.50327521319291
