14
Coordinates from ORCA-job run
  C   -0.91923445591699     -0.32350369492129      0.18430995980600
  C   0.58175782613749     -0.14191076240368      0.09735223010537
  F   -1.16767909518489     -1.25009092159241      1.16138566028999
  H   0.94210367860364      0.36248822485094      1.00135759863926
  H   -1.36893394886235     -0.64219391986491     -0.75283472790928
  N   -1.61802985769000      0.93467031533818      0.61527061881604
  O   -2.72582892201374      1.13230822473579      0.12999203864659
  O   -1.04862302613358      1.62230852817045      1.45864308863153
  N   0.90810247566427      0.79860940505617     -1.02958401122611
  O   -0.01815611035313      1.41015769096195     -1.55603473869630
  O   2.09510250648429      0.88691274349894     -1.31770184215813
  N   1.18428386790418     -1.40958765565413     -0.22218388359351
  H   2.18951261166347     -1.30102640338524     -0.27420387583058
  H   0.96462244969732     -2.07914177479077      0.50423188447913
