14
Coordinates from ORCA-job run
  C   -0.64626153333999     -0.10863530377119      0.84994257300060
  C   0.71486912986761     -0.33733321969027      0.18513620755631
  F   -0.49837602053230      0.72166838125722      1.90650850203218
  H   1.38677347424246     -0.69477750803218      0.96650897126084
  H   -1.07791810793124     -1.05820418639474      1.17133083841991
  N   -1.65795377318375      0.49276132833526     -0.09961881828204
  O   -2.05111092830570      1.62614729216225      0.11265058219789
  O   -2.00179091425236     -0.25906457001724     -1.00871218776917
  N   1.25599384009479      1.02582276705096     -0.19331659459618
  O   2.23805847207972      1.43793380362033      0.41295059406276
  O   0.65839418403827      1.59201446442403     -1.10351370963170
  N   0.76775593910683     -1.18115768730507     -0.95530787328797
  H   0.97395988544772     -2.13808001822729     -0.71426812666952
  H   -0.06239364733207     -1.11909554341210     -1.52729095829393
