14
Coordinates from ORCA-job run
  C   -0.66019131114852     -0.08731668585638      0.84170119197284
  C   0.70657959811382     -0.34505719120055      0.19938130519788
  F   -0.51533680426576      0.75553082104485      1.88854738775077
  H   1.36273566850409     -0.70056136769990      0.99484368415641
  H   -1.11003548875115     -1.02613633004877      1.16964696212574
  N   -1.64973236434556      0.51557436170222     -0.13039158594014
  O   -2.02824678402105      1.65764657628318      0.06038675120562
  O   -1.99302616050738     -0.24408682807967     -1.03313625350645
  N   1.27277326827445      1.00576700621653     -0.18950747139145
  O   2.25200123658142      1.41155204965679      0.42568528803451
  O   0.69640222942356      1.56871642324760     -1.11510969687580
  N   0.76131001005223     -1.20508239426318     -0.92779334678909
  H   0.96620783091921     -2.15905656133678     -0.67535160292036
  H   -0.06244092882937     -1.14648987966598     -1.50890261302049
