14
Coordinates from ORCA-job run
  C   -0.79326792999533      0.59563574601529      0.12432629343513
  C   0.51446429907426     -0.16655201088127      0.20802455298398
  F   -1.01786641049750      0.97748998830380     -1.15626623060638
  H   0.68809284174078     -0.46757066373827      1.24165788623107
  H   -0.82786291032587      1.45854621873159      0.78704361674137
  N   -1.88729694425719     -0.34574935579554      0.56340536204986
  O   -1.81397418535168     -0.67295357519064      1.74258349144599
  O   -2.71948844678668     -0.69102167505030     -0.25837086868718
  N   1.61536338521522      0.88467875045428     -0.06956111214760
  O   1.64482717779590      1.84018148228554      0.69948570158771
  O   2.37055379849952      0.67887456805249     -1.01107184549344
  N   0.50401573236511     -1.26723670402585     -0.66579302675901
  H   1.33046433822273     -1.83987285119071     -0.57610426417077
  H   0.38997525430084     -0.98344991797041     -1.62935955661071
