14
Coordinates from ORCA-job run
  C   -0.75700554108165      0.60505685626997      0.24599002556054
  C   0.52379416764010     -0.19985011115134      0.14638705170285
  F   -1.07511996075572      1.10883764965040     -0.97104904528965
  H   0.77380546058193     -0.59865779838082      1.13003202654554
  H   -0.70300445320878      1.40439870372340      0.98299297802985
  N   -1.84401194122365     -0.33991417152418      0.69451648156173
  O   -1.68265066398221     -0.77591342586552      1.82888386205990
  O   -2.75555656197530     -0.58363980725562     -0.07794690149017
  N   1.63512007511206      0.83944041330177     -0.13403462504498
  O   2.29796479445064      0.69882743719513     -1.15380276812016
  O   1.76654675332692      1.71895253138676      0.71123045087408
  N   0.39770202036415     -1.21581089844185     -0.81654377036500
  H   1.20540308083420     -1.82043808225796     -0.84844431742691
  H   0.21601276991732     -0.84228929665014     -1.73821144859766
