14
Coordinates from ORCA-job run
  C   -0.72181560490297      0.53038276115001      0.44268610235460
  C   0.52049417849781     -0.24831137154426      0.05783796915581
  F   -1.06603571374062      1.36838994360221     -0.56485339874849
  H   0.79042247370096     -0.91837041909233      0.87465349837307
  H   -0.60708630899561      1.08504784784814      1.37238946405462
  N   -1.82857437343492     -0.47224951837155      0.65759092803847
  O   -2.77875742915786     -0.45927043571897     -0.10663420783346
  O   -1.64160556692461     -1.21816883452697      1.61233083864370
  N   1.66183248886439      0.79608694194673      0.03292624822829
  O   1.86285185293111      1.38942398675576      1.08784423187155
  O   2.27682700809632      0.93858547542713     -1.01618002242414
  N   0.31759758161073     -0.94218386753463     -1.14728779844853
  H   1.09843059812883     -1.53456705183901     -1.38876403287037
  H   0.11541881532646     -0.31579545810220     -1.91453982039510
