14
Coordinates from ORCA-job run
  C   -0.70318346634790     -0.12799266742326      0.90684796765857
  C   0.64622389231297     -0.42617696639192      0.26092901099122
  F   -0.55188008979144      0.63976008729258      2.00359876447607
  H   1.33825757207753     -0.68585853640421      1.06400933989997
  H   -1.21956912888260     -1.05741743930233      1.14752494700912
  N   -1.59014218679268      0.60611394924077     -0.07776345917358
  O   -2.01616151681536     -0.09023153100618     -0.99515413012542
  O   -1.78565497405394      1.79724950825567      0.10323431349053
  N   1.18997529478963      0.91460310141672     -0.26894836291728
  O   1.79754540887526      1.61725549925268      0.53140487052946
  O   0.95329143699830      1.17297921164024     -1.44610892177344
  N   0.55341999123932     -1.45256153589614     -0.70089178164882
  H   1.46038052831584     -1.69918617902131     -1.07180591260455
  H   -0.07350276192494     -1.20753650165329     -1.45587664581189
