14
Coordinates from ORCA-job run
  C   -0.67534028544576     -0.10656371885200      0.82663792247234
  C   0.70923412313097     -0.33231624010567      0.21140234504678
  F   -0.56802394389681      0.73110228753853      1.88238752329701
  H   1.35463013925192     -0.68302950549527      1.01778990582839
  H   -1.11213187762713     -1.05677476123151      1.13916047730310
  N   -1.65829129197906      0.48294472885522     -0.15992224325297
  O   -2.06904806774765      1.61306709727020      0.03499318045457
  O   -1.96464814383647     -0.27531341752086     -1.07698991788280
  N   1.25885387629969      1.03119578029811     -0.15429716976948
  O   0.68232159992612      1.59745655831197     -1.07798316834390
  O   2.22739916764777      1.44286977713896      0.47347122615689
  N   0.80557304254812     -1.18053959786388     -0.92267277288009
  H   -0.00559125441467     -1.12771663457290     -1.52198894813357
  H   1.01506291614294     -2.13438235377088     -0.67298836029628
