14
Coordinates from ORCA-job run
  C   -0.57828461214958     -0.15336404173744      0.89080469866979
  C   0.74818804970818     -0.28259198119197      0.13553137623568
  F   -0.42115373738136      0.68982440828516      1.93587698466575
  H   1.49563371568566     -0.58678580308279      0.86936911541857
  H   -0.91469691903328     -1.13125707247239      1.23992447052268
  N   -1.69510919890124      0.36675369880568      0.01377501829915
  O   -2.04038540523541     -0.41074772573627     -0.87287484882073
  O   -2.16073745540465      1.46577177093683      0.25740917799786
  N   1.16146456521600      1.11573046042709     -0.27534024841161
  O   2.15727225875501      1.59465627675575      0.25468596972981
  O   0.45710085268622      1.63945497571867     -1.13304064233649
  N   0.78665107968233     -1.12279246700144     -1.00767385341688
  H   1.08709047557359     -2.05937475500940     -0.78739870317768
  H   -0.08303366920147     -1.12727774469747     -1.52104851537589
