14
Coordinates from ORCA-job run
  C   -0.92794758278273     -0.29070779470397      0.41620366538147
  C   0.57578102565977     -0.30158131939870      0.16921845558452
  F   -1.20588344262091     -1.03829906623343      1.50400056521728
  H   1.08113464063346      0.07517138227436      1.05911073004606
  H   -1.50167378408714     -0.63449749051297     -0.44541454815460
  N   -1.36416798182081      1.12616420578848      0.68976129171674
  O   -1.12253054229477      1.56524062680123      1.80672108813490
  O   -1.89103235921495      1.71648371559458     -0.24917332529256
  N   0.83657745674522      0.73873998159395     -0.92356411915180
  O   0.61260144876627      0.37152878426370     -2.07481441978930
  O   1.22674312729555      1.84642241376161     -0.56827740580964
  N   1.00073562953748     -1.60585437694761     -0.16885785902835
  H   0.67255797555111     -1.87090421122258     -1.08904792602194
  H   2.00610438863241     -1.69790685105867     -0.12586619283277
