14
Coordinates from ORCA-job run
  C   -0.65298109908842     -0.11532875138694      0.84746505297326
  C   0.71547562883515     -0.33766458464062      0.19373119931018
  F   -0.51858595606495      0.70874068872957      1.91051564741502
  H   1.38342801257507     -0.69019733516484      0.98065910673360
  H   -1.08738733331977     -1.06742122250717      1.15733822765282
  N   -1.65166139379606      0.49082472915726     -0.11212601426385
  O   -1.98717734442176     -0.25804256469925     -1.02667344938013
  O   -2.02483208693263      1.63409358108968      0.08444768594674
  N   1.24986180933824      1.02630379753758     -0.18545898296381
  O   0.67894240397235      1.56848730185396     -1.12697036634864
  O   2.19524744060439      1.46779806690673      0.45739055633532
  N   0.78461049059626     -1.18397729467217     -0.94530514570013
  H   -0.02475548282995     -1.09460364257608     -1.54356003153399
  H   0.93981491053208     -2.14801276962775     -0.69245348617637
