12
Coordinates from ORCA-job run
  C   -0.49412774215519     -0.09679910995837     -0.05818011497162
  C   1.01986826706833     -0.20202689780915      0.14003671541109
  F   -1.09067077390784     -0.51109331385221      1.14051648684189
  H   1.26885953562470     -1.25879594020442      0.27967780384703
  H   1.52091771882196      0.15185606914476     -0.76334997509891
  C   -0.90605066482566      1.30385555123286     -0.27432961293175
  N   -1.22981673205438      2.41780686853255     -0.45203949775274
  N   -0.88785271948918     -0.87884412324352     -1.16813542293766
  H   -1.87831479398734     -0.78640442846182     -1.35560801063752
  H   -0.65980387809943     -1.85467703483161     -1.02036625080264
  C   1.47794580424844      0.55343297759692      1.30202473543612
  N   1.85704597875558      1.16268938185401      2.22975314359672
