12
Coordinates from ORCA-job run
  C   -0.55061565272916      0.01896865609531      0.07236978209130
  C   0.84946795874950      0.54025286181570      0.41743294180412
  F   -0.99564913579889     -0.70391510046039      1.19111527916632
  H   1.17741584319920      1.23242477775663     -0.36099334061116
  H   0.80214101714108      1.07304995911259      1.36942646990657
  C   -1.47498353157300      1.16054765768488     -0.08114175355950
  N   -2.19483715022471      2.08093377386169     -0.18991108786105
  N   -0.53817140525337     -0.74324081396080     -1.11275048992187
  H   0.08596327179972     -1.53779924512266     -1.03182865079076
  H   -1.46606008604032     -1.05764158477953     -1.36594664665838
  C   1.78908490620575     -0.57291547979808      0.51975574742961
  N   2.51824396452419     -1.49066546220536      0.57047174900479
