12
Coordinates from ORCA-job run
  C   -0.49634699707338     -0.09026305053837     -0.04259804178197
  C   1.02232207009012     -0.21519589717075      0.09908269705689
  F   -1.05475850767468     -0.54040021527963      1.16197165410508
  H   1.49567656758407      0.16420274495853     -0.80884023648735
  H   1.26483661964110     -1.27827068889297      0.19491742294776
  C   -0.90280231771740      1.32014498169696     -0.19741654798345
  N   -1.22296044593359      2.43960338490942     -0.34319937143272
  N   -0.93596672376130     -0.83041498367635     -1.16380390484930
  H   -1.93152682474115     -0.72405323047421     -1.31265826923566
  H   -0.71111415906064     -1.81230787297382     -1.05863976898533
  C   1.52799460491061      0.49696215096528      1.26875551258135
  N   1.94664611373624      1.07199267647592      2.20142885406469
