12
Coordinates from ORCA-job run
  C   -0.65152692255669     -0.20144386204728      0.11506409138752
  C   0.64040525284803     -0.23456994067327      0.93541929140507
  F   -1.62482128235692     -0.81304791567074      0.88156312572822
  H   0.85596632493483     -1.28641892965451      1.13963774904995
  H   0.47256589962216      0.28145067399479      1.88338630004085
  C   -1.10264771702318      1.19972438796072     -0.09096657816346
  N   -1.44354224689647      2.30564814439390     -0.29302838785067
  N   -0.50017070713436     -0.95656253893336     -1.08421132073041
  H   -1.32113527254501     -0.87345596820072     -1.67157625742120
  H   0.31508638668411     -0.66450106726821     -1.60940190862786
  C   1.74748140081451      0.37769053735618      0.20983230484095
  N   2.61233888360898      0.86548647874248     -0.41571840965898
