12
Coordinates from ORCA-job run
  C   -0.65216065736543     -0.17785297468502      0.14889419277286
  C   0.67744563616536     -0.26259860729939      0.90275480016698
  F   -1.60751613096892     -0.75740756067330      0.96095458824465
  H   0.86370534641512     -1.32254401646423      1.09338750448856
  H   0.57756569428083      0.25568350126951      1.85906370817698
  C   -1.05977167017946      1.24031901767656     -0.03064729320680
  N   -1.36052845357769      2.35945857364214     -0.22379856948392
  N   -0.58932097696341     -0.93185585656189     -1.05922653243602
  H   0.20516696877217     -0.66187780215540     -1.62654708967655
  H   -1.43753413006869     -0.81845106705501     -1.60120134820775
  C   1.76843375402764      0.31077668582328      0.12295982530172
  N   2.61751461946245      0.76535010648270     -0.54759378614069
