12
Coordinates from ORCA-job run
  C   -0.56215909634630     -0.10061155836436      0.03082206902556
  C   0.77374783170538      0.27347021340836      0.67640327912272
  F   -1.13216414150367     -1.11948216235337      0.76476622377199
  H   1.19609086805420      1.15168876456954      0.17877897912929
  H   0.58594438304595      0.54221155989699      1.71887654558686
  C   -1.48525149796761      1.06215295304382      0.14025860389028
  N   -2.18469790737608      2.00525176003062      0.17881367731439
  N   -0.37092362289124     -0.57796429477401     -1.29659071010486
  H   -1.25394333037863     -0.73915309631286     -1.76433773561184
  H   0.20281043412158      0.04372403374551     -1.85045161416071
  C   1.72248827593331     -0.83593347332510      0.62199237030746
  N   2.50905780360313     -1.70535469956516      0.60066831172886
