12
Coordinates from ORCA-job run
  C   -0.52976098846408     -0.08384474960849      0.02629612341697
  C   0.93812147206931     -0.40152368768381      0.31258377124634
  F   -1.23412110138829     -0.18502484462233      1.20484360463283
  H   0.96821985242228     -1.42976357985212      0.68135371184384
  H   1.52046627139834     -0.34677886728036     -0.61192968589480
  C   -0.68317342025408      1.31725226319216     -0.44581649552365
  N   -0.80398801400516      2.39847500299351     -0.88907491581632
  N   -1.06028695922525     -1.06670336869862     -0.86997254540791
  H   -2.03781669426405     -0.87400520264769     -1.05741731143521
  H   -0.55678111803752     -1.07126684850810     -1.74861589220073
  C   1.50793984426359      0.50625142637443      1.30322004294403
  N   1.97218085548492      1.23593245634141      2.09552959219457
