12
Coordinates from ORCA-job run
  C   -0.49363228790697     -0.05757814300386     -0.08467074005156
  C   0.98107982277045     -0.27275389035193      0.26362538981801
  F   -1.22097457865158     -0.23183074773188      1.10028208683228
  H   1.58514081287197     -0.10244076901861     -0.62997016756023
  H   1.10689447188157     -1.31607813336282      0.56985097020713
  C   -0.73947645010192      1.32689488520929     -0.53394212185146
  N   -0.95503018362038      2.41196598496892     -0.92552621980820
  N   -0.88079541373382     -0.95512640056678     -1.10603531523504
  H   -1.83891766731848     -0.80031971752784     -1.39361308068158
  H   -0.76742099476408     -1.91521811744066     -0.80412712998115
  C   1.42466544749381      0.60062939744136      1.34596985811353
  N   1.79746702107943      1.31385565138481      2.19915647019826
