12
Coordinates from ORCA-job run
  C   -0.60831668449742     -0.12126108856675      0.08590718750344
  C   0.75006811517023     -0.28964879751799      0.77161999304259
  F   -1.51388095924736     -0.82467751358476      0.90371809010306
  H   0.66542668884022      0.05154641258434      1.80568159391315
  H   0.98019431820460     -1.35958070660884      0.79640513743913
  C   -1.04561969288981      1.28813502495807      0.10073785698919
  N   -1.40193354878522      2.40577847835581      0.13601821337244
  N   -0.57464105544218     -0.59266994221987     -1.23892686535068
  H   -0.28329777150674     -1.56056835831136     -1.28706954757605
  H   -1.45641215128448     -0.46418508409439     -1.71740465986027
  C   1.81196993437937      0.43760696035396      0.08536425054171
  N   2.67644280705877      1.02952461465176     -0.44205125011771
