12
Coordinates from ORCA-job run
  C   -0.63114830748226     -0.01583066203962      0.02074650044405
  C   0.72885526658177      0.21665177268560      0.71531104429144
  F   -1.26815983412051     -0.99056607900888      0.76807982604563
  H   1.22536826783830      1.08077556501573      0.26574997635366
  H   0.56292796171001      0.42496232928947      1.77524249543131
  C   -1.41739053706784      1.23257319284281      0.11121721340552
  N   -1.99516411649275      2.25032891500220      0.19745581508037
  N   -0.59639590879621     -0.44559062653984     -1.33353601234212
  H   -0.48858404870390      0.31304420674697     -1.99063666864185
  H   0.09953771759108     -1.16488999095046     -1.48649072864742
  C   1.56936276143120     -0.96663897793794      0.56245887543396
  N   2.21079077751113     -1.93481964510605      0.39540166314543
