12
Coordinates from ORCA-job run
  C   -0.50017906531926     -0.00964600087301     -0.08298528056263
  C   0.93458605411780     -0.32951974057238      0.34347473383617
  F   -1.23064697916635      0.22284546560995      1.09022939680724
  H   1.54507957266392     -0.47804712720642     -0.54962759611946
  H   0.91726368601747     -1.26719282686189      0.90797268831206
  C   -0.55490455692089      1.23749279601984     -0.87052190440722
  N   -0.59305122157271      2.22272583720781     -1.50699091677783
  N   -1.01989089321273     -1.07454457085726     -0.85363915747854
  H   -1.95052082552251     -0.86824263865331     -1.19408444374963
  H   -1.03630232696096     -1.93384700661864     -0.31794862784855
  C   1.50836436245974      0.71996534808235      1.18021633340806
  N   1.97820219341648      1.55801046472296      1.85290477458030
