12
Coordinates from ORCA-job run
  C   -0.55255848850055     -0.00825618637438      0.06411045968228
  C   0.83540550184576      0.39274892200603      0.57822393047658
  F   -1.00578412330032     -1.04105913171141      0.90044070585858
  H   0.76569445074422      0.60854342015200      1.64635992555565
  H   1.16732107922755      1.29193158337024      0.05470555514075
  C   -1.48826076706146      1.11943790906652      0.24854294713468
  N   -2.21673104634006      2.02402506928171      0.41557068744228
  N   -0.51199965262484     -0.37188526345713     -1.29660962472099
  H   -1.43130278361395     -0.60258385926820     -1.65088928359263
  H   0.12301323147100     -1.14631154464467     -1.45202060875306
  C   1.78726528183305     -0.69179082004125      0.35341218684206
  N   2.52793731631961     -1.57580009837946      0.13815311893383
