12
Coordinates from ORCA-job run
  C   -0.62667539076257     -0.01840787607880      0.07438401841949
  C   0.78388635959461      0.25593381397520      0.64092905071409
  F   -1.19134766202028     -0.95470356817880      0.92275744749872
  H   1.23468853435653      1.09680542914009      0.10713893098798
  H   0.70344762731356      0.51907468092035      1.69857903332356
  C   -1.41357934872139      1.22983890017314      0.16471126504717
  N   -1.99405425637875      2.24625385133141      0.24801147943265
  N   -0.69982501863564     -0.51807945196779     -1.25337247332966
  H   -0.00875639963969     -1.23631814224109     -1.43043491848344
  H   -0.66755948056786      0.20462373646226     -1.95706463380427
  C   1.61910785137460     -0.93023232917604      0.48111250675197
  N   2.26166718408689     -1.89578904435993      0.30324829344177
