12
Coordinates from ORCA-job run
  C   -0.61249462522361     -0.11477302370286      0.06513236645671
  C   0.71470524387262     -0.26316442363655      0.81372145565199
  F   -1.55431488662147     -0.78982661203037      0.86630864109759
  H   0.58602623150973      0.11201629241810      1.83133844309955
  H   0.94046261317711     -1.33201450842825      0.88367773894532
  C   -1.04572542052724      1.29513117946751      0.01601570853828
  N   -1.39906924387182      2.41405741565251     -0.00387177340604
  N   -0.52425057749841     -0.62889796520301     -1.24090005880759
  H   -1.38497454575901     -0.51609362839857     -1.75992168918355
  H   -0.23217107058582     -1.59775746634876     -1.24544714439861
  C   1.80839531863193      0.43697156060540      0.14933645968332
  N   2.70341096289599      0.98435117960489     -0.37539014767697
