16
Coordinates from ORCA-job run
  C   0.97686829437305     -0.66394078702948     -0.23947338597680
  C   -0.29398158952986     -0.05231739476021      0.36498229639247
  H   1.09273073241427     -1.68481661376068      0.14137894658440
  H   -0.14595588244024      0.00613647943667      1.45325762731510
  H   0.84258958901514     -0.75318227130575     -1.32451365260162
  N   2.23514986670172      0.03861845905310     -0.00617565092932
  H   2.37063100920714      0.18385725021114      0.98732212210816
  H   2.21769499988818      0.94921309506923     -0.44651909328871
  C   -1.49096557546582     -0.95927337569873      0.09087055302553
  H   -1.32341918731502     -1.96830362520372      0.47816347156015
  H   -2.40163797363489     -0.56924648718732      0.55325244887390
  H   -1.67242301048976     -1.03975595627842     -0.98587934340674
  C   -0.54879098857049      1.35623091272181     -0.16213636928012
  H   0.26998518045539      2.03743104900604      0.08121471168951
  H   -0.66630267771580      1.34119179149060     -1.25122780446574
  H   -1.46217278689298      1.77815747423573      0.26548312239982
