13
Coordinates from ORCA-job run
  C   -0.69562880243836     -0.10262595697033      0.00127186960804
  C   0.73144841927904      0.13477123508604     -0.56772334622948
  Br  -1.70231172738318     -1.07835295005059     -1.44422620112589
  H   0.61948758872699      0.74751639195258     -1.47163797925570
  C   -0.64528974475185     -1.00339765701171      1.15007306917830
  N   -0.60435128093805     -1.71321881750725      2.08630619296720
  N   -1.26309216530003      1.13621411254045      0.36753770215816
  H   -1.40587444330479      1.74288780307474     -0.43126628175956
  H   -2.12959068105546      1.03033637012539      0.87976041737057
  C   1.39585822945781     -1.11774778717892     -0.93462592749692
  N   1.95203414818392     -2.11170435478678     -1.22012388399275
  C   1.53988466577544      0.87328922321967      0.40979858784471
  N   2.20742579374851      1.46203238750673      1.17585578073332
