13
Coordinates from ORCA-job run
  C   -0.65228366076189     -0.05788356288011     -0.07266764431376
  C   0.89553780377796      0.02184430261178      0.04385872748221
  Br  -1.14576904906220     -0.32952410441627     -1.93662524220333
  H   1.12012463657839      0.19754109740014      1.10599660811689
  C   -1.12241287546288     -1.22602495805578      0.68736603501252
  N   -1.51319450580492     -2.10486254758574      1.36529333233550
  N   -1.19381881592990      1.20411046895078      0.36448921230230
  H   -1.09812910340684      1.29536502611525      1.37196506259928
  H   -2.17633197824882      1.27467313294521      0.12633358277162
  C   1.41719846379246      1.15320835932460     -0.72651019578631
  N   1.87757100545499      2.05058283542258     -1.32716376295544
  C   1.53782398524809     -1.23338547160461     -0.35236337108408
  N   2.05468409382556     -2.24464457822786     -0.65097234427741
