13
Coordinates from ORCA-job run
  C   -0.67426670471877     -0.23495441778524      0.09545863996094
  C   0.83311162043921     -0.43996221523378     -0.22968228959869
  Br  -1.66442728291024     -1.45959916632763     -1.17528777570763
  H   1.04876580893251     -1.51361378267946     -0.20836036922301
  C   -0.95814823627018     -0.74882647246761      1.43351463584100
  N   -1.17631181694300     -1.15559509509982      2.51461657269999
  N   -1.01644167605333      1.12434065689060     -0.00129450749744
  H   -1.95063347538214      1.32215877791897      0.33298860169847
  H   -0.88884613406168      1.49380327106824     -0.93661456243737
  C   1.65726761548164      0.23877771834971      0.77692982790688
  N   2.32619879056891      0.75371779472822      1.59325663264315
  C   1.12727459701226      0.08324914145040     -1.56664093306719
  N   1.33745689390482      0.53550378918739     -2.62988447321910
