13
Coordinates from ORCA-job run
  C   -0.65322653890811     -0.08729742406146     -0.01078576377115
  C   0.89365433735867      0.06302979841100     -0.04380525979418
  Br  -1.31831373418564     -0.31906249408232     -1.82545486962849
  H   1.21478857310978      0.21134874658646      0.99748437448126
  C   -0.99067092781218     -1.30195584212252      0.74706358991915
  N   -1.26752461197805     -2.22165098897018      1.42697718543990
  N   -1.20398859927896      1.13130260802555      0.52673407036264
  H   -1.01956068401104      1.18842674697089      1.52427119432406
  H   -2.20634645516297      1.16651597421496      0.38185912212497
  C   1.28449307621483      1.24477770803670     -0.81593860612833
  N   1.63935908428233      2.18684890615522     -1.41974824469280
  C   1.54879316165726     -1.14484958963707     -0.55109425365912
  N   2.07954331871411     -2.11843414952726     -0.93756253897789
