13
Coordinates from ORCA-job run
  C   -0.69526580893610     -0.10059003236424      0.03415788760146
  C   0.70552319402427      0.13709341448314     -0.59620579833373
  Br  -1.77288559126994     -1.05126498731538     -1.37726464599638
  H   0.55635170182026      0.76462825541979     -1.48445819586053
  C   -0.59865738411154     -1.01813529942421      1.16657271676626
  N   -0.51615815906787     -1.74249018111614      2.08878448084106
  N   -1.23856120290596      1.13568932360233      0.44294330402562
  H   -1.41084764049753      1.75553744568156     -0.33980326383570
  H   -2.08345913821354      1.02687504328144      0.98958276186310
  C   1.34467949617100     -1.11264288280202     -1.01455100813417
  N   1.88888674091961     -2.09447632516522     -1.35916757606514
  C   1.56233943898204      0.85566754823398      0.35439590316673
  N   2.25705435308530      1.44410867748497      1.09601343396141
