13
Coordinates from ORCA-job run
  C   -0.75132487209624     -0.30206798009660      0.02327721740840
  C   0.79516046112891     -0.45919006759192     -0.23152940656475
  Br  -1.63921170919423     -1.43672794348630     -1.31075655773742
  H   1.06423243547614     -1.52005382309643     -0.17302429530437
  C   -1.03640164507705     -0.85187817471673      1.34982780323586
  N   -1.21652816214521     -1.28415276795765      2.42800187518895
  N   -1.26805561146020      1.02117670609876     -0.07661240025818
  H   -1.06959646204079      1.44194432045768     -0.97673391055296
  H   -0.94940014001968      1.61117981412804      0.68357706098684
  C   1.51444315434478      0.29080198372335      0.80262519635638
  N   2.04240468592151      0.91108329398644      1.64927498109530
  C   1.13386202241794      0.06228482466877     -1.55669494346383
  N   1.38041584274413      0.51459981388262     -2.61223262039025
