13
Coordinates from ORCA-job run
  C   -0.72402550402628     -0.14757164244979     -0.02174312582210
  C   0.84169875219684     -0.00226324211642      0.02757958546802
  Br  -1.22634176671709     -0.53628347003260     -1.87289754943433
  H   1.09775559365682      0.15638119228545      1.08462203494479
  C   -1.08457152721812     -1.29312505677199      0.81564594475757
  N   -1.33508193375230     -2.18884009535494      1.53456902980035
  N   -1.44539276844980      1.00776676137243      0.40967462057191
  H   -1.31895967888472      1.18711490041084      1.39904009174940
  H   -1.21655298994203      1.82584475471474     -0.14288997955608
  C   1.24590629332717      1.18862972477698     -0.72101120611962
  N   1.52759651641359      2.17601816306655     -1.29114556134970
  C   1.53968579481097     -1.20066499458096     -0.43722555224155
  N   2.09928321858500     -2.17400699532029     -0.78221833276869
