13
Coordinates from ORCA-job run
  C   -0.70400990979311     -0.11895363404427     -0.14815293540804
  C   0.76538323118029      0.10378474136743     -0.60322956783048
  Br  -1.63990533665925     -1.02571480024703     -1.60026430575583
  H   0.70891561517614      0.68500915461051     -1.53089878958103
  C   -0.74013570906393     -1.00272966101861      1.02583450382732
  N   -0.78465965001549     -1.64638879182347      2.00998772206675
  N   -1.31045103890924      1.17496489349479      0.04217781064036
  H   -2.31098776915721      1.07774493046579      0.17408384739389
  H   -0.92008716758334      1.62303614057903      0.86735068744751
  C   1.46658231864704     -1.15777909162083     -0.84731642794345
  N   2.03125350926402     -2.16821482784521     -1.04397511133208
  C   1.46406757216449      0.89824681157147      0.41328214592247
  N   1.97303433474959      1.55699413451040      1.24212042055257
