13
Coordinates from ORCA-job run
  C   -0.72462236933416     -0.14551062347749      0.01048312215201
  C   0.84217258568019     -0.00423184383985     -0.00506462583233
  Br  -1.30047575792300     -0.57159289664001     -1.81126750851345
  H   1.14039667328882      0.17615130786371      1.03728383714802
  C   -1.05532611957017     -1.27240418905443      0.88464422262963
  N   -1.27925997069888     -2.15413266342547      1.62916243335518
  N   -1.42572809099253      1.02084446350057      0.44525750078766
  H   -1.21618312964947      1.82684248022051     -0.13214147924046
  H   -1.26157949853909      1.21995685502610      1.42525850358952
  C   1.21884652880083      1.16914708059880     -0.79465195631011
  N   1.48306558776542      2.14310963699914     -1.39537275528511
  C   1.51814795486188     -1.21444242190712     -0.47185551172090
  N   2.06054560631019     -2.19573718586446     -0.82173578275968
