13
Coordinates from ORCA-job run
  C   -0.68729394515976     -0.18332074340478      0.10881529822545
  C   0.78685560993571     -0.49392731177853     -0.27885781426813
  Br  -1.81453302386804     -1.26265712561090     -1.18062114074500
  H   0.91361161173068     -1.58125490430928     -0.31493506888217
  C   -0.97096541291082     -0.73594773816301      1.43131816645111
  N   -1.19129892408111     -1.17620197276582      2.49880442663531
  N   -0.91966204951476      1.20185479250082      0.08517245504743
  H   -0.79380341346812      1.60448158908886     -0.83658819771075
  H   -1.82188375687873      1.45869502667769      0.46405690438892
  C   1.69555195181008      0.06606262470711      0.72795000605043
  N   2.42839663101220      0.48596945262739      1.54379698538320
  C   1.08035539141268      0.06802235868124     -1.60014900122818
  N   1.29466932998001      0.54922395174921     -2.64976301934764
