13
Coordinates from ORCA-job run
  C   -0.76053860687206     -0.27175377750844      0.03651037242411
  C   0.77088232126895     -0.48164973125018     -0.26690201303871
  Br  -1.73098715909581     -1.32701067093639     -1.30434941164049
  H   0.99954988722736     -1.55341656982566     -0.24865888216861
  C   -1.03206063272364     -0.85044271760393      1.35370775926177
  N   -1.20501893230963     -1.31056271091224      2.42155553131784
  N   -1.22561243829871      1.07389466545641     -0.00873713292961
  H   -1.03873730927950      1.51210663266068     -0.90307548511532
  H   -0.85625198198259      1.62788102546830      0.75578953440913
  C   1.54590425357435      0.20713101546734      0.76968529735946
  N   2.11657645524228      0.78210845469995      1.62059700725636
  C   1.09362076018644      0.06695174661004     -1.58502247506903
  N   1.32267338306254      0.52476263767412     -2.64210010206696
