13
Coordinates from ORCA-job run
  C   -0.65092610100516     -0.25238954526795      0.17300645330052
  C   0.82795539916629     -0.41990614097444     -0.27913945373471
  Br  -1.69785607568375     -1.59322269269891     -0.92478898878100
  H   1.09174296925643     -1.48082609363698     -0.21119944597506
  C   -0.78987846276098     -0.69211979870633      1.55940787554687
  N   -0.89284660039620     -1.03756271248633      2.67830651737659
  N   -1.06052867555545      1.08351868109202      0.02799738230583
  H   -1.96969937531576      1.26494890662007      0.43340576455498
  H   -1.03253649549808      1.39857064448783     -0.93514896923266
  C   1.70905888030644      0.35501193082509      0.60160479478874
  N   2.42128603816552      0.94987990640373      1.32119438971119
  C   0.97530909466937      0.02200952604474     -1.66863652961833
  N   1.06791940465133      0.40208738829745     -2.77600979024297
