13
Coordinates from ORCA-job run
  C   -0.66733184825751     -0.32605298021187      0.02019170287284
  C   0.86810710278044     -0.41482188020239     -0.21272781575278
  Br  -1.52987747627788     -1.64172376865609     -1.13502786574688
  H   1.20006952560110     -1.42799766247484      0.04282384712123
  C   -0.95085033298082     -0.72018146008228      1.40978151679394
  N   -1.18069143798902     -0.97045706252991      2.53628165647452
  N   -1.12491230130572      0.98302306736238     -0.35312221692930
  H   -0.75460421899240      1.68255187044338      0.28465187031364
  H   -2.13700624022560      1.03006167445547     -0.33943202224343
  C   1.53466759602174      0.54455620972500      0.67626678627590
  N   2.01754887779158      1.33045965886627      1.40375251585551
  C   1.20618563344119     -0.13636313780140     -1.61072419195536
  N   1.51969512039292      0.06594547110630     -2.72371578307981
