13
Coordinates from ORCA-job run
  C   -0.73248616314182     -0.06814562453407     -0.10454022103591
  C   0.72085632364797     -0.16293627117711     -0.65083766176141
  Br  -1.90428762867944      0.41797350447179     -1.58799743013202
  H   0.74870486249396     -0.93210308456178     -1.43162790716945
  C   -1.14603750967042     -1.40531380534794      0.35111684040687
  N   -1.46269516703002     -2.45626154532643      0.77536917378135
  N   -0.79531781860908      0.96715982782754      0.88865120708126
  H   -1.75336383654244      1.14317200627820      1.16776322056594
  H   -0.25689954325407      0.70333581424453      1.70946025027611
  C   1.61048024889430     -0.56383219018707      0.44596099602361
  N   2.28144914080691     -0.87664927898440      1.35819520939596
  C   1.15489891420592      1.11551985256787     -1.21941911282997
  N   1.53569817687824      2.11608079472884     -1.70109456460231
