13
Coordinates from ORCA-job run
  C   -0.69462586458275     -0.10136082267778      0.02383586864366
  C   0.71185761881464      0.14805494462959     -0.58940776952936
  Br  -1.75499449074115     -1.03817346817828     -1.40957515809726
  H   0.56939344291606      0.78579157056702     -1.47146595773649
  C   -0.60714765340932     -1.03126368961917      1.14680403882705
  N   -0.53947397406844     -1.76375581717591      2.06376757204335
  N   -1.24516953045802      1.12873517488031      0.44165972560172
  H   -2.09435870195672      1.01104454560804      0.97976616555487
  H   -1.41344484603322      1.75610364332725     -0.33596178006903
  C   1.35888331413848     -1.09507765267588     -1.01494020144311
  N   1.90263556813919     -2.08040491631627     -1.35015155889223
  C   1.55716979957071      0.85710344574905      0.37857036229472
  N   2.25027531767055      1.42420304188197      1.13809869280211
