13
Coordinates from ORCA-job run
  C   -0.64043809928102     -0.28761215162550      0.16031627242569
  C   0.86272064050588     -0.37648563273775     -0.23110009975038
  Br  -1.55724809439654     -1.73895996805819     -0.91145413517710
  H   1.19153441232058     -1.41383033663475     -0.10677563331894
  C   -0.80115694467697     -0.67543112482397      1.55987544073477
  N   -0.91585847521071     -0.97960664082921      2.68944649817067
  N   -1.12854499118691      1.01142144650083     -0.05916007494791
  H   -1.08638315714305      1.28517232129625     -1.03433858315392
  H   -2.06112976041154      1.15107102866207      0.30749604092270
  C   1.65672156357160      0.49129416123745      0.64618934695341
  N   2.30058006677441      1.16201108157414      1.36342780029714
  C   1.03477237248281      0.01675764907557     -1.63228436385145
  N   1.14443046665146      0.35519816636307     -2.75163850930470
