13
Coordinates from ORCA-job run
  C   -0.69255414170025     -0.11206085444264      0.03718768604804
  C   0.70725056797487      0.10815670182937     -0.60152725029510
  Br  -1.73993694773642     -1.18891113761137     -1.30414977442650
  H   0.55021488036617      0.66573111064702     -1.53406263751954
  C   -0.58609613344447     -0.93850651593153      1.23682889768573
  N   -0.50422128366971     -1.58849751569061      2.21296432893431
  N   -1.26388090262326      1.14024992877584      0.34775297773126
  H   -1.44721507440161      1.69317483967728     -0.48129949253258
  H   -2.10815502063173      1.05622569272328      0.89981282380338
  C   1.37551817713940     -1.15441783126014     -0.92444935656656
  N   1.93563352300090     -2.15257529844934     -1.18641190162597
  C   1.54299379941974      0.91285904366862      0.29746664059957
  N   2.23044855630638      1.55657183606423      0.99888705816396
