13
Coordinates from ORCA-job run
  C   -0.64311119332171     -0.11888283494329      0.10006202626510
  C   0.90389654534970      0.02075773200352      0.01689918461437
  Br  -1.30325790087136     -0.64719739457755     -1.71897020921227
  H   1.23617327345754      0.23337855005381      1.04178127616584
  C   -0.97230506832637     -1.22818085852108      0.99315209471989
  N   -1.22631455346641     -2.10438903249191      1.73444447315281
  N   -1.18521353613467      1.09051386832481      0.59641772274442
  H   -1.04201640085263      1.85869748927687     -0.05069086400605
  H   -2.17236606326135      1.00415569922255      0.80519229645962
  C   1.25421944343877      1.16757356900536     -0.82439097568369
  N   1.49780942508804      2.11937424360354     -1.46768098747875
  C   1.55468381000657     -1.20494208346648     -0.44615004057973
  N   2.09680221889385     -2.19085894749016     -0.78206599716156
