13
Coordinates from ORCA-job run
  C   -0.77265514062869     -0.17477659174305     -0.04276535340321
  C   0.67108438570115      0.08829091862350     -0.60607004787338
  Br  -1.74305019970224     -1.11532293061197     -1.46333977263061
  H   0.54901884288153      0.65621119991377     -1.53665616347020
  C   -0.67141014978539     -1.05362393530856      1.12312372008333
  N   -0.55454079679352     -1.73230545305464      2.07580665545334
  N   -1.50366783078271      1.00119546687515      0.30594919866519
  H   -1.10880162274743      1.46267484481963      1.11797265486030
  H   -1.58564383739918      1.64391609714827     -0.47239843016893
  C   1.39882225494286     -1.14775389915789     -0.89487454638378
  N   1.98326749451660     -2.14183879760331     -1.11787755228193
  C   1.40199982166220      0.91356666526257      0.36059441922886
  N   1.93457677813480      1.59976641483652      1.15153521792101
