13
Coordinates from ORCA-job run
  C   -0.76914960702476     -0.18547602867152     -0.02864815218936
  C   0.66566284155318      0.07560873921273     -0.61436898816666
  Br  -1.74148293473263     -1.18528869241423     -1.40673896555233
  H   0.52662989357492      0.61301004877207     -1.56060895131202
  C   -0.64841966138063     -1.02223018210727      1.16594749968693
  N   -0.51989803168047     -1.66420156079787      2.14243351338445
  N   -1.51150232826380      0.99331599729795      0.28637930978822
  H   -1.11190023810430      1.48930169138983      1.07551926871708
  H   -1.61126310788466      1.60566474175212     -0.51411783856627
  C   1.40501877934117     -1.15996273181708     -0.87389204218898
  N   1.99874973668772     -2.15251939447480     -1.07880366725778
  C   1.39584228223317      0.93881368183385      0.31907938232998
  N   1.92271237568114      1.65396369002420      1.08781963132673
