13
Coordinates from ORCA-job run
  C   -0.70675083803708     -0.11758172888394     -0.14514919579927
  C   0.75648491505884      0.12982652991007     -0.60715766633644
  Br  -1.65059847677746     -0.98640223567272     -1.61504572548165
  H   0.68604551404502      0.73970904476082     -1.51528351547584
  C   -0.72434524957174     -1.03710375560163      1.00139644457655
  N   -0.74515916047014     -1.71635390672470      1.96204612516153
  N   -1.31968328184136      1.16593554181827      0.09026127171989
  H   -2.31841063538183      1.05827662950757      0.22760798914530
  H   -0.92501137347585      1.59059602398379      0.92570529232260
  C   1.46639119381411     -1.11637972330884     -0.89983055395566
  N   2.04377172296161     -2.10999853724119     -1.14127837951338
  C   1.45916523717269      0.89516706679203      0.42880027318488
  N   1.97710043250322      1.50630905066047      1.28792764045158
