13
Coordinates from ORCA-job run
  C   -0.69462794697757     -0.09093041937437      0.06314334782140
  C   0.68505936121447      0.08611523326837     -0.63116892095292
  Br  -1.82625498225092     -1.13695049745403     -1.23384040914767
  H   0.50843638335251      0.64436555070978     -1.55967396962574
  C   -0.56395837499221     -0.91931721009331      1.25892655887957
  N   -0.45130946879666     -1.56836711837938      2.23251912828690
  N   -1.21527506985919      1.17788626394468      0.39401289596179
  H   -1.41250221298033      1.73714262547141     -0.42751894672172
  H   -2.04012342977669      1.11934618946854      0.97772349268205
  C   1.30282024945006     -1.19802182120284     -0.96893971123773
  N   1.81513886825140     -2.22316074785687     -1.22466842694609
  C   1.57800816927510      0.87048340247304      0.23030683219297
  N   2.31558845409004      1.50240854902502      0.89017812880722
