13
Coordinates from ORCA-job run
  C   -0.69450978118622     -0.25487034465599     -0.07264166151624
  C   0.83988057166158     -0.46647796835380     -0.21490382917692
  Br  -1.57888400215410     -1.29818136216650     -1.46511473977310
  H   1.05549005633058     -1.53462081972683     -0.09352829635307
  C   -1.12289984706292     -0.81127014284368      1.22108528277861
  N   -1.46244722459475     -1.19544204544900      2.28019587631955
  N   -0.99903983733805      1.13384219467357     -0.27589571102348
  H   -0.61730708747839      1.69408691741579      0.48150002503898
  H   -2.00053267109880      1.28166579231330     -0.32003233263466
  C   1.51944268380477      0.28110571540225      0.85013761277243
  N   2.01573139708154      0.89850779922525      1.71757135314592
  C   1.31266125843114     -0.02724369042039     -1.53020058131186
  N   1.73141448360359      0.29889795458609     -2.57717299826612
