13
Coordinates from ORCA-job run
  C   -0.77372992576310     -0.16516410692477     -0.03257691901496
  C   0.66312610069263      0.09259390612327     -0.61479635724288
  Br  -1.77866532949996     -1.06660412672521     -1.45488859312405
  H   0.53137424254205      0.68194702660677     -1.53069314353386
  C   -0.66563311535634     -1.06774720026712      1.11431543631282
  N   -0.54922709654220     -1.76593968757871      2.05285271254845
  N   -1.48474642604517      1.01240325702131      0.35083401984411
  H   -1.07343778760940      1.45093413960040      1.16747938940709
  H   -1.56783117561298      1.67297372006876     -0.41255864735029
  C   1.37049653359931     -1.14490122588585     -0.94475327290545
  N   1.93691456416533     -2.14042262707258     -1.20502473743849
  C   1.42039929195477      0.88859185100908      0.35591484818853
  N   1.97196012347507      1.55133507402464      1.15389526430900
