13
Coordinates from ORCA-job run
  C   -0.70298447444211     -0.23156214829868     -0.06833646531022
  C   0.82188574790248     -0.48347522003020     -0.24493229877701
  Br  -1.64173332012230     -1.19975696025434     -1.47945122158832
  H   1.00750758831394     -1.56089547858557     -0.16251460958905
  C   -1.12562155347774     -0.82014330110776      1.21294573547910
  N   -1.45693836484397     -1.23267035410480      2.26394737837628
  N   -0.96885948312061      1.17160645418435     -0.21888726088337
  H   -0.55854588565235      1.69404476981770      0.55049347319834
  H   -1.96602298317111      1.35036257789792     -0.24127156491721
  C   1.54100251555942      0.20975015097561      0.83068821741305
  N   2.06929998024578      0.78578234966488      1.70765649780382
  C   1.28522298768190     -0.01513688086767     -1.55358978500619
  N   1.69578724512669      0.33309404070853     -2.59674809619926
