13
Coordinates from ORCA-job run
  C   -0.71039927928506     -0.18149377420948      0.08854627757983
  C   0.83520624852353      0.03891575547482     -0.10554515980143
  Br  -1.48166548126973     -0.55885959291403     -1.67089947690271
  H   1.24856053090913      0.18910767641723      0.90166502152786
  C   -0.88192251403836     -1.35993895410056      0.94020029218306
  N   -0.97518628670781     -2.28131302803212      1.66427013822833
  N   -1.40554550224015      0.92821584811362      0.65876048216890
  H   -1.30115787533932      1.76843422983093      0.10209770887284
  H   -1.13766371955572      1.09141663376933      1.62221636232109
  C   1.06110448012872      1.26223253480287     -0.87674090707439
  N   1.20134310737424      2.27309999769749     -1.45789484061453
  C   1.50379256498861     -1.11489919292324     -0.70682134700231
  N   2.04553372651195     -2.05391813392689     -1.15885455148654
