13
Coordinates from ORCA-job run
  C   -0.70429078007697     -0.09061684911482     -0.12059963203879
  C   0.79382075123530     -0.16334194190723     -0.53291299991720
  Br  -1.68315313039481      0.53054098395930     -1.78015519635407
  H   0.87188272824899     -0.75756535900101     -1.44966833483616
  C   -1.20327040730337     -1.43809346706664      0.14438312479437
  N   -1.59525842993085     -2.52401210149799      0.36575022657594
  N   -0.86384396394892      0.73265607162127      1.00642725660470
  H   -1.79949489593094      0.70190307228253      1.39012434358277
  H   -0.58265316084995      1.69116529671788      0.83360137873585
  C   1.57270120146568     -0.80833281970586      0.53030820825920
  N   2.20031927077446     -1.34293159732875      1.36653538813713
  C   1.30301209010151      1.18661010480600     -0.79023629066466
  N   1.69022872660993      2.28201860623532     -0.96155747287906
