13
Coordinates from ORCA-job run
  C   -0.69264411289078     -0.09859103337423      0.05764096885487
  C   0.68595302619397      0.12946881935144     -0.62366166317828
  Br  -1.81872127093856     -1.06625032046289     -1.30319917606624
  H   0.50632798449819      0.74490124318385     -1.51475741431269
  C   -0.55782522719562     -1.00076445096104      1.19846203629901
  N   -0.45020705239045     -1.71356237568470      2.12707237209899
  N   -1.22045938527875      1.14380152090541      0.46828018698138
  H   -1.42318342427632      1.75180110085058     -0.31645460369760
  H   -2.04361532193674      1.04331646481457      1.04864505662251
  C   1.30989146292740     -1.12682216162996     -1.04494565653381
  N   1.83257774107521     -2.12422233335146     -1.37794037620887
  C   1.57496750900714      0.86084188683707      0.28679625460445
  N   2.29893807120531      1.45508163952138      0.99506201453626
