13
Coordinates from ORCA-job run
  C   -0.77506516542676     -0.16354871759648     -0.03795377854447
  C   0.66497552052271      0.10031000977731     -0.60926706417348
  Br  -1.77209735706975     -1.05106910106833     -1.47428822272851
  H   0.53840465340613      0.69921230638215     -1.51966005435400
  C   -0.67268103495663     -1.07759876449879      1.10044343382084
  N   -0.55721072554005     -1.78869269834729      2.02938881543225
  N   -1.48870959614148      1.00997428498621      0.35323423554804
  H   -1.57148942806235      1.67613970369163     -0.40508209162143
  H   -1.07984758908569      1.44277359008848      1.17410966434397
  C   1.37544459760629     -1.13259138073425     -0.94977364335528
  N   1.95380230582642     -2.11451440881543     -1.23428506962059
  C   1.41598666902090      0.88401035809945      0.37623237226847
  N   1.96948714990032      1.51659481803533      1.19690140298416
