13
Coordinates from ORCA-job run
  C   -0.72100045938995     -0.16035605185973     -0.02478501780413
  C   0.84038118991229      0.01543170262455      0.05358258315183
  Br  -1.16769074203952     -0.71132004007848     -1.84884660368448
  H   1.06383881532373      0.26478316661967      1.10045204187370
  C   -1.08795002558379     -1.23793971587780      0.89597201763515
  N   -1.34790857929384     -2.07412537086286      1.68021542044097
  N   -1.47104128591006      1.01470004946026      0.28876469342805
  H   -1.37118157500378      1.28082472305523      1.26154738093077
  H   -1.24149885493057      1.78620274797539     -0.32692388614180
  C   1.24765939238904      1.14590100455583     -0.78196293219940
  N   1.53428713051823      2.06917509134413     -1.44877398145423
  C   1.56936821033639     -1.20446327398941     -0.29261294682566
  N   2.15273678367177     -2.18881403296676     -0.55762876935077
