13
Coordinates from ORCA-job run
  C   -0.70780183455684     -0.12910373831042      0.03561147531307
  C   0.68124832962788     -0.19560329571015     -0.66131739744147
  Br  -2.02886513249698      0.25761269140104     -1.44861266705168
  H   0.61210682964227     -0.89234264738369     -1.50372301814250
  C   -1.06380972792506     -1.45385542674297      0.53847909339767
  N   -1.33964767369666     -2.52077265449995      0.94784010389845
  N   -0.69060946282714      0.81412665741396      1.07637401013108
  H   -0.50678598359523      1.75543805793855      0.74796533804179
  H   -1.52820209259237      0.79387356723170      1.64343389741475
  C   1.69191400173542     -0.68013563608158      0.28575868532557
  N   2.50080368437743     -1.09345893803998      1.02999644606900
  C   1.04856332973220      1.13163341336355     -1.16334472868839
  N   1.32808573257509      2.21258794941999     -1.52746123826733
