13
Coordinates from ORCA-job run
  C   -0.64002850663848     -0.26718651284309      0.19308066402674
  C   0.83314234373102     -0.40577910663542     -0.28730232448668
  Br  -1.67190660017918     -1.66441589833331     -0.84606603624038
  H   1.12841742089205     -1.45691862626875     -0.19982485138547
  C   -0.73634095589359     -0.67301003618339      1.59340017271986
  N   -0.80487654019275     -0.99407998915024      2.72219771101413
  N   -1.08953945003065      1.05272149429175      0.02235197908389
  H   -1.99128558325146      1.22287811399316      0.44810728414719
  H   -1.09504420121572      1.34203682857855     -0.94917027756253
  C   1.71080322044851      0.41508531412321      0.55472168905128
  N   2.42359305894674      1.04755047994679      1.24088762081903
  C   0.93783980453537      0.00825368343406     -1.68924196552834
  N   0.99522598884816      0.37286425504671     -2.80414166565875
