13
Coordinates from ORCA-job run
  C   -0.64894347811635     -0.07783421567077     -0.08303373934154
  C   0.89356652796384      0.04220130981081      0.06574650401742
  Br  -1.08679678066625     -0.52526678972117     -1.92656434979032
  H   1.08553136781488      0.31613337388915      1.11344017519598
  C   -1.11907734000073     -1.18149832371895      0.76804750458428
  N   -1.51612682101926     -1.99904327842103      1.51554003851161
  N   -1.22382802262118      1.20730946970412      0.22454570835690
  H   -1.15818662320379      1.39015640197973      1.22185490367016
  H   -2.20015102601915      1.23748853309468     -0.04537860050969
  C   1.41715561783350      1.11043200550128     -0.78878901092003
  N   1.87905406400711      1.96031987309843     -1.45388067584054
  C   1.56793711971937     -1.23039817692981     -0.20075951104986
  N   2.11086539430796     -2.25000018261648     -0.41176894688433
