15

C	0.0	0.0	0.0
C	-0.494784	0.128676	-1.431148
Br	1.947044	0.0	0.0
H	-1.541184	0.43195	-1.345178
H	0.081432	0.92352	-1.907808
N	-0.374559	1.235073	0.831386
O	-0.490043	1.076052	2.036919
O	-0.437844	2.290033	0.218447
C	-0.426073	-1.20546	0.698092
N	-0.586235	-2.244328	1.224811
C	-0.405819	-1.186317	-2.191268
H	-0.664503	-1.015383	-3.239139
H	0.594671	-1.625886	-2.157168
H	-1.125673	-1.895853	-1.782202
Cl	-3.375761	0.0	0.0
