15

C	0.0	0.0	0.0
C	-0.491234	0.146615	-1.431045
Br	1.94682	0.0	0.0
H	-1.539558	0.444657	-1.344727
H	0.082438	0.951702	-1.893855
N	-0.372613	1.224361	0.846021
O	-0.483908	1.046431	2.04966
O	-0.437611	2.28781	0.248562
C	-0.426915	-1.213564	0.683436
N	-0.568095	-2.271035	1.178253
C	-0.389658	-1.154505	-2.21297
H	0.621697	-1.570837	-2.20747
H	-1.082782	-1.889289	-1.800373
H	-0.676415	-0.973442	-3.251152
Cl	-3.368677	0.0	0.0
