15

C	-0.45427	0.0518	-1.45122
C	0.0	0.0	0.0
F	-0.203462	-1.191274	-2.023347
H	1.088548	0.0	0.0
H	-0.375669	0.858448	0.561015
C	-1.898055	0.319098	-1.605611
N	-3.018188	0.617764	-1.791526
C	0.359951	1.088412	-2.20506
H	0.146248	2.091208	-1.829654
H	0.1027	1.039928	-3.264846
H	1.420805	0.870066	-2.059386
N	-0.529262	-1.219427	0.67065
O	-1.712443	-1.495044	0.470033
O	0.23251	-1.849041	1.393952
Br	3.589866	0.0	0.0
