15

C	-0.567827	-0.004761	-1.414613
C	0.0	0.0	0.0
F	0.11776	0.871808	-2.232565
H	1.089447	0.0	0.0
H	-0.358139	-0.869555	0.550543
C	-0.381173	-1.368575	-1.956538
N	-0.277539	-2.463211	-2.368233
C	-2.046394	0.354809	-1.483544
H	-2.39371	0.266986	-2.513923
H	-2.635575	-0.309703	-0.848235
H	-2.175668	1.386085	-1.155131
N	-0.466365	1.184388	0.760616
O	-0.962479	0.986038	1.871328
O	-0.326282	2.288419	0.239162
Br	3.444733	0.0	0.0
