15

C	-0.469077	-0.077628	-1.434569
C	0.0	0.0	0.0
F	-1.863623	-0.228556	-1.451318
H	1.090889	0.0	0.0
H	-0.361734	-0.878293	0.533215
C	-0.165253	1.105953	-2.259789
N	0.075193	1.94862	-3.041351
C	0.163554	-1.298451	-2.075134
H	-0.137738	-2.189608	-1.521538
H	-0.169359	-1.385568	-3.109607
H	1.24859	-1.204192	-2.033172
N	-0.520713	1.169495	0.744341
O	-0.515127	2.262223	0.18308
O	-0.904926	0.96762	1.896044
Br	3.428904	0.0	0.0
