15

C	-0.46333	0.108613	-1.445692
C	0.0	0.0	0.0
F	-0.28922	-1.128638	-2.054577
H	1.088558	0.0	0.0
H	-0.354421	0.855758	0.580002
C	-1.888881	0.474557	-1.584426
N	-2.985312	0.859984	-1.75215
C	0.410222	1.119331	-2.171607
H	0.272143	2.117428	-1.751451
H	0.140924	1.135599	-3.229798
H	1.455829	0.826103	-2.043581
N	-0.549682	-1.213932	0.662107
O	-1.723306	-1.500538	0.418291
O	0.183395	-1.821641	1.430383
Br	3.528847	0.0	0.0
