15

C	-0.568964	0.048291	-1.413746
C	0.0	0.0	0.0
F	0.116213	0.955256	-2.197365
H	1.087914	0.0	0.0
H	-0.361933	-0.88785	0.517652
C	-0.386981	-1.292098	-2.012184
N	-0.299439	-2.352579	-2.507329
C	-2.04659	0.414285	-1.464534
H	-2.397808	0.366724	-2.496173
H	-2.635718	-0.270745	-0.851547
H	-2.170561	1.433046	-1.097229
N	-0.473054	1.157655	0.795844
O	-1.03831	0.919225	1.865695
O	-0.278659	2.281065	0.337177
Br	3.446891	0.0	0.0
