15

C	-0.470041	0.121259	-1.450915
C	0.0	0.0	0.0
F	-0.368892	-1.177072	-1.963097
H	1.090798	0.0	0.0
H	-0.388461	-0.914069	0.444572
C	-1.901061	0.482953	-1.539056
N	-3.041936	0.744534	-1.634628
C	0.397018	1.022932	-2.302349
H	0.297392	2.056357	-1.977005
H	0.0961	0.929574	-3.348048
H	1.435512	0.710565	-2.172714
N	-0.448392	1.124271	0.852072
O	-0.641847	0.880142	2.040364
O	-0.564849	2.235056	0.331747
Br	3.465053	0.0	0.0
