15

C	-0.566421	0.041697	-1.414534
C	0.0	0.0	0.0
F	0.118681	0.945709	-2.202462
H	1.089482	0.0	0.0
H	-0.356977	-0.88798	0.521064
C	-0.37676	-1.303202	-2.000877
N	-0.278169	-2.381644	-2.454138
C	-2.045896	0.399292	-1.474903
H	-2.179058	1.418536	-1.113014
H	-2.63402	-0.288274	-0.863492
H	-2.390384	0.343977	-2.508521
N	-0.462404	1.157399	0.803406
O	-0.922337	0.921868	1.922121
O	-0.348802	2.277439	0.309875
Br	3.442746	0.0	0.0
