15

C	-0.463184	-0.001661	-1.451117
C	0.0	0.0	0.0
F	-0.181685	-1.233731	-2.023865
H	1.089425	0.0	0.0
H	-0.378078	0.889502	0.503514
C	-1.926679	0.190164	-1.564851
N	-3.079161	0.37625	-1.698554
C	0.291806	1.069134	-2.218068
H	1.361458	0.884641	-2.090061
H	0.050728	2.061534	-1.831837
H	0.019993	1.01804	-3.273767
N	-0.557645	-1.166719	0.723725
O	-1.611147	-0.982119	1.345034
O	0.035549	-2.237289	0.632576
Br	3.513963	0.0	0.0
