16
Coordinates from ORCA-job run
  C   -0.69170647464653      0.14766470626709     -0.41213489555644
  C   0.73331407572766      0.18457013350411      0.18503337630616
  Cl  -0.65597867115918     -0.60845575220090     -2.04075449321472
  H   0.64124224618957      0.80437366900114      1.09106045929487
  C   -1.65490164333077     -0.64545690372053      0.46100874899016
  H   -2.66488767468107     -0.59753026460297      0.05361689735229
  H   -1.66630541610111     -0.22939604964510      1.47312979352792
  H   -1.33602412113855     -1.68732270773677      0.48912467587972
  C   -1.16335034023952      1.52486086267888     -0.56389529946103
  N   -1.58241958971831      2.62061007247067     -0.61924530892808
  N   1.60518234182139      0.88907807291896     -0.71493358434556
  H   2.46500364589321      1.15741053712382     -0.25484744211262
  H   1.81927138251320      0.31197576422994     -1.51935586602510
  N   1.16593282231644     -1.17956953947536      0.47586573981521
  H   2.17658868476527     -1.19901546756768      0.52555225549878
  H   0.80903873178828     -1.49379713324527      1.37077494297842
