16
Coordinates from ORCA-job run
  C   -0.68233136970716      0.09836847677481     -0.38710839842141
  C   0.70226592937103      0.18663993727914      0.28491650288278
  Cl  -0.51931187732628     -0.84125818497259     -1.92515647588382
  H   0.53881122940996      0.77011565238472      1.19872070369666
  C   -1.71343723840495     -0.59406657554661      0.49093980851520
  H   -1.82706587438405     -0.03096710786741      1.42120067853746
  H   -2.67737448326594     -0.63282481945864     -0.01757253611790
  H   -1.37011298765485     -1.59905839271476      0.72632471553847
  C   -1.13833639774634      1.44364515933087     -0.73795886755938
  N   -1.57368798348444      2.51076828600792     -0.96408793234619
  N   1.58662968863117      0.96683891937854     -0.55877782768617
  H   2.44195086929551      1.18548647278166     -0.06342730184578
  H   1.82555562866747      0.44990003491866     -1.39699973217180
  N   1.10987972804616     -1.14546697445419      0.70385463054105
  H   1.90535756045306     -1.07777248823835      1.32673496249396
  H   1.39120757809965     -1.69034839560377     -0.10360293017313
