16
Coordinates from ORCA-job run
  C   -0.70134821849297     -0.08371343951132     -0.54096423733026
  C   0.82610185224203     -0.01868012566495     -0.29658029627380
  Cl  -1.05450021014015     -1.49569470099009     -1.61248835501953
  H   1.29010328286060      0.10942702764416     -1.28561078215042
  C   -1.50117353268489     -0.22265373355105      0.74447339610628
  H   -1.33375684216835      0.66103736318455      1.36263776901533
  H   -2.56502202759359     -0.29630023723911      0.51700974671563
  H   -1.17686700836665     -1.11239391530805      1.28197129338090
  C   -1.09755288359171      1.11856576645499     -1.27383281743804
  N   -1.42584056009908      2.07842046630109     -1.86554091581715
  N   1.25611077477602     -1.21827732504359      0.40694257371644
  H   2.26128594929979     -1.17767012669996      0.52995570719569
  H   1.04642680619360     -2.04767831289741     -0.13650047845295
  N   1.09045993942843      1.16707864194293      0.48709548878733
  H   1.13430639544705      0.92207794366440      1.46859002768729
  H   1.95226628288988      1.61645470771343      0.21284187987727
