16
Coordinates from ORCA-job run
  C   -0.69391960571600      0.14155338815055     -0.41014322890664
  C   0.73292433023953      0.18986292878013      0.18182019384957
  Cl  -0.65919343466847     -0.62069869758491     -2.03602147219984
  H   0.63990722776448      0.81239171978731      1.08592617203992
  C   -1.64914775458594     -0.65410321307422      0.46937882715361
  H   -1.66037293258007     -0.23371072754521      1.47969023282756
  H   -1.32359424261568     -1.69380870742629      0.50109145019676
  H   -2.66055175581477     -0.61462405645364      0.06464422620778
  C   -1.17485276774081      1.51515412678513     -0.56586446033682
  N   -1.60070987141318      2.60813155523358     -0.62413676731402
  N   1.59702827881017      0.89650918912760     -0.72375235491738
  H   2.45650423229096      1.17303711625357     -0.26812180229676
  H   1.81196545319035      0.31812957786594     -1.52701702227775
  N   1.17527517072636     -1.17047980137987      0.47602061114845
  H   2.18617597955700     -1.18330484403980      0.52225892912063
  H   0.82356169255607     -1.48403955447987      1.37322646570494
