16
Coordinates from ORCA-job run
  C   -0.69013143457506     -0.24081819557583     -0.39693646049763
  C   0.71869462101676     -0.30272783019609      0.23204480095424
  Cl  -0.98358016923673     -1.77030990951924     -1.30963760054842
  H   0.68631065139232     -1.13853755708506      0.94835554371320
  C   -1.77737526860550     -0.10600451083435      0.65955914358576
  H   -2.76046806800178     -0.09715431892491      0.18773663224347
  H   -1.62034283479343      0.81660854896810      1.21602668110136
  H   -1.72299728199878     -0.95518904893532      1.34408029856536
  C   -0.74814345933450      0.87430336655864     -1.34153365584118
  N   -0.81521764067186      1.81071624553282     -2.04756711858086
  N   0.91689452283813      0.91755963548286      0.98359453549856
  H   1.60327751691693      0.78318978726148      1.71443894260938
  H   1.25345596158124      1.63686640934847      0.35141618724621
  N   1.71817407307231     -0.44716419527851     -0.81382544342555
  H   1.58412824676210     -1.30363986719440     -1.33767783884007
  H   2.63832056363786     -0.47869855960868     -0.39107464778383
