16
Coordinates from ORCA-job run
  C   -0.71918553423500     -0.22990134983496     -0.34806889293358
  C   0.71880162972944     -0.32019618694168      0.20619924522204
  Cl  -1.11769679435120     -1.78365049639107     -1.17589955361024
  H   0.69583767442422     -1.12494740497752      0.95746368075749
  C   -1.74051713621816     -0.00930569698723      0.75844105949136
  H   -1.52052996663543      0.92951136521142      1.26402731191653
  H   -1.67823880111807     -0.83003835642567      1.47610520318570
  H   -2.74743387609374      0.01655320367118      0.34062897082299
  C   -0.78972836014606      0.84589240517018     -1.33655573755783
  N   -0.86405243949146      1.75326975901664     -2.07876077568837
  N   1.00255110120335      0.92122625492787      0.89328742917232
  H   1.33007674918836      1.59948807488624      0.21271615652930
  H   1.72379078130773      0.79010050777091      1.59025760424422
  N   1.65338513328417     -0.54517294932596     -0.88463091300818
  H   2.59334394891223     -0.59747339925966     -0.51026612198580
  H   1.45859589023962     -1.41535573051069     -1.36494466655798
