16
Coordinates from ORCA-job run
  C   -0.73201738544768     -0.06272592392935     -0.56751622976873
  C   0.80769418359060     -0.08009236305738     -0.39891349325010
  Cl  -1.20304896282630     -1.37325017988088     -1.70001981970894
  H   1.22304898374876     -0.03904101470159     -1.40950292101631
  C   -1.46690982480072     -0.27166709440738      0.74990232195104
  H   -1.21805508709704      0.52875205108909      1.45143521598666
  H   -2.54430662473980     -0.25463034755156      0.58459939966368
  H   -1.19527551714382     -1.24281923568632      1.16477829464883
  C   -1.13765025407416      1.20261464622548     -1.18199359377484
  N   -1.50535377362390      2.20305780708481     -1.67527513154294
  N   1.21398784676430     -1.34146061918175      0.19509530164671
  H   2.16178577740857     -1.57008836380055     -0.07376029901233
  H   1.18293867391641     -1.28589373584983      1.20587776851283
  N   1.18504131132140      1.15203510763459      0.27862018680345
  H   1.07296715881904      1.06076045885621      1.28153770251050
  H   2.15515349418432      1.37444880715641      0.09513529635050
