16
Coordinates from ORCA-job run
  C   -0.68689698068775      0.03564219393803     -0.41572064276124
  C   0.71570387750503      0.07877917858046      0.23823280471896
  Cl  -0.63931429722759     -0.98595532867303     -1.89020170401138
  H   0.56405839990861      0.63457274118392      1.17844486017961
  C   -1.72507661814132     -0.53385182086767      0.54078916446503
  H   -1.41255158071826     -1.53460286287834      0.83385602103277
  H   -1.79342206883087      0.09851216534904      1.43007807553566
  H   -2.70232972090764     -0.57276226396045      0.05876323730013
  C   -1.05775598535032      1.39272385021311     -0.82039138366797
  N   -1.32928740775717      2.50434804477477     -1.08819113711327
  N   1.66625148496219      0.70614280031508     -0.66542660760730
  H   1.40058093489259      1.66069652987457     -0.88342598242226
  H   2.57625811069211      0.73205823367587     -0.22126541605691
  N   1.10985650252159     -1.26078198452425      0.60056823553825
  H   1.81887094867053     -1.23775287298081      1.32192787837572
  H   1.49505440046828     -1.71876860402031     -0.21803740350579
