16
Coordinates from ORCA-job run
  C   -0.63021756022141      0.02973009826696     -0.40762312451093
  C   0.79694001371843      0.15086263591344      0.21576810024094
  Cl  -0.58426322918146     -1.04542273450544     -1.84076301354698
  H   0.64067251540217      0.74857746660324      1.13079552274931
  C   -1.63466862864221     -0.53350167354461      0.58915555625721
  H   -2.62860287834531     -0.57877062135787      0.14374982670571
  H   -1.67436829121272      0.10010075317534      1.47918198031657
  H   -1.34110145604513     -1.54450141432063      0.87427140954768
  C   -1.05861975856884      1.35724343168292     -0.84673414882993
  N   -1.39377938884702      2.44710295246508     -1.13227074443399
  N   1.68883447131270      0.75592033471054     -0.74574338499439
  H   2.62282846817143      0.73961634564559     -0.35626016681546
  H   1.43204781955034      1.71531962521804     -0.94349488320486
  N   1.40174108137816     -1.09003717819905      0.62073101270722
  H   0.90793158778413     -1.52791869482948      1.38559596675853
  H   1.45462523374675     -1.72432132692406     -0.16735990894663
