16
Coordinates from ORCA-job run
  C   -0.66457777116526     -0.22411156742445     -0.35360331407840
  C   0.78589223539668     -0.38983797570793      0.17556962541203
  Cl  -1.14629566233335     -1.75715639489540     -1.17486560153533
  H   0.74203299225266     -1.23242163463219      0.88550088521832
  C   -1.66386505105799      0.03226812347972      0.76710000521472
  H   -1.46698041692901      0.99826613709712      1.23495725272091
  H   -1.58808872925951     -0.76071188156642      1.51445825782783
  H   -2.67971551193085      0.04437190932259      0.37168099158075
  C   -0.70594321702629      0.86112887737157     -1.33207777097291
  N   -0.75736292369978      1.78928140457666     -2.05042887453850
  N   1.28636197084860      0.75971155025541      0.88796210852562
  H   1.28607971668554      1.57684412657468      0.28797544505460
  H   0.77628677977496      0.94616915379583      1.73922432693773
  N   1.67792266826360     -0.58571268517062     -0.94487380775473
  H   1.49104343428123     -1.45927440505668     -1.41894077688999
  H   2.62620948589878     -0.59781473801989     -0.59063875272266
