16
Coordinates from ORCA-job run
  C   -0.72037999995037     -0.30939579310625     -0.38761812139109
  C   0.69563620686351     -0.40975279591390      0.22917806301020
  Cl  -1.10855300266832     -1.84423637308616     -1.22757501605419
  H   0.66811964864217     -1.27418836905533      0.90034975576425
  C   -1.79502469011422     -0.05437030952429      0.66200996827130
  H   -1.76060974921454     -0.85588408417127      1.40289201229965
  H   -1.61098120163737      0.89486147512894      1.16102016269281
  H   -2.78012329557943     -0.05114232187942      0.19415949530120
  C   -0.69961991956497      0.76830384641622     -1.37932728000569
  N   -0.61364059645602      1.67470518356932     -2.12258652122646
  N   0.89744985692253      0.77872554291026      1.05311054502054
  H   1.70448054400040      0.64298158419925      1.65031551872443
  H   1.09113410368947      1.57914152766165      0.45866033873354
  N   1.66377746823963     -0.69515354388942     -0.80994610760222
  H   1.82177917109367      0.12423715377060     -1.38681643412924
  H   2.54755545573386     -0.96883272303018     -0.39982637940903
