16
Coordinates from ORCA-job run
  C   -0.69863644579512     -0.24249814722645     -0.38009470284921
  C   0.71918000654288     -0.30398297549339      0.22764113173011
  Cl  -1.02083788250018     -1.78903971523593     -1.25355081538506
  H   0.69027759004257     -1.12306915499925      0.96311537260673
  C   -1.76758305160447     -0.07372735895604      0.69000075584000
  H   -1.59359746255357      0.85965639789603      1.22286849185940
  H   -1.70976290619886     -0.90769268493800      1.39266412059924
  H   -2.75797228947551     -0.06651403009813      0.23373057164968
  C   -0.76117382092879      0.85143831278174     -1.34915878482817
  N   -0.83115694550278      1.77153838410041     -2.07590350791740
  N   0.94123831743183      0.93119397673790      0.94773473170575
  H   1.63796502317727      0.80632379390440      1.67041194260888
  H   1.27554413349589      1.63165156995303      0.29357292306291
  N   1.70053139495919     -0.48231380582901     -0.83029138021112
  H   2.62661740345992     -0.51476530371265     -0.42077675702295
  H   1.54936693544973     -1.34919925888466     -1.33196409344880
