16
Coordinates from ORCA-job run
  C   -0.66053894932356      0.13527852212096     -0.35038255259084
  C   0.79919127850019      0.10146317368323      0.20103825883396
  Cl  -0.70664087729116     -0.51645995517069     -2.01976391234495
  H   0.74334483193494      0.65313986853142      1.15445191186803
  C   -1.62004806949440     -0.67056149604964      0.51390221263575
  H   -2.64578669754784     -0.55768027324889      0.16178826103602
  H   -1.56507337581111     -0.32599073690412      1.55106089096086
  H   -1.34651543645234     -1.72432186712590      0.45793155950546
  C   -1.07060340592083      1.53912167931401     -0.40821913618863
  N   -1.35319946835630      2.67978870983405     -0.40047476940083
  N   1.78125461039569      0.76912819824890     -0.61411225556893
  H   1.60886389583287      1.76555597106096     -0.65437079033288
  H   1.75753905570894      0.39332561854269     -1.55509191230251
  N   1.21545978663245     -1.27806691212453      0.34721359919618
  H   0.83828900549739     -1.68714650605964      1.19232196600683
  H   2.22546381569507     -1.27757399465281      0.42170666868648
