16
Coordinates from ORCA-job run
  C   -0.65761528671366     -0.06793636715926     -0.58526021723654
  C   0.88345289288168     -0.16609179442369     -0.35851712498456
  Cl  -1.13810597607293     -1.27738492700604     -1.82013139157833
  H   1.33111395019585     -0.20964494385283     -1.35545985077325
  C   -1.46576278533155     -0.31936947549398      0.68079270966869
  H   -1.17927036240800      0.38736070721392      1.46477187319703
  H   -2.53004602788387     -0.19234340234705      0.48185296251693
  H   -1.29159817573273     -1.34137922018857      1.01599852676473
  C   -0.96277362787873      1.25632253193891     -1.12969041002027
  N   -1.17151808617211      2.33908601978540     -1.53597760604042
  N   1.16453416864156     -1.41401252554150      0.31374700453555
  H   1.01964752043534     -1.30547958436287      1.31188481829177
  H   2.14545641919572     -1.63100889930160      0.18681496752029
  N   1.46042400470767      0.98390205663125      0.31867049148126
  H   1.04392786477855      1.12483678640628      1.23188521369758
  H   1.34713350735721      1.83514303770162     -0.21938196704047
