16
Coordinates from ORCA-job run
  C   -0.64424516903349     -0.23556281301769     -0.38221262519723
  C   0.78818635752284     -0.37269575730989      0.20162910837770
  Cl  -1.05460621381343     -1.76928733379242     -1.24045366079558
  H   0.73752046736206     -1.22559761485293      0.89873361154442
  C   -1.69272161660027     -0.01896491785159      0.70147371449367
  H   -2.69233202198911     -0.02691864885033      0.26651484606980
  H   -1.53867755185568      0.94543407681763      1.18836352964332
  H   -1.62604669126327     -0.81959224115475      1.44153293705909
  C   -0.67547005274912      0.86121572649188     -1.34790009775435
  N   -0.72286751715913      1.79745329991104     -2.05596993107088
  N   1.23143521283611      0.77909312385408      0.94760852191915
  H   0.68397347137826      0.94150324218647      1.78050142250819
  H   1.23442486288112      1.60408651600530      0.35835006550461
  N   1.72796784945467     -0.53142296238281     -0.88515789603419
  H   1.58178665759348     -1.40283301824085     -1.37715119933781
  H   2.66167195543496     -0.52491067781315     -0.49386234692990
