16
Coordinates from ORCA-job run
  C   -0.65239102073959     -0.08682147572848     -0.54081497082280
  C   0.89308150862694     -0.04070557762219     -0.30981583360437
  Cl  -0.98653026223040     -1.41981817279876     -1.70315012854767
  H   1.34590672568554      0.00861888039087     -1.31109530263636
  C   -1.44588333255671     -0.32181649909514      0.73366078721048
  H   -1.19211094799539      0.45385851618908      1.45692876078816
  H   -1.19992876581315     -1.30129446758973      1.14524733730147
  H   -2.51570788502703     -0.29864552954301      0.52418609138989
  C   -1.05885825479264      1.16410539774706     -1.17870712168263
  N   -1.33168503614881      2.20152431994183     -1.65947297854025
  N   1.45231855500300     -1.18733332024975      0.35535457125056
  H   1.06737757640279     -1.27635916242001      1.28774019803077
  H   1.28917141493880     -2.03827166949484     -0.16603030689394
  N   1.16981591038705      1.10687095742390      0.53473533794763
  H   1.01730920045405      1.97355033790288      0.03237865931172
  H   2.14711461380555      1.06153746494631      0.79885489949734
