16
Coordinates from ORCA-job run
  C   -0.67438814173160     -0.27091466789684     -0.32509772626930
  C   0.76346277607525     -0.34858442383158      0.26842689485546
  Cl  -0.98946243538367     -1.79105918799458     -1.23680209853089
  H   0.74879857049592     -1.20888375567337      0.94661552733714
  C   -1.74309330654649     -0.12290980733733      0.74777371510167
  H   -1.66028386937530     -0.95832738835514      1.44618886920562
  H   -2.73767330975231     -0.13590549799311      0.30001193307552
  H   -1.58663650288797      0.80723749283679      1.29130677870208
  C   -0.71398969055190      0.83992579461657     -1.27540202227996
  N   -0.66865215242161      1.77001170942301     -1.99275832733096
  N   0.95828858898628      0.84989509884870      1.05979243526895
  H   1.05266176586445      1.65247586563186      0.44334270490601
  H   1.84027530455362      0.75537592664663      1.55051467229089
  N   1.83292020698240     -0.56529384953716     -0.68336963425080
  H   1.72498031686633     -1.44860222050599     -1.16661950803520
  H   1.84979187882661      0.17655891112154     -1.37592421404622
