16
Coordinates from ORCA-job run
  C   -0.68856991386012      0.12475440575301     -0.37918641364360
  C   0.80518069923297     -0.28548974369641     -0.21870013861118
  Cl  -1.01523348624765      0.38450207792229     -2.13043377705476
  H   0.90768829319536     -1.22388942532422     -0.77475121599279
  C   -1.64669875988488     -0.93886296641584      0.13664344315557
  H   -2.68003235225976     -0.64389980367704     -0.05059307510295
  H   -1.44774468540946     -1.87701213000809     -0.38567277402950
  H   -1.48444438125168     -1.08821155946182      1.20268050278869
  C   -0.88611613326388      1.39959890581930      0.30964389006235
  N   -0.96632617827948      2.40346007761938      0.91589097901268
  N   1.01733406839302     -0.56550570234395      1.18731159747369
  H   1.00383764060110      0.30428078599184      1.71300400135165
  H   1.94936026690817     -0.95129295889611      1.28785538496840
  N   1.77974576672985      0.64307069260187     -0.75286103723849
  H   1.68620511749711      1.55154635912213     -0.30992256262874
  H   1.66681403789932      0.76395098499364     -1.75190880451101
