16
Coordinates from ORCA-job run
  C   -0.63245990376685      0.02319589961172     -0.40802178847772
  C   0.79348673736901      0.15862174382776      0.21632025361216
  Cl  -0.57467016450944     -1.04911331886421     -1.84244106345904
  H   0.63017156093096      0.75481127270735      1.13108470086548
  C   -1.63110357039089     -0.55220687657109      0.58777852598678
  H   -2.62405086552015     -0.60869039277403      0.14148439849187
  H   -1.67883161873406      0.08095248895892      1.47754949157282
  H   -1.32666755701936     -1.55972937790474      0.87306004852730
  C   -1.07228883665677      1.34781028076900     -0.84450302862679
  N   -1.39182718617008      2.44158534455852     -1.13298489162891
  N   1.68039223355442      0.77212279570137     -0.74448289299078
  H   1.41432659278515      1.72901254078495     -0.94246012598839
  H   2.61365348947137      0.76537647664432     -0.35284947490256
  N   1.41009141708887     -1.07639868260335      0.62143887151078
  H   0.91898020536608     -1.52048144804292      1.38437707456495
  H   1.47079746620174     -1.70886874680358     -0.16735009905795
