16
Coordinates from ORCA-job run
  C   -0.62744159105629     -0.06426486400812     -0.56142410496817
  C   0.90396559398792     -0.08943581625264     -0.27018785523319
  Cl  -0.99266425796850     -1.38434027699957     -1.73750397573679
  H   1.39752620811976     -0.01103826136661     -1.25080379626911
  C   -1.48986154908774     -0.25670987088109      0.67639849096395
  H   -1.21828218851163     -1.19204003364004      1.16175890692838
  H   -1.32821961050578      0.56879043458120      1.37299031534789
  H   -2.54466453822463     -0.27111013125260      0.40040973639925
  C   -0.94030320330623      1.20450416125764     -1.21773751829422
  N   -1.18487846522608      2.24969286809478     -1.69607073121662
  N   1.22002972372500     -1.30042350643658      0.45928909426151
  H   1.07827769792353     -2.11564791074143     -0.12405358986285
  H   2.19957491771916     -1.25386362480347      0.71324914921902
  N   1.37065792591537      1.01194738870620      0.53496250444086
  H   0.93624913911857      0.99720399754636      1.44900221022149
  H   1.21703419737756      1.90673544619596      0.08872116379860
