16
Coordinates from ORCA-job run
  C   -0.61619062328258      0.10116185437521     -0.42008487211503
  C   0.91810382141128     -0.19722120167542     -0.24821734588885
  Cl  -0.96219092991058      0.30946915719452     -2.17629712816747
  H   1.09332620252835     -1.11195995240701     -0.82738225189162
  C   -1.49912216531238     -1.02634692157975      0.09689321366280
  H   -2.54518391104379     -0.83559181496755     -0.14437583020966
  H   -1.40612850939609     -1.11659477774771      1.17996713223367
  H   -1.19843926564340     -1.96474908218896     -0.37542009835468
  C   -0.91292882611591      1.35824141632696      0.26181616124326
  N   -1.07799852178178      2.34608612015356      0.87725302645539
  N   1.27154283340891     -0.45678792932780      1.12659592463305
  H   0.88611646641833     -1.32709298984278      1.46242223562220
  H   0.98580300905371      0.29755745057579      1.74059763704544
  N   1.78387917198293      0.83888223758031     -0.75559830128383
  H   1.48730029170685      1.15114342553689     -1.67079205824983
  H   1.79311095597615      1.63380300799375     -0.12737744473484
