16
Coordinates from ORCA-job run
  C   -0.60878896769091      0.10625474894233     -0.42971877369069
  C   0.91976523837403     -0.20655870818966     -0.23368061810432
  Cl  -0.92556090951520      0.31312814270487     -2.19171644180427
  H   1.09510826247322     -1.12397441535576     -0.80847811424443
  C   -1.51020461855564     -1.01152379247010      0.07638987531057
  H   -1.43494607119957     -1.09921209491130      1.16105273638531
  H   -2.55046430396668     -0.81180493180920     -0.18204266531540
  H   -1.21076247450335     -1.95406809230098     -0.38840284596556
  C   -0.90372404313518      1.36775503791216      0.24467834427807
  N   -1.06873311337495      2.35884669173969      0.85485999302075
  N   1.24942186091143     -0.46656498108998      1.14676451749855
  H   0.85227063925621     -1.33332488849901      1.47802952073063
  H   0.96083648037505      0.29102211219800      1.75540933290210
  N   1.80340223864384      0.82012950936657     -0.72999798207506
  H   1.52255897809572      1.13353131017740     -1.64980236430051
  H   1.80982080381198      1.61636435158497     -0.10334451462575
