12
Coordinates from ORCA-job run
  C   0.43132697360569      0.13341042407527      0.63118634744368
  C   -0.47784644989706     -0.18845944465514     -0.53965619410222
  Cl  0.03237079400631      1.69636778840974      1.34999990441053
  H   -0.38621061718928      0.61768794075160     -1.27735616001370
  H   0.37702453282220     -0.62831664859975      1.40406573633041
  H   -0.09888124956983     -1.11067778925152     -0.99168294421419
  N   1.85452284101892      0.15180713746989      0.14748153720536
  O   2.14969931820936      0.99003849657739     -0.69658467139833
  O   2.59079659965064     -0.72219061466374      0.59921617522818
  N   -1.82032176704022     -0.43243671091288     -0.03555517315658
  H   -2.29703261594786      0.44533387645533      0.12588000394093
  H   -2.35644835966889     -0.95356445565618     -0.71599456167409
