12
Coordinates from ORCA-job run
  C   0.58911410744542     -0.33850960511256      0.67663188024690
  C   -0.56193200714480     -0.68423642618509     -0.25164122912706
  Cl  0.02382575541327      0.24091026817941      2.23871700709916
  H   -1.17215618960554     -1.44850997856349      0.24888345103952
  H   1.24872924017106     -1.18936633247012      0.84261346745567
  H   -0.12412901987124     -1.12902940678477     -1.14715707067237
  N   1.44424998362960      0.70102071550056     -0.02347118369619
  O   1.49691345486024      1.84223257260358      0.39869920439221
  O   2.00978376527753      0.25582116555095     -1.01776848176272
  N   -1.26151448409585      0.53016003935886     -0.62727452424890
  H   -1.87042268249184      0.84334694191581      0.11695037717455
  H   -1.82246192358786      0.37616004600686     -1.45318289790077
