12
Coordinates from ORCA-job run
  C   0.49251551993128      0.19757742173542      0.60889369340271
  C   -0.52439812261457     -0.14777811282694     -0.47289855797682
  Cl  0.20419489850856      1.79652758535878      1.27807987700032
  H   -0.18427648153028     -1.06889474299103     -0.95796176715516
  H   0.48624043085312     -0.53112810846420      1.41493299538165
  H   -0.49403964396335      0.65192188211920     -1.21921141090102
  N   1.86303132703833      0.12046069390366     -0.00987297082483
  O   2.21320212724961      1.02972695865736     -0.75169396158651
  O   2.48003499760948     -0.91970256174222      0.21198737360865
  N   -1.83166997209493     -0.31741236331159      0.13589886797953
  H   -2.22985022415632     -1.21620740620097     -0.08850826021536
  H   -2.47398485683093      0.40490875376254     -0.15064587871314
