12
Coordinates from ORCA-job run
  C   0.39330428875719      0.17434508636360      0.55865877129469
  C   -0.49412134360012     -0.20307716945173     -0.63034921620085
  Cl  0.01935050413560      1.78728378455740      1.16557654129290
  H   -0.12166761386244     -1.15660255780289     -1.01903305559770
  H   0.31211187709961     -0.53140396105415      1.38309082509609
  H   -0.34924740203704      0.55365948682582     -1.40437534263229
  N   1.82790325495478      0.10828780112662      0.10963956780989
  O   2.46756958324620     -0.85977912393207      0.51554818230862
  O   2.21411457846373      0.96226874195380     -0.67864361065956
  N   -1.90310645445566     -0.33050974172429     -0.34263543836210
  H   -2.07758893592129     -1.04819702059198      0.34846441725550
  H   -2.28662233678056      0.54272467372987     -0.00694164160519
