12
Coordinates from ORCA-job run
  C   0.49042869185691     -0.06520873617967      0.59756263917201
  C   -0.52521146785509     -0.02100077746911     -0.52814406631730
  Cl  0.11918149204021      1.12198110238510      1.85126834786328
  H   -0.53645515415970      0.99457038684543     -0.94164361012975
  H   0.54046551020064     -1.04935478847620      1.05529321249870
  H   -0.16718491691896     -0.70279268624228     -1.30624379837501
  N   1.85407425531353      0.21350980957121      0.03081242617168
  O   2.66241164634847     -0.71052182191038      0.08560607540423
  O   2.03256944811346      1.30857443050167     -0.49009295069060
  N   -1.79977734988942     -0.51161513749570     -0.02747695106848
  H   -2.38672026860011     -0.80013785522638     -0.79834296482901
  H   -2.28478188644995      0.22299607369630      0.47140164030024
