12
Coordinates from ORCA-job run
  C   0.52040607042841     -0.23818035481442      0.73831979897833
  C   -0.87979223060399      0.05034619446907      0.23890535147233
  Cl  0.76958323598656      0.35773853286138      2.38387377060082
  H   -1.04063418037599      1.12751858995485      0.30117697317299
  H   0.77249882282875     -1.29520562925245      0.70311616405272
  H   -1.58811135868901     -0.43254253848682      0.91914639768564
  N   1.51477717245432      0.43367796058026     -0.17321193524528
  O   2.49281032802091     -0.23056017530873     -0.49734209847025
  O   1.27327787077867      1.58726454931053     -0.50852313022082
  N   -0.96835605034004     -0.43046941305511     -1.13176838519310
  H   -1.27922404346149      0.29511242154131     -1.75942901604731
  H   -1.58723563702708     -1.22270013779986     -1.21626389078607
