12
Coordinates from ORCA-job run
  C   0.43150952078448      0.10009721322329      0.54896491871172
  C   -0.53781829631618     -0.11758160272078     -0.61570202762234
  Cl  0.10446300683988      1.61196198550765      1.39538899687964
  H   -0.19481377741892     -1.00468903916964     -1.15821179161545
  H   0.40783274355711     -0.71232327927304      1.27263352785349
  H   -0.44813472115695      0.74059626550807     -1.28518626513926
  N   1.83042021475216      0.10696233331948     -0.00535328924993
  O   2.49523792573956     -0.90280381681645      0.21697526096956
  O   2.16128122658597      1.06346280504356     -0.69479613726310
  N   -1.92318788972614     -0.29695543365457     -0.25009573045192
  H   -2.28043221134162      0.51633240858302      0.23287879633283
  H   -2.04835774229936     -1.10705983955060      0.34250374059476
