12
Coordinates from ORCA-job run
  C   0.56952411296240     -0.33767494982681      0.65702080742890
  C   -0.87930192165107     -0.11169832585072      0.29026600493263
  Cl  0.88130455404351     -0.00853487873762      2.36643492703912
  H   -1.17663873901238      0.89025104027428      0.61397471114076
  H   0.89927976136218     -1.34729663436857      0.42489278563716
  H   -1.46733385126805     -0.83834272762231      0.85574902446820
  N   1.45707445312757      0.56704198003076     -0.16044031460989
  O   1.00573553777428      1.66698879881656     -0.46847762427414
  O   2.57025557504245      0.13597486374902     -0.43644585229310
  N   -1.01718050401808     -0.35992061128022     -1.13782187502741
  H   -1.91929764111923     -0.76063448451958     -1.35028523824560
  H   -0.92342133724358      0.50484592933521     -1.65286735619662
