12
Coordinates from ORCA-job run
  C   0.54221531387805     -0.33191348333522      0.68429445987196
  C   -0.57633436892625     -0.78006109193234     -0.26739191621401
  Cl  -0.08959995885290      0.27452691150084      2.20774624203767
  H   -0.09079390504439     -1.22369891803114     -1.14094837847183
  H   1.24449797983386     -1.13788759373414      0.89115583604833
  H   -1.12961370503110     -1.57154988263910      0.24427460846022
  N   1.34546904811229      0.72411021716388     -0.03390257556401
  O   2.13354497556864      0.26723778165921     -0.85872524334344
  O   1.10682796302737      1.90706992089286      0.16726289352523
  N   -1.49880995907759      0.23797735088451     -0.70413239583131
  H   -1.04461745297758      0.94173993060129     -1.27030147488038
  H   -1.94378593051039      0.69444885696934      0.08066794436157
