16

C	-0.268945	-0.081025	-1.48412
C	0.0	0.0	0.0
F	-0.129443	1.15042	-2.053586
H	1.095383	0.0	0.0
H	-0.314705	-0.951905	0.441075
N	0.558096	-1.000322	-2.195404
H	0.31272	-1.934347	-1.890587
H	1.510298	-0.816339	-1.857607
N	-1.729218	-0.48483	-1.73746
O	-2.534696	0.386806	-2.045616
O	-2.003089	-1.669245	-1.544
C	-0.606044	1.193399	0.713684
H	-1.70091	1.196966	0.682575
H	-0.24818	2.121013	0.265705
H	-0.292602	1.187944	1.760841
H	2.939171	0.0	0.0
