16

C	-0.379431	0.108788	-1.450602
C	0.0	0.0	0.0
F	-1.740839	0.299699	-1.618795
H	1.093014	0.0	0.0
H	-0.385902	-0.93594	0.410955
N	0.295512	1.103431	-2.217323
H	0.007604	2.004537	-1.850799
H	1.29499	1.00026	-2.028257
N	-0.086442	-1.253103	-2.099612
O	0.906287	-1.350652	-2.80704
O	-0.862004	-2.162092	-1.817576
C	-0.476312	1.196006	0.813407
H	-0.015342	2.119513	0.453307
H	-0.151302	1.072829	1.849089
H	-1.562834	1.313777	0.79827
H	2.929537	0.0	0.0
