16

C	-0.510446	0.02672	-1.40902
C	0.0	0.0	0.0
F	0.06387	-0.995312	-2.142177
H	1.090575	0.0	0.0
H	-0.343666	0.90206	0.508181
N	-1.927379	0.006638	-1.542302
H	-2.163947	-0.144668	-2.517051
H	-2.301471	-0.74875	-0.984425
N	-0.100434	1.301899	-2.154943
O	-0.207001	1.254205	-3.378494
O	0.214359	2.286243	-1.505764
C	-0.455328	-1.257947	0.736391
H	-1.514796	-1.253194	1.021297
H	-0.252166	-2.147096	0.135008
H	0.137552	-1.350389	1.649051
H	2.978528	0.0	0.0
