18

C	-0.389195	-0.03976	-1.461618
C	0.0	0.0	0.0
Cl	-2.438171	-0.186074	-1.454825
H	1.094247	0.0	0.0
N	0.005373	1.029533	-2.222666
H	-0.297076	0.995808	-3.183008
H	-0.084666	1.927667	-1.772341
C	0.033524	-1.343931	-2.093492
H	1.119068	-1.411783	-1.950782
H	-0.202366	-1.337166	-3.160728
H	-0.455256	-2.198858	-1.634323
N	-0.371827	-1.124548	0.771789
H	0.399342	-1.774584	0.819842
H	-1.239754	-1.552194	0.487483
N	-0.453133	1.259994	0.668136
O	-0.151064	2.329022	0.115974
O	-1.031813	1.203555	1.748727
H	2.586791	0.0	0.0
