18

C	-0.554747	0.025215	-1.428537
C	0.0	0.0	0.0
Cl	0.41066	-1.270769	-2.339392
H	1.088035	0.0	0.0
N	-1.940226	-0.325893	-1.412455
H	-2.014737	-1.234623	-0.964082
H	-2.267157	-0.418352	-2.367986
C	-0.326812	1.314199	-2.189147
H	-0.951457	2.102957	-1.768717
H	-0.598945	1.167418	-3.238121
H	0.720231	1.605597	-2.121838
N	-0.485191	-1.148982	0.709929
H	0.257884	-1.456269	1.329895
H	-1.283392	-0.87478	1.271283
N	-0.398456	1.272516	0.689405
O	-1.273212	1.23724	1.567455
O	0.216065	2.292036	0.372062
H	2.695355	0.0	0.0
