18

C	-0.506366	0.015848	-1.456629
C	0.0	0.0	0.0
Cl	-0.072698	-1.630462	-2.107668
H	1.093437	0.0	0.0
N	-1.942833	0.137733	-1.584689
H	-2.345443	-0.494245	-0.89575
H	-2.170954	1.088259	-1.305642
C	0.224903	1.003752	-2.345995
H	1.298666	0.894319	-2.181237
H	-0.066718	2.022217	-2.098217
H	-0.020754	0.79232	-3.388099
N	-0.476549	-1.173778	0.719773
H	0.294028	-1.835571	0.702482
H	-0.572063	-0.884568	1.686651
N	-0.39691	1.186583	0.726334
O	-0.600391	2.249054	0.104777
O	-0.401351	1.135014	1.973855
H	2.52779	0.0	0.0
