18

C	-0.379995	-0.045968	-1.461742
C	0.0	0.0	0.0
Cl	-2.332695	-0.522027	-1.549295
H	1.090923	0.0	0.0
N	-0.143869	1.113873	-2.179201
H	-0.345274	1.012662	-3.162821
H	-0.578231	1.92297	-1.761335
C	0.30786	-1.225357	-2.110738
H	1.381106	-1.092937	-1.924461
H	-0.018643	-2.169747	-1.682759
H	0.102231	-1.239039	-3.18429
N	-0.344727	-1.149164	0.769291
H	0.477114	-1.727989	0.889755
H	-1.122382	-1.660309	0.376946
N	-0.426825	1.225425	0.738593
O	-0.141231	1.262117	1.931144
O	-0.968028	2.169992	0.139227
H	2.583556	0.0	0.0
