18

C	-0.610964	-0.006998	-1.4108
C	0.0	0.0	0.0
Cl	0.294854	1.110393	-2.530813
H	1.090864	0.0	0.0
N	-0.43718	-1.339394	-1.932066
H	-0.653759	-1.98275	-1.1774
H	-1.056064	-1.478418	-2.721504
C	-2.065789	0.455569	-1.428278
H	-2.466204	0.359533	-2.442258
H	-2.163509	1.492957	-1.112872
H	-2.643278	-0.19318	-0.760564
N	-0.313436	-1.223308	0.714171
H	0.578392	-1.543395	1.095853
H	-0.898623	-0.989831	1.508071
N	-0.359695	1.17267	0.775486
O	-0.373016	2.276693	0.205961
O	-0.483589	1.045231	2.011754
H	2.450294	0.0	0.0
