16

C	-0.555118	0.011309	-1.400187
C	0.0	0.0	0.0
F	-0.165045	1.131498	-2.061536
H	1.094792	0.0	0.0
H	-0.324728	-0.932563	0.472946
N	0.005469	-1.185403	-2.165875
O	-0.384051	-2.280567	-1.757267
O	0.752749	-0.988731	-3.11026
N	-1.985858	-0.099414	-1.579573
H	-2.410247	0.693176	-1.112192
H	-2.289697	-0.94538	-1.112414
C	-0.463206	1.210707	0.802884
H	-1.542005	1.228611	1.000945
H	-0.182576	2.132952	0.289716
H	0.057767	1.208375	1.763541
H	2.956745	0.0	0.0
