16

C	-0.240453	-0.153075	-1.473682
C	0.0	0.0	0.0
F	-0.13273	-1.512372	-1.822094
H	1.096963	0.0	0.0
H	-0.392014	-0.870902	0.528556
N	-1.6819	0.109083	-1.945209
O	-2.591991	-0.035956	-1.133711
O	-1.843099	0.370767	-3.135808
N	0.61992	0.667376	-2.201697
H	1.557074	0.573237	-1.793484
H	0.614947	0.456338	-3.191956
C	-0.474446	1.322333	0.593486
H	0.006432	1.460534	1.566571
H	-0.161075	2.155343	-0.042193
H	-1.558308	1.365228	0.727285
H	2.941788	0.0	0.0
