14
Coordinates from ORCA-job run
  C   -0.72393756708325     -0.07691910197612      0.06688110999174
  C   0.55252770948588      0.18724833932159     -0.34591115968989
  N   -1.86309458974260      0.30986310113867     -0.62900729254814
  H   -1.66212102930202      0.82525248672542     -1.47454477255334
  H   -2.55200405609188      0.78225242626932     -0.06019639769502
  N   -0.97704303823591     -0.88111577086830      1.16019411371308
  H   -1.94397635447344     -1.07167359740666      1.36133251926109
  H   -0.38493674608663     -0.76388500975503      1.96396571337228
  C   0.72509721380086      1.12813981485627     -1.39409523632566
  N   0.84953082193554      1.91024162350725     -2.26781311371124
  C   1.75843645818878     -0.45745217235057      0.28551788377278
  H   2.57583794902836     -0.52911550279468     -0.43406263186076
  H   2.13225939436134      0.10714639877514      1.14744970906106
  H   1.51242383421498     -1.46898303544231      0.61928955521202
