14
Coordinates from ORCA-job run
  C   -0.74217141569170     -0.00353249419983      0.12581319433393
  C   0.52272316219983      0.19077941974486     -0.35386136739814
  N   -1.86788273148141      0.65456417745314     -0.34727845491798
  H   -2.65451503406012      0.03731422626205     -0.49200239147189
  H   -1.69076955202439      1.24151594948771     -1.15008111499192
  N   -1.03781882522613     -0.87790756876951      1.15770552381079
  H   -0.24064769317150     -1.30653744930806      1.59910911517296
  H   -1.70423598181393     -0.50988264784783      1.82088807867942
  C   0.65892579997155      0.92964825840192     -1.55875631004552
  N   0.74752673780454      1.55200019256829     -2.55624637410544
  C   1.75499065542026     -0.37339263423197      0.30852034229720
  H   1.90586407562062     -1.43334364159727      0.07734384380773
  H   1.70515749351828     -0.26377090150853      1.39650339375193
  H   2.64385330893412      0.16254511354504     -0.02665747892305
