14
Coordinates from ORCA-job run
  C   -0.69243635078114      0.09630251861310      0.21240210701410
  C   0.51434347041888      0.10308342987461     -0.43014998673907
  N   -0.81341698045908     -0.34521271421948      1.51548163492395
  H   -0.30345476283176     -1.17450964186639      1.76704802206084
  H   -1.72511646023229     -0.26006038409530      1.93224185744265
  N   -1.85686943904187      0.64265317430646     -0.31345063205973
  H   -1.73473054374657      1.04125752684760     -1.23375031031063
  H   -2.65564667382379      0.02482873671353     -0.27733853077406
  C   0.52709494003056      0.44278917955793     -1.80806284823204
  N   0.52012490994355      0.72953170087205     -2.95190206374288
  C   1.80212616151996     -0.26001219928189      0.26140259543458
  H   2.64555519485740      0.25275149562031     -0.20456445016574
  H   1.76182826782693      0.04262044325589      1.31104672384210
  H   2.01159826631920     -1.33502326619841      0.22159588130593
