14
Coordinates from ORCA-job run
  C   -0.74457112373987      0.01456085778305      0.13529704341040
  C   0.52113959392730      0.16997092998631     -0.35438474963750
  N   -1.06045657540936     -0.82029187366835      1.19303550178218
  H   -0.27699216903058     -1.25851348901950      1.64946258419370
  H   -1.72158257536710     -0.41619984451107      1.84155433259225
  N   -1.86035717362817      0.68591919433838     -0.35088160936550
  H   -2.64662672653789      0.06692215938987     -0.49677158169574
  H   -1.66813798974543      1.24066615936330     -1.17509726919154
  C   0.66931112424115      0.86329306503891     -1.58514216944952
  N   0.78324404591762      1.45163743225645     -2.60059590509374
  C   1.75367481430677     -0.39612293354498      0.30674799775054
  H   1.95608524108731     -1.42631623057638     -0.00901129966080
  H   2.62909733466859      0.20105626575534      0.04814097493078
  H   1.66617217930965     -0.37758169259133      1.39764614943450
