14
Coordinates from ORCA-job run
  C   -0.70894281175180      0.05470315943056      0.21393015701138
  C   0.59118488094284      0.32297606818648     -0.12260702708302
  N   -1.48047789902672      0.89416401624272      0.96799436462251
  H   -2.47032492243047      0.74788260918638      1.02780847013720
  H   -1.04764606982136      1.54121530890204      1.60194021127975
  N   -1.38765770022999     -1.05941569115285     -0.25981588573608
  H   -1.91432296359822     -1.56219024604569      0.43941855031689
  H   -0.83668744592608     -1.67210780893992     -0.83880232074940
  C   1.11585811115342      1.58187586422816      0.26358091204898
  N   1.53558176821175      2.62884069303668      0.60778870115792
  C   1.47078207478963     -0.67711125525674     -0.83348288087382
  H   2.50342985149900     -0.32587319330714     -0.84697292929222
  H   1.45788240697933     -1.65483719039822     -0.34098494601413
  H   1.17234071920866     -0.81812233411245     -1.87879537682597
