14
Coordinates from ORCA-job run
  C   -0.71929211547814     -0.08365300354277      0.10827046678971
  C   0.53874208482027      0.11521228510740     -0.38601053171439
  N   -1.88419586803039      0.14514321717260     -0.61650567497742
  H   -1.71568027432951      0.44920516804115     -1.56554207851123
  H   -2.54584363580176      0.74705170741114     -0.14677778380204
  N   -0.92779756632815     -0.67606908169912      1.34414042911124
  H   -1.89604255230836     -0.78473640151278      1.59499710761316
  H   -0.34629515991181     -0.33694977809663      2.09411816324713
  C   0.66050680563005      0.85323689696716     -1.59319550421569
  N   0.74084824703735      1.46421469812248     -2.59856487385225
  C   1.78127309948083     -0.37448580774352      0.30981803874569
  H   2.19459018903832      0.37015806499834      0.99861581644263
  H   1.55909079485817     -1.28199681101610      0.87735066018191
  H   2.56009595132314     -0.60733115420934     -0.41971423505845
