14
Coordinates from ORCA-job run
  C   -0.71932632752631     -0.07575420176201      0.09927319739626
  C   0.54198212178986      0.11996622754213     -0.39080587249730
  N   -1.88117600888248      0.12251359174598     -0.63773030684759
  H   -2.57139483095432      0.69254610087246     -0.16900062972455
  H   -1.70754401044499      0.44853446703823     -1.57822542203689
  N   -0.92926149786022     -0.63124281380658      1.34717239854434
  H   -0.33422013731615     -0.31055837680751      2.09235029520412
  H   -1.88967587924939     -0.77947172579177      1.60804452339165
  C   0.66924484518516      0.80498679365613     -1.62728064564657
  N   0.75474826956744      1.37312411608647     -2.65699708484929
  C   1.77473434100649     -0.34499239845058      0.33843197250375
  H   2.58538374804503     -0.54773464224377     -0.36321882904912
  H   1.56172356386208     -1.26850878528368      0.88374523554715
  H   2.14378180277781      0.39759164720451      1.05524116806402
