14
Coordinates from ORCA-job run
  C   -0.74747368429941     -0.05037920755619      0.06893226289602
  C   0.53540517246632      0.22375574701988     -0.31439231802035
  N   -1.87278793231296      0.28469396185489     -0.66944085654835
  H   -2.60778955545526      0.69129659423686     -0.10793564515822
  H   -1.67307020110125      0.83372650164082     -1.49328410686085
  N   -1.06549659751796     -0.71106466812272      1.24320478138876
  H   -0.27959881545105     -1.05987428835484      1.76742157648415
  H   -1.80223538657543     -1.39298703966800      1.13645703374029
  C   0.71565924447015      1.10785174654786     -1.41057567791169
  N   0.83988908076456      1.83952523722979     -2.32678952652231
  C   1.74681917794219     -0.32964858000861      0.39450307526213
  H   1.97828397999627      0.21754320041812      1.31453958809928
  H   1.60888845790848     -1.38545210640511      0.64844820370843
  H   2.62350705916536     -0.26698709883274     -0.25108839055729
