14
Coordinates from ORCA-job run
  C   -0.62938683575101     -0.07066897769964      0.36331551517051
  C   0.59496945341006      0.30369920913124     -0.11631284798096
  N   -1.34816167470209      0.65232341642082      1.30833396865251
  H   -2.30914042603698      0.82670430364933      1.04844847605111
  H   -0.88333001169694      1.49873992577923      1.60568661346541
  N   -1.19270496634223     -1.28935083620779      0.03786897120920
  H   -1.11857170160392     -1.58685062058538     -0.91975022373017
  H   -2.06528976893833     -1.50835010046587      0.48804556176627
  C   1.03148950907529      1.62684401979971      0.15508656073810
  N   1.37790850915012      2.72829026860167      0.39428215722059
  C   1.46264039582162     -0.61442122133777     -0.93606721936135
  H   1.27192779546633     -0.52297440144953     -2.01118194754839
  H   1.28915288197176     -1.65305711889579     -0.64316387987958
  H   2.51849684017632     -0.39092786674023     -0.77359170577326
