14
Coordinates from ORCA-job run
  C   -0.65403161888306     -0.05916448054238      0.31742860462610
  C   0.61532256618280      0.28206301352333     -0.05908402498775
  N   -1.39911347648198      0.63518599482921      1.26318916560910
  H   -2.33242010124869      0.87245908046327      0.95653036048901
  H   -0.91746761440333      1.43681422235122      1.64535667454583
  N   -1.25139946439532     -1.22209987428526     -0.12765934531479
  H   -1.12520692508214     -1.46282918173449     -1.09555015844246
  H   -2.16066148120603     -1.42840023223096      0.25015309973103
  C   1.09823405262215      1.55783283433194      0.33316555987746
  N   1.48158382542608      2.62039234230313      0.67166685366991
  C   1.48781205350034     -0.62797529766547     -0.88278477813089
  H   1.26258127680526     -1.67219190844277     -0.65059941636591
  H   2.54217775895919     -0.45279176745746     -0.66170865229263
  H   1.35158914820474     -0.47929474544329     -1.96010394301402
