14
Coordinates from ORCA-job run
  C   -0.72099122036683     -0.07600913933328      0.08456895677356
  C   0.54463505040183      0.20224217868578     -0.35155038277904
  N   -0.94727421081027     -0.93805530881668      1.13982749400750
  H   -0.33724067588742     -0.85720519886818      1.93512747790044
  H   -1.91006410474674     -1.13250366736779      1.35699095032420
  N   -1.87706061858857      0.35532929275867     -0.55494863328190
  H   -2.54533662571582      0.80006598957359      0.05899107725605
  H   -1.69756682671561      0.91443657941798     -1.37724297164134
  C   0.69221440595494      1.19863356093104     -1.35135323487126
  N   0.79230095360774      2.02630807693681     -2.18527198559872
  C   1.76287899336023     -0.48501768171884      0.20684669028142
  H   2.55785413244626     -0.52411590255549     -0.53986253411420
  H   1.51567887893527     -1.51150297373582      0.49086722303246
  H   2.16797186812497      0.02739419409220      1.08700987271083
