14
Coordinates from ORCA-job run
  C   -0.74353124674201     -0.01573608511766      0.12031978863507
  C   0.52290322599779      0.20787744331063     -0.34234067104390
  N   -1.87328891065278      0.64153601614001     -0.34457661090461
  H   -1.69597150157372      1.25936419751123     -1.12358061995654
  H   -2.64992823638478      0.01921392443631     -0.51748596915860
  N   -1.03932525401240     -0.92251308892282      1.12354762627878
  H   -1.71096789149867     -0.57953207197668      1.79460103120922
  H   -0.24406710829891     -1.36582982720040      1.55319355751419
  C   0.66018999865221      0.97672295637213     -1.52830578933979
  N   0.75137905571872      1.62331337824809     -2.51001568285218
  C   1.75774391504524     -0.35767386863914      0.31421042039199
  H   2.63780332501884      0.21726114920047      0.02279375802130
  H   1.68580483133059     -0.30352008384008      1.40502145163067
  H   1.94025579739988     -1.40048403952208      0.03361770957440
