14
Coordinates from ORCA-job run
  C   -0.70500093795883      0.08143793839803      0.20451905310455
  C   0.52805318085420      0.06366075701839     -0.38895460430542
  N   -0.94894415426409     -0.51047033862135      1.43228550900233
  H   -0.52590874669266     -1.40729606675750      1.59398001500354
  H   -1.87834521994951     -0.40406533253959      1.79774302176368
  N   -1.77909022729890      0.80676351821900     -0.28504490712557
  H   -2.64401816823640      0.28842728082789     -0.33435126284278
  H   -1.58389457042821      1.32248432058917     -1.13034801936969
  C   0.61693852574348      0.61268214281045     -1.69663769792448
  N   0.70272325420781      1.06831581313097     -2.78133433116704
  C   1.80150236272680     -0.39513456318451      0.27040372629118
  H   1.61576646315916     -0.98208715197504      1.17321239006077
  H   2.41065382625848      0.46320145024923      0.56400420081948
  H   2.38856441187868     -1.00791976816513     -0.41947709331055
