14
Coordinates from ORCA-job run
  C   -0.71013874781429      0.04162705192072      0.16415408522891
  C   0.61600400488458      0.27557574871220     -0.07216986141674
  N   -1.57909886069380      0.97610058376948      0.71438688652820
  H   -2.12504932372089      0.62568984354293      1.48920808324921
  H   -1.13478629017998      1.85520889561743      0.93939342423354
  N   -1.32491377286116     -1.12016053711269     -0.26197795428078
  H   -2.31460474987811     -1.18461417832383     -0.09318402819931
  H   -0.81410153646796     -1.97716500658166     -0.13642138893962
  C   1.19638569165189      1.43002593454865      0.51481584831011
  N   1.65898455283700      2.39612833055685      1.00792483019833
  C   1.46717431772304     -0.65150578408434     -0.89936119544928
  H   1.92230420034522     -1.44952196627052     -0.30162705359589
  H   0.86264004368508     -1.11355949130719     -1.68443199668103
  H   2.27920047048937     -0.10182942498805     -1.37870967918566
