14
Coordinates from ORCA-job run
  C   -0.73186205694553      0.08759323121025      0.15399870667665
  C   0.52448710942887      0.10882105968784     -0.38375821963241
  N   -1.07411569831182     -0.67204257051603      1.25924907095530
  H   -0.31004501380111     -1.15525493854432      1.70259691198924
  H   -1.66874374470530     -0.18742039847684      1.91558895630191
  N   -1.80086829800614      0.82813712927228     -0.32867300011710
  H   -2.65378511302945      0.29150951927537     -0.39975690972893
  H   -1.59674855260176      1.33537842724955     -1.17783098549446
  C   0.68271377290849      0.73154115294547     -1.65028457336252
  N   0.79024335651490      1.25865133449221     -2.69940498662702
  C   1.71875545402966     -0.53712967734037      0.27362135717518
  H   2.64295492980482     -0.11567652799454     -0.12396280123647
  H   1.72201354928462     -0.35615921368100      1.35309703594801
  H   1.75400030542974     -1.61894852757988      0.10651943715263
