14
Coordinates from ORCA-job run
  C   -0.71399020251532      0.02011958622237      0.18896911389744
  C   0.49879146205046      0.03639952618213     -0.44207116878699
  N   -0.87425375582202     -0.47277826243151      1.46627057261988
  H   -1.81763467131354     -0.56362453027858      1.80196370750028
  H   -0.18047442957740     -0.25517064340663      2.15860388668937
  N   -1.90899258107827      0.34946780471049     -0.43594919531187
  H   -1.81066418023349      0.59421047072229     -1.41041919061544
  H   -2.48867138597765      0.99694496963630      0.07669167469914
  C   0.59963960710162      0.71958784897358     -1.68156028134505
  N   0.70278515700453      1.31801555353240     -2.69261173526206
  C   1.75340051978456     -0.56458782814547      0.13599315861327
  H   2.39561096150776      0.18673836570007      0.60770713282151
  H   2.34259762383493     -1.03791383768898     -0.65159788962898
  H   1.50285587523384     -1.32840902372848      0.87801021410950
