14
Coordinates from ORCA-job run
  C   -0.71208625772195      0.01679048609510      0.12858524340847
  C   0.55295291366737      0.19468385479012     -0.36273434819759
  N   -1.83730606136700      0.65902201959236     -0.37534055770119
  H   -1.63461844205654      1.24209377116737     -1.17407815163999
  H   -2.61764518889389      0.04102325065859     -0.56168933015365
  N   -0.91947747778118     -0.68825342184311      1.30060549915342
  H   -1.88148438813951     -0.88834416460582      1.53242753476505
  H   -0.30568610533880     -1.47008819556625      1.44906170292968
  C   0.67927411764496      0.90539674724267     -1.58342506615444
  N   0.71790657439318      1.49308636858856     -2.60512412588496
  C   1.75210807980157     -0.28465068669152      0.40611307824354
  H   1.81708254477685     -1.37673199303641      0.45567494689628
  H   1.70837852173994      0.08769629633469      1.43412647957708
  H   2.67960116927498      0.06827566727364     -0.04420290524171
