14
Coordinates from ORCA-job run
  C   -0.74146798733255     -0.01151036140714      0.08122442546953
  C   0.53149617350286      0.14662930560431     -0.39856532159856
  N   -1.05324830800242     -0.90276001061529      1.09956035651623
  H   -1.65040170205642     -0.52511173011857      1.82087828204913
  H   -0.25877387415155     -1.38869335163618      1.48248616985527
  N   -1.83156113263557      0.61523242055568     -0.46643861607159
  H   -1.69446637177830      1.49096146569526     -0.94041932117779
  H   -2.73832449417348      0.44008987760933     -0.07386223592820
  C   0.69185026067200      0.93171105900383     -1.56853804876593
  N   0.80076184525597      1.60740315062811     -2.52898596899541
  C   1.74059190570985     -0.48381233487244      0.24680680973244
  H   1.83352829681765     -1.55063986044182      0.01487628126481
  H   2.65105499650210      0.00307108113760     -0.10491363839313
  H   1.71896039166986     -0.37157071114268      1.33589082604321
