14
Coordinates from ORCA-job run
  C   -0.69802823555190      0.10903843355784      0.18313989974518
  C   0.54329450422914      0.11572252264741     -0.38999583232305
  N   -0.91403029652442     -0.43960259073951      1.43242930533570
  H   -1.84433458100150     -0.34674379801203      1.80396625654509
  H   -0.45876388370441     -1.31359280570907      1.63247058528976
  N   -1.80549379498854      0.75570188133679     -0.35257761940903
  H   -1.61287741546207      1.22719107211537     -1.22523967818174
  H   -2.63044139274262      0.17540104048100     -0.41674636233371
  C   0.64734192659853      0.57489297794713     -1.72890869819370
  N   0.71287163253692      0.96324006838073     -2.84034049262909
  C   1.77321203063361     -0.36688619251961      0.33265402728317
  H   1.67853565580009     -0.17075798967136      1.40394734928084
  H   1.94829547456731     -1.43974577423988      0.19375463849877
  H   2.66041837560984      0.15614115442518     -0.02855337890818
