14
Coordinates from ORCA-job run
  C   -0.71019499116341      0.02069039296961      0.16864233122534
  C   0.60418337293370      0.29567663394407     -0.08857383428828
  N   -1.28338918369355     -1.17903121998313     -0.20835361863441
  H   -2.26800300540586     -1.27526033510878     -0.02524785343089
  H   -0.73895910412577     -2.01031218213094     -0.05309632852941
  N   -1.60974786227177      0.94185438569703      0.69082788920032
  H   -2.13871328361861      0.59919934781195      1.48077268059066
  H   -1.19723557854988      1.84430113767340      0.88182024357249
  C   1.14404017693353      1.49344758283904      0.44823475819714
  N   1.57259694777623      2.49536899263677      0.89883253170274
  C   1.48476273584930     -0.62915326299779     -0.88727562743348
  H   0.89304391854367     -1.14660477793082     -1.64717544459947
  H   2.26889471255568     -0.06653071590957     -1.39696779368545
  H   1.97772114423672     -1.38264597951084     -0.26243993388730
