14
Coordinates from ORCA-job run
  C   -0.70135279198260      0.04566142526761      0.19682512795432
  C   0.53663990990493      0.20634886362080     -0.36076842052519
  N   -1.83627463808105      0.73326713892365     -0.21639895288317
  H   -2.63600314976523      0.14082549839380     -0.39172032481924
  H   -1.66564788277597      1.36553081638786     -0.98581093356062
  N   -0.89017591524780     -0.72937940306826      1.32445825479166
  H   -0.39733716676888     -1.60489783680009      1.36538781980122
  H   -1.82245193015279     -0.74448163551344      1.70225309878897
  C   0.61792181633401      0.90758449413352     -1.59191747127245
  N   0.66399951538710      1.49742882271156     -2.61198269366261
  C   1.78684510703338     -0.35057367214067      0.26743554615145
  H   1.69135445942987     -0.34821293136758      1.35656868095750
  H   2.65344201272418      0.25798192802792      0.00337840628961
  H   1.99804065396085     -1.37608350857668     -0.05670813801145
