14
Coordinates from ORCA-job run
  C   -0.71855717634925     -0.10789254466460      0.07236825806186
  C   0.54176236950769      0.22163693083833     -0.34263107109948
  N   -1.87957228736613      0.26759281134736     -0.59302880896853
  H   -1.70786277863147      0.82613112385832     -1.41732335385345
  H   -2.57733470578428      0.68978594496092      0.00375324075763
  N   -0.92766483377041     -0.97074256933966      1.13127526900850
  H   -0.34231482389221     -0.84862653363161      1.94013682693813
  H   -1.88647989830351     -1.20190501355193      1.33042822390167
  C   0.66538660648152      1.21605015318606     -1.34767086893242
  N   0.74703150400230      2.04142269564369     -2.18592324632187
  C   1.77904649463651     -0.40682531856940      0.24256228661717
  H   2.58404310510175     -0.42567239626472     -0.49410519410539
  H   1.57000916450693     -1.43779383387557      0.54027626458455
  H   2.15150725986056      0.13583855006280      1.11888217341162
