14
Coordinates from ORCA-job run
  C   -0.74125276916001     -0.00509244208694      0.11753925618210
  C   0.50680255830018      0.03720767918383     -0.44516633497684
  N   -1.01853848335867     -0.66174856107844      1.31114181450808
  H   -0.22465896149225     -1.11461409336235      1.73227216121548
  H   -1.54416050584632     -0.11416436900623      1.97681398307647
  N   -1.85361941556477      0.51036158010350     -0.49886662388197
  H   -1.73189088125101      1.30010287363062     -1.11092756257730
  H   -2.73203033800269      0.43902265978869     -0.01692040021533
  C   0.60385967690988      0.56087201592789     -1.76298252171038
  N   0.66370292732885      1.02708232305935     -2.84415751282033
  C   1.76473648554070     -0.41542856709080      0.24843172590214
  H   2.01269883306825     -1.45876120944103      0.03807591058176
  H   2.60935836175594      0.19366862832259     -0.07886144418792
  H   1.68599251177193     -0.29950851795069      1.33360754890402
