14
Coordinates from ORCA-job run
  C   -0.71507856925311     -0.02280616301843      0.14543162444606
  C   0.53871639671058      0.25819840878485     -0.32187930559746
  N   -1.87795426364104      0.55407759529551     -0.35090375790182
  H   -1.71409875954827      1.20050104329560     -1.10996362269201
  H   -2.60292130070509     -0.11201213654483     -0.57906272897681
  N   -0.90884005486458     -0.81589464197853      1.25985479136691
  H   -0.33870146517650     -1.64051592140395      1.33844475106829
  H   -1.86020084929294     -0.92273136059556      1.56905943182687
  C   0.64109416648758      0.96923400731889     -1.54588940298589
  N   0.70442483153596      1.56465629038561     -2.56175477953891
  C   1.78837816560514     -0.17836309662771      0.39632888964003
  H   2.60890944886877      0.51151169126282      0.19200435161460
  H   1.61540838734479     -0.18793659514389      1.47581700880327
  H   2.11986386592872     -1.17791912103040      0.09251274892687
