14
Coordinates from ORCA-job run
  C   -0.66589540933328     -0.06136707465513      0.34746980207306
  C   0.56161609642352      0.32217443013693     -0.11555215598192
  N   -1.36372188099182     -1.14916088941551     -0.14899657948131
  H   -0.87137512162679     -1.70134430808367     -0.83196751954577
  H   -1.80317754942895     -1.70807772832006      0.56795772630766
  N   -1.34903757101402      0.57824993747863      1.37170582104529
  H   -2.32613788448245      0.72753819327408      1.16173657499862
  H   -0.89697585308943      1.41870286275629      1.70268724940613
  C   1.05378160994899      1.58510542457808      0.30819337360997
  N   1.44662043339076      2.63260015990293      0.68044972936359
  C   1.38373565225114     -0.49915065324180     -1.07684735296187
  H   2.43857579231569     -0.23174481149923     -0.99576763203803
  H   1.08550803210800     -0.34604587017444     -2.11974014201964
  H   1.30548365352861     -1.56747967273711     -0.85132889477576
