14
Coordinates from ORCA-job run
  C   -0.64917487921777     -0.04429887921923      0.33110131399079
  C   0.60720452404107      0.28968150879665     -0.09294647538968
  N   -1.22101260425045     -1.25882373297806      0.00715725738008
  H   -2.12234856087726     -1.44934723778716      0.41103104079628
  H   -1.09299931067033     -1.59002769961946     -0.93339517333073
  N   -1.39949961990720      0.71853737546274      1.21773178865001
  H   -0.93335228283069      1.56380114228352      1.51630219927980
  H   -2.34302416598456      0.90320573236942      0.90642335295770
  C   1.06378823945057      1.60684520929386      0.17299626615918
  N   1.42565180593620      2.70434106653087      0.40745909510377
  C   1.49028055294518     -0.67175048483315     -0.84400125873585
  H   1.32526619621043     -0.63422731126650     -1.92698802310149
  H   2.54297767694652     -0.44359519327037     -0.66861837691073
  H   1.30524242820829     -1.69434149576312     -0.50425300684913
