14
Coordinates from ORCA-job run
  C   -0.71098462042314      0.04103206666592      0.16017304635186
  C   0.54862737413899      0.19541008937911     -0.34857302966470
  N   -1.84087046345275      0.66356018552746     -0.35705588257391
  H   -2.61644758137776      0.03703146474042     -0.52202266904014
  H   -1.64899791158982      1.23915897229456     -1.16506918032803
  N   -0.93549893284042     -0.65335140100949      1.33345482063964
  H   -1.88564620420202     -0.66858757191401      1.66404161956245
  H   -0.42641041940600     -1.51120250234507      1.45958227847912
  C   0.67391403133894      0.80544528419340     -1.62387039024851
  N   0.75692756650510      1.31760537888205     -2.68280376430907
  C   1.77967636980822     -0.27994054596814      0.37741765125727
  H   2.64319792020542      0.33046750765825      0.10757093077221
  H   2.03022225673178     -1.32056813669639      0.14165363079022
  H   1.63229061456347     -0.19806079140807      1.45750093831157
