14
Coordinates from ORCA-job run
  C   -0.67416318874350      0.00443040786027      0.27971050000850
  C   0.57905437034460      0.30840255199079     -0.17451950192618
  N   -1.28858097834688     -1.19052557339181     -0.04234439906803
  H   -2.23214438199480     -1.30615821326821      0.28721554513555
  H   -0.72007544480623     -2.01909848448542     -0.00703713446233
  N   -1.48764559154908      0.89327141677895      0.97247997080651
  H   -1.05884501744265      1.79518060181618      1.12642835675147
  H   -1.87672006500672      0.51559925625328      1.82527105316100
  C   1.18662806128525      1.49488250285028      0.31265501676689
  N   1.67251203066772      2.48644505453862      0.72649253532394
  C   1.32976361198937     -0.57653315392315     -1.13463955125081
  H   0.62944633309105     -1.07498787927747     -1.80999691258190
  H   2.01994009870273      0.01367986464323     -1.73993671216531
  H   1.92083016180911     -1.34458835238555     -0.62277876649930
