14
Coordinates from ORCA-job run
  C   -0.68155379850959      0.04666184360991      0.31852335655700
  C   0.59594672116320      0.25036791059346     -0.12052398282253
  N   -1.36887127026053     -1.14231345993034      0.14287124848602
  H   -0.89047716661500     -1.84686975001595     -0.39370978784696
  H   -2.32935824480525     -1.01402480547653     -0.14084663776788
  N   -1.44636849231360      1.00050109625938      0.97402777807898
  H   -1.92352553027070      0.62922947352836      1.78346167485746
  H   -0.94869288145826      1.85561972267072      1.17687732352643
  C   1.26489219496408      1.41980933348345      0.33022163554310
  N   1.79812553455320      2.40117710469571      0.70784854513477
  C   1.33374771374287     -0.71700262567321     -1.01234807657066
  H   1.75043579722810     -1.56615463229681     -0.46096904064484
  H   0.67954769493852     -1.10550318992135     -1.79870416408341
  H   2.16515172764296     -0.21249802152681     -1.50672987244748
