15

C	-0.482754	0.000333	-1.438965
C	0.0	0.0	0.0
F	-0.307513	-1.325545	-1.933176
H	1.096093	0.0	0.0
H	-1.558567	0.176412	-1.500276
N	0.240317	0.966424	-2.156612
H	1.24105	0.842143	-2.041224
H	-0.015299	0.993287	-3.132292
N	-0.562	-1.081327	0.77245
H	-0.73632	-1.855454	0.145297
H	0.144365	-1.386973	1.431696
N	-0.481452	1.304658	0.591269
O	0.349957	2.036879	1.119568
O	-1.688639	1.537329	0.523905
Cl	3.418231	0.0	0.0
