15

C	-0.451867	0.024524	-1.460781
C	0.0	0.0	0.0
F	-0.482297	-1.315793	-1.881144
H	1.089175	0.0	0.0
H	-1.470874	0.404085	-1.55768
N	0.429329	0.754465	-2.309743
H	1.38326	0.68742	-1.961189
H	0.153805	1.725607	-2.312057
N	-0.610141	-1.053085	0.782379
H	-0.011206	-1.220362	1.584409
H	-0.566808	-1.886437	0.208097
N	-0.368506	1.306361	0.650728
O	-0.206742	1.37015	1.864674
O	-0.771338	2.240695	-0.048236
Cl	3.332956	0.0	0.0
