15

C	-0.577523	0.031346	-1.407822
C	0.0	0.0	0.0
F	-0.235575	1.168289	-2.104037
H	1.094085	0.0	0.0
H	-0.116682	-0.808964	-1.942491
N	-2.020045	-0.01199	-1.344778
H	-2.278167	-0.855041	-0.845616
H	-2.385006	-0.084836	-2.287223
N	-0.455061	-1.208047	0.647629
H	-1.208412	-0.966151	1.281389
H	0.311607	-1.571758	1.200089
N	-0.460694	1.238098	0.743226
O	-0.015369	2.312353	0.363454
O	-1.269532	1.097867	1.665745
Cl	3.338581	0.0	0.0
