15

C	-0.55116	0.032876	-1.417935
C	0.0	0.0	0.0
F	-0.16843	1.24816	-2.008527
H	1.089969	0.0	0.0
H	-0.061126	-0.762535	-1.981023
N	-1.963026	-0.143172	-1.457885
H	-2.422868	0.617872	-0.972036
H	-2.280222	-0.168196	-2.418192
N	-0.459536	-1.169588	0.664416
H	-1.457325	-1.137271	0.819516
H	0.04364	-1.29745	1.532609
N	-0.468687	1.292225	0.670781
O	0.301701	2.240682	0.736171
O	-1.63746	1.302605	1.088385
Cl	3.414406	0.0	0.0
