15

C	-0.516094	0.00768	-1.427273
C	0.0	0.0	0.0
F	-0.205511	1.236484	-2.024419
H	1.100105	0.0	0.0
H	0.043545	-0.76453	-1.96485
C	-2.00969	-0.200083	-1.557388
H	-2.30716	-0.202125	-2.609858
H	-2.539491	0.610143	-1.049385
H	-2.285436	-1.154215	-1.105834
N	-0.330985	-1.303125	0.615678
H	0.516624	-1.599735	1.085501
H	-1.069459	-1.215585	1.300535
C	-0.53593	1.122673	0.759269
N	-1.003056	1.994111	1.39822
F	2.582236	0.0	0.0
