15

C	-0.259987	-0.05054	-1.496812
C	0.0	0.0	0.0
F	-1.62532	-0.331563	-1.770624
H	1.09636	0.0	0.0
H	-0.062436	0.935337	-1.928375
C	0.621628	-1.096017	-2.143892
H	1.634211	-0.925858	-1.752419
H	0.285273	-2.094253	-1.852191
H	0.599807	-1.025899	-3.236493
N	-0.421644	-1.199437	0.723381
H	-1.202074	-1.642938	0.250252
H	0.369533	-1.831806	0.736939
C	-0.580998	1.197715	0.597962
N	-1.049619	2.17231	1.059935
F	2.622484	0.0	0.0
