15

C	-0.335931	0.03299	-1.489702
C	0.0	0.0	0.0
F	-0.064156	-1.252069	-1.999705
H	1.101961	0.0	0.0
H	-1.403675	0.19942	-1.680422
C	0.579886	1.014466	-2.187375
H	0.296287	2.040714	-1.938142
H	1.590418	0.821576	-1.810098
H	0.525269	0.886239	-3.27149
N	-0.613422	-1.179565	0.646532
H	-0.273888	-1.965098	0.10112
H	-0.155782	-1.269652	1.548656
C	-0.506784	1.221432	0.61293
N	-0.909392	2.210103	1.105751
F	2.655435	0.0	0.0
