15

C	-0.477902	-0.021368	-1.442607
C	0.0	0.0	0.0
F	-0.187429	1.211478	-2.038572
H	1.094063	0.0	0.0
H	0.124998	-0.776179	-1.95491
C	-1.958142	-0.277322	-1.621911
H	-2.217681	-0.287106	-2.684197
H	-2.533146	0.513521	-1.13245
H	-2.218521	-1.241135	-1.182615
N	-0.341509	-1.291085	0.629861
H	-1.128046	-1.202885	1.261697
H	0.474761	-1.558597	1.168516
C	-0.555035	1.13695	0.722646
N	-1.043955	2.014138	1.336606
F	2.58242	0.0	0.0
