15

C	-0.378396	0.011095	-1.475721
C	0.0	0.0	0.0
F	0.019514	1.229435	-2.036824
H	1.095433	0.0	0.0
H	0.221175	-0.76932	-1.957228
C	-1.855281	-0.139659	-1.78724
H	-2.410947	0.676824	-1.31874
H	-2.25362	-1.090967	-1.422105
H	-2.016532	-0.097277	-2.867759
N	-0.314003	-1.2681	0.673388
H	0.532825	-1.820859	0.626751
H	-1.074015	-1.774016	0.236216
C	-0.619689	1.119496	0.697076
N	-1.143605	2.020292	1.242408
F	2.577172	0.0	0.0
