15

C	-0.355334	0.05009	-1.481683
C	0.0	0.0	0.0
F	-1.658487	-0.49099	-1.659519
H	1.089068	0.0	0.0
H	-0.40755	0.826596	0.578462
N	-0.314524	1.405536	-1.902518
H	-0.423973	1.419655	-2.909292
H	-1.05575	1.934293	-1.461084
N	0.516496	-0.710176	-2.331685
H	0.399508	-1.679855	-2.055943
H	1.466568	-0.458542	-2.037007
N	-0.43544	-1.232871	0.647147
O	-0.923216	-1.156299	1.781369
O	-0.226888	-2.302215	0.064565
H	2.718974	0.0	0.0
