15

C	-0.356503	-0.191512	-1.466048
C	0.0	0.0	0.0
F	-1.620808	-0.849492	-1.574059
H	1.087194	0.0	0.0
H	-0.409267	0.919447	0.408941
N	-0.504392	1.119396	-2.052358
H	-1.340341	1.553535	-1.673965
H	-0.636567	1.015754	-3.052193
N	0.621135	-0.991106	-2.108805
H	0.694774	-0.757338	-3.090823
H	1.527828	-0.840733	-1.653502
N	-0.458462	-1.091856	0.861464
O	-1.062286	-0.784206	1.899065
O	-0.163406	-2.24324	0.546832
H	2.748348	0.0	0.0
