15

C	-0.533258	0.008654	-1.415517
C	0.0	0.0	0.0
F	-1.901868	-0.463731	-1.375026
H	1.089067	0.0	0.0
H	-0.368682	0.852431	0.56707
N	-0.547697	1.352899	-1.896309
H	-1.366719	1.83902	-1.552671
H	-0.533201	1.333975	-2.905499
N	0.188843	-0.823575	-2.328369
H	-0.481248	-1.42141	-2.790012
H	0.838903	-1.402658	-1.814
N	-0.373115	-1.199446	0.74247
O	-0.209565	-2.294362	0.188681
O	-0.713123	-1.069469	1.925609
H	2.690976	0.0	0.0
