15

C	-0.389911	0.100027	-1.466947
C	0.0	0.0	0.0
F	-0.236144	-1.235575	-2.002366
H	1.086807	0.0	0.0
H	-0.409215	0.851594	0.542098
N	-1.748265	0.491839	-1.68473
H	-1.977065	0.335114	-2.66057
H	-2.333698	-0.117437	-1.124647
N	0.535172	0.980226	-2.06314
H	1.486017	0.726458	-1.77585
H	0.446563	0.979299	-3.072198
N	-0.583453	-1.218269	0.598435
O	0.144651	-2.164146	0.869335
O	-1.808878	-1.208298	0.791485
H	2.894062	0.0	0.0
