19

C	-0.415691	0.037548	-1.469178
C	0.0	0.0	0.0
F	-0.042821	-1.205498	-2.053875
H	1.095694	0.0	0.0
N	-1.838636	0.201286	-1.611849
H	-2.07168	0.200186	-2.599285
H	-2.296194	-0.597213	-1.186568
C	0.335655	1.098065	-2.243378
H	0.135963	0.98717	-3.314501
H	0.023243	2.092779	-1.924897
H	1.403723	0.972832	-2.048085
C	-0.522458	-1.2254	0.734635
H	-0.041643	-1.257041	1.714044
H	-0.281157	-2.144445	0.196947
H	-1.605586	-1.168442	0.901786
N	-0.408269	1.224376	0.701486
H	0.365617	1.876266	0.667098
H	-1.205971	1.636619	0.233533
H	3.050451	0.0	0.0
