19

C	-0.503175	0.017298	-1.447979
C	0.0	0.0	0.0
F	-0.370392	-1.279145	-1.965237
H	1.09602	0.0	0.0
N	-1.915465	0.343605	-1.597537
H	-2.445694	-0.341244	-1.066487
H	-2.033725	1.235539	-1.125635
C	0.338494	0.944368	-2.292873
H	0.209551	1.971394	-1.947259
H	0.019943	0.86577	-3.334815
H	1.390711	0.673933	-2.174747
C	-0.483174	-1.202766	0.792257
H	-0.032359	-1.173985	1.788541
H	-1.576418	-1.210841	0.910693
H	-0.179183	-2.132889	0.311419
N	-0.399077	1.284536	0.614307
H	-1.118115	1.12524	1.311469
H	0.417713	1.646407	1.097095
H	3.034333	0.0	0.0
