19

C	-0.286177	-0.019495	-1.513461
C	0.0	0.0	0.0
F	-0.100544	1.334021	-1.974736
H	1.099341	0.0	0.0
N	0.664685	-0.882343	-2.113524
H	1.590192	-0.691398	-1.713639
H	0.68877	-0.741224	-3.115386
C	-1.702039	-0.353169	-1.940653
H	-2.413801	0.324735	-1.4642
H	-1.797021	-0.234025	-3.024383
H	-1.947587	-1.380715	-1.67514
C	-0.484952	-1.264167	0.685859
H	-0.15894	-2.150154	0.13751
H	-0.057676	-1.294873	1.690415
H	-1.578814	-1.283472	0.778762
N	-0.488491	1.177808	0.70637
H	-1.470967	1.321685	0.488438
H	0.012288	1.976164	0.338704
H	3.041451	0.0	0.0
