19

C	-0.37161	0.015892	-1.483233
C	0.0	0.0	0.0
F	-0.169166	1.344797	-1.920021
H	1.105921	0.0	0.0
N	0.52512	-0.791359	-2.27308
H	0.276387	-1.767227	-2.17052
H	1.466753	-0.672495	-1.88776
C	-1.82116	-0.297633	-1.789525
H	-2.005741	-0.103962	-2.848215
H	-2.458083	0.342658	-1.176994
H	-2.057401	-1.34233	-1.572558
C	-0.447279	-1.276511	0.692441
H	-1.534163	-1.307612	0.817922
H	-0.114687	-2.162587	0.145237
H	0.017686	-1.328108	1.682236
N	-0.591939	1.154984	0.693901
H	-0.194866	1.157043	1.629891
H	-0.210052	1.9785	0.240083
H	3.059072	0.0	0.0
