19

C	0.0	0.0	0.0
C	-0.514074	0.07057	-1.46381
Br	1.967095	0.0	0.0
H	-1.608507	0.107724	-1.279325
C	-0.436641	1.230656	0.784667
H	-1.529948	1.232336	0.710595
H	-0.009407	2.148507	0.391058
H	-0.121688	1.093592	1.821364
N	-0.542631	-1.145298	0.672537
H	-0.330232	-1.990805	0.149972
H	-1.572205	-0.947301	0.591013
C	-0.092293	-1.074171	-2.363939
H	-0.423743	-2.020957	-1.941264
H	-0.561132	-0.966781	-3.344025
H	0.991045	-1.093198	-2.499041
N	-0.152275	1.358569	-2.130082
O	0.870065	1.403935	-2.821317
O	-0.903304	2.320626	-1.956891
F	-2.89104	0.0	0.0
