19

C	0.0	0.0	0.0
C	-0.509293	0.094844	-1.450299
Br	2.028798	0.0	0.0
H	-1.58992	0.263211	-1.277008
C	-0.374348	1.219768	0.837866
H	0.053241	2.149387	0.465587
H	-0.027436	1.056621	1.862847
H	-1.46822	1.239133	0.802771
N	-0.547471	-1.216364	0.52032
H	-1.577528	-1.001608	0.416128
H	-0.344189	-1.244803	1.515623
C	-0.256215	-1.143367	-2.281407
H	-0.642003	-0.99832	-3.293495
H	-0.776297	-1.97638	-1.813144
H	0.808248	-1.371824	-2.342325
N	0.023847	1.302345	-2.149731
O	-0.466077	2.395623	-1.85726
O	0.909042	1.154487	-2.995414
F	-2.868747	0.0	0.0
