19

C	0.0	0.0	0.0
C	-0.513706	0.106506	-1.448036
Br	2.029016	0.0	0.0
H	-1.592723	0.284277	-1.269531
C	-0.38075	1.203334	0.856561
H	0.039431	2.141061	0.497967
H	-1.475024	1.214553	0.822078
H	-0.031956	1.026087	1.878454
N	-0.533872	-1.230516	0.5074
H	-0.328233	-1.266181	1.502458
H	-1.564331	-1.025527	0.409608
C	-0.28154	-1.132452	-2.284032
H	0.777484	-1.388363	-2.334189
H	-0.828019	-1.955114	-1.82745
H	-0.652404	-0.971692	-3.299194
N	0.032203	1.309719	-2.143978
O	-0.42005	2.410785	-1.823042
O	0.891053	1.150886	-3.014999
F	-2.868038	0.0	0.0
