19

C	0.0	0.0	0.0
C	-0.509806	0.09221	-1.449985
Br	2.029062	0.0	0.0
H	-1.591651	0.255461	-1.275841
C	-0.377542	1.217513	0.837865
H	0.050828	2.147983	0.469111
H	-0.03205	1.053729	1.863356
H	-1.471492	1.236228	0.800524
N	-0.541014	-1.220439	0.522394
H	-0.337096	-1.242586	1.517692
H	-1.570547	-1.012402	0.420268
C	-0.250848	-1.14346	-2.282925
H	-0.639686	-0.99964	-3.294064
H	0.814618	-1.365932	-2.346529
H	-0.76533	-1.980251	-1.81448
N	0.017501	1.303492	-2.147421
O	0.903933	1.160593	-2.992755
O	-0.47757	2.393832	-1.853717
F	-2.867843	0.0	0.0
