19

C	0.0	0.0	0.0
C	-0.278949	-0.025485	-1.561563
Br	1.99422	0.0	0.0
H	0.469171	-0.69418	-1.995487
C	-0.42912	1.295725	0.667398
H	-0.15621	1.229196	1.722317
H	-1.520276	1.306923	0.560187
H	0.045346	2.174764	0.231605
N	-0.525888	-1.08821	0.738287
H	-1.556396	-0.847228	0.677736
H	-0.398628	-1.943495	0.207341
C	-0.219807	1.331735	-2.228153
H	-1.059672	1.939863	-1.89776
H	0.721477	1.822717	-1.977671
H	-0.282146	1.224886	-3.313447
N	-1.549922	-0.734438	-1.993622
O	-2.373108	-0.124261	-2.662902
O	-1.578396	-1.946316	-1.782354
F	-2.769588	0.0	0.0
