19

C	0.0	0.0	0.0
C	-0.155154	0.079492	-1.573599
Br	2.056277	0.0	0.0
H	0.511176	0.868003	-1.92156
C	-0.451682	1.322368	0.585708
H	-0.140965	1.372592	1.630968
H	-1.547762	1.290964	0.519968
H	-0.034827	2.173656	0.042255
N	-0.611614	-1.056171	0.693366
H	-0.479971	-1.919496	0.180068
H	-1.634185	-0.794655	0.624699
C	-1.540896	0.296663	-2.165576
H	-1.842134	1.328563	-1.978629
H	-1.47369	0.144287	-3.249543
H	-2.299641	-0.310619	-1.673064
N	0.399935	-1.139671	-2.249885
O	1.166049	-0.960484	-3.197143
O	0.013164	-2.248879	-1.878711
F	-3.00449	0.0	0.0
