19

C	0.0	0.0	0.0
C	-0.154585	0.048868	-1.57516
Br	2.05609	0.0	0.0
H	0.516	0.827179	-1.938447
C	-0.450831	1.333622	0.560666
H	-0.032998	2.174051	0.001956
H	-1.546819	1.302489	0.49473
H	-0.140893	1.402949	1.604945
N	-0.612702	-1.042199	0.712334
H	-0.482291	-1.915541	0.215991
H	-1.635659	-0.781209	0.640289
C	-1.539403	0.261511	-2.171328
H	-1.475868	0.082489	-3.250871
H	-2.301918	-0.327331	-1.662032
H	-1.831366	1.300035	-2.010472
N	0.395334	-1.186468	-2.226126
O	1.168346	-1.030463	-3.171645
O	-0.001757	-2.285842	-1.837084
F	-3.006419	0.0	0.0
