15

C	0.0	0.0	0.0
C	-0.475565	0.142801	-1.456522
F	1.353452	0.0	0.0
H	-1.577338	0.031115	-1.41785
H	-0.154753	1.10698	-1.842321
N	-0.619384	1.205292	0.635373
O	-1.812772	0.926509	1.103808
O	-0.264562	2.316141	0.16723
N	-0.422785	-1.158416	0.703774
H	-1.431953	-1.070754	0.819392
H	-0.231919	-1.962359	0.115961
N	0.100957	-0.893024	-2.318182
O	0.886464	-0.538465	-3.200639
O	-0.2185	-2.072259	-2.115528
H	-2.905221	0.0	0.0
