15

C	0.0	0.0	0.0
C	-0.242598	0.00218	-1.524978
F	1.352034	0.0	0.0
H	0.267681	-0.898735	-1.861057
H	0.229259	0.89652	-1.923071
N	-0.266884	1.439343	0.598173
O	-0.373784	1.489386	1.819163
O	-0.255839	2.410887	-0.149737
N	-0.632357	-0.992545	0.68512
H	-0.424351	-0.89409	1.679231
H	-1.729118	-0.65211	0.462975
N	-1.594661	-0.055054	-2.146554
O	-2.102027	1.009457	-2.481349
O	-2.033648	-1.168158	-2.418784
H	-2.737137	0.0	0.0
