15

C	0.0	0.0	0.0
C	-0.525596	0.084836	-1.431322
F	1.35491	0.0	0.0
H	-0.340155	-0.887707	-1.892751
H	-1.607299	0.270531	-1.337242
N	-0.328879	1.323288	0.726154
O	-0.28757	2.33094	0.02413
O	-0.484407	1.299695	1.937184
N	-0.592723	-1.038087	0.72708
H	-0.446989	-1.90647	0.22151
H	-1.63176	-0.803035	0.658533
N	0.107132	1.074976	-2.347701
O	-0.614525	1.92676	-2.860267
O	1.307883	0.936687	-2.588831
H	-2.964262	0.0	0.0
