15

C	0.0	0.0	0.0
C	-0.432194	0.062618	-1.51319
F	1.371798	0.0	0.0
H	-0.100283	1.020656	-1.893865
H	-1.518115	-0.020444	-1.518373
N	-0.391793	1.250579	0.6455
O	-1.706376	1.408913	0.870589
O	0.403971	2.261579	0.559045
N	-0.542979	-1.116182	0.667398
H	-0.302487	-1.056245	1.651865
H	-0.088307	-1.933244	0.268996
N	0.002675	-1.088255	-2.348095
O	-1.104806	-1.973766	-2.611289
O	1.077823	-1.646204	-2.171125
H	-2.095448	0.0	0.0
