15

C	0.0	0.0	0.0
C	-0.571122	0.017581	-1.405887
F	1.353799	0.0	0.0
H	-0.36513	-0.958655	-1.845677
H	-1.657631	0.17304	-1.289279
N	-0.266984	1.400488	0.66812
O	-0.236429	1.421391	1.895619
O	-0.4061	2.378542	-0.058024
N	-0.605371	-1.026936	0.703766
H	-1.648954	-0.834856	0.566419
H	-0.392558	-0.916556	1.690025
N	-0.010282	1.022837	-2.348889
O	-0.817064	1.661777	-3.020634
O	1.212053	1.104842	-2.462352
H	-2.979614	0.0	0.0
