13

C	0.0	0.0	0.0
C	-0.531378	0.154234	-1.417007
F	1.378966	0.0	0.0
H	-1.64209	0.166274	-1.270937
H	-0.19678	1.104059	-1.842505
C	-0.331082	1.252049	0.759924
N	-0.493082	2.255038	1.350362
N	-0.538292	-1.182771	0.563696
H	-0.31717	-1.212225	1.555124
H	-1.575606	-1.02822	0.477655
C	-0.110706	-0.942787	-2.274994
N	0.196655	-1.79793	-3.019125
H	-2.940252	0.0	0.0
