13

C	0.0	0.0	0.0
C	-0.521404	0.13608	-1.419161
F	1.401562	0.0	0.0
H	-0.319458	-0.80612	-1.934747
H	-1.627004	0.239055	-1.275202
C	-0.312178	1.234872	0.788351
N	-0.448419	2.188909	1.460595
N	-0.54642	-1.185906	0.550336
H	-1.585819	-1.014498	0.450515
H	-0.351725	-1.20154	1.548211
C	0.060316	1.249935	-2.14983
N	0.507492	2.141509	-2.770411
H	-2.92395	0.0	0.0
