13

C	0.0	0.0	0.0
C	-0.510735	-0.070641	-1.429828
F	1.37674	0.0	0.0
H	-1.619214	0.02008	-1.318077
H	-0.255439	-1.066464	-1.804883
C	-0.328331	1.343291	0.581385
N	-0.453907	2.431218	1.009681
N	-0.524417	-1.111185	0.71429
H	-1.561664	-0.969813	0.628082
H	-0.2731	-1.007002	1.693121
C	0.051142	0.964185	-2.290708
N	0.472567	1.790931	-3.012361
H	-2.958928	0.0	0.0
