13

C	0.0	0.0	0.0
C	-0.493476	-0.051972	-1.452158
F	1.384187	0.0	0.0
H	-0.128651	0.80354	-2.025989
H	-1.603873	0.000645	-1.317557
C	-0.378917	1.330554	0.554175
N	-0.492967	2.421498	0.970955
N	-0.521262	-1.022474	0.838382
H	-1.552987	-0.837732	0.790022
H	-0.357561	-1.916332	0.379738
C	-0.099649	-1.293922	-2.094901
N	0.20858	-2.303476	-2.611199
H	-2.897562	0.0	0.0
