15
Coordinates from ORCA-job run
  C   0.46121416450946     -0.11734609930925     -0.31592104493237
  C   -1.06757792476705      0.13920583163423     -0.25913883228042
  Cl  0.78656341002350     -0.51313788206633     -2.09039087051655
  H   -1.32137177916643      0.86837623297860     -1.03614501577757
  C   1.24236912551809      1.13986920250712      0.01385247992876
  H   0.93932823787417      1.96640130569853     -0.62996567608870
  H   1.08070130617497      1.40778657797167      1.05947283470333
  H   2.30706887392659      0.96023271129781     -0.14731538240933
  N   0.79268876835868     -1.16836603128968      0.56614999270281
  H   1.79419421450366     -1.28941589387686      0.64597177481088
  H   0.36778911706206     -2.05015632124820      0.30382059215071
  C   -1.44649493430651      0.68837124515547      1.04704701212958
  N   -1.73955089483981      1.16597288494861      2.07859301875585
  C   -1.81456111404736     -1.09495257666702     -0.52039434653802
  N   -2.38236057082403     -2.10384118773468     -0.71563653663898
