15
Coordinates from ORCA-job run
  C   0.49436145111272     -0.28819361899070     -0.25020782364766
  C   -1.02701939737631     -0.46989595599203     -0.00077062678791
  Cl  0.76506983956514     -0.92696284429426     -1.95259701796511
  H   -1.25809932708571     -1.53741548113311     -0.10663193040986
  C   0.91120801239075      1.16752213271211     -0.22544162287117
  H   0.72808811533433      1.58004313593669      0.76927400430825
  H   1.97643215553837      1.24669723720900     -0.45193034245519
  H   0.36322669132860      1.74410167922573     -0.97030110994403
  N   1.18658108585581     -1.03261516758435      0.73639852171540
  H   2.18144768760914     -0.84992200467935      0.70897758950503
  H   1.03188463473866     -2.02948229801975      0.64577032955969
  C   -1.83851561757730      0.26843066277147     -0.97219023409832
  N   -2.48884609206172      0.87428659561617     -1.73897402549758
  C   -1.37056730538202     -0.04740795937379      1.36160156281981
  N   -1.65625193399046      0.29981388659617      2.44602272576867
