15
Coordinates from ORCA-job run
  C   0.44725752677777     -0.14329423992395     -0.37869112825330
  C   -1.08001602136226      0.13231541236603     -0.29750364205857
  Cl  0.79584257718911     -0.54256748732904     -2.08794230473479
  H   -1.31677250279203      0.97387366777198     -0.95898333946943
  C   1.23796161134689      1.10490309662394     -0.00957095080203
  H   2.30356468942452      0.90362045211711     -0.13131558390182
  H   1.05121220874813      1.36868187529189      1.03485665434763
  H   0.97254849311975      1.95343124429250     -0.64401067322821
  N   0.72488492750062     -1.31894635361308      0.41284382636662
  H   0.70796018045063     -1.08364226229420      1.40043064223253
  H   1.64011940870684     -1.68917400307320      0.18657757908268
  C   -1.43202004740403      0.50072987842992      1.07821818940821
  N   -1.65423278260833      0.79991012435302      2.19189898039799
  C   -1.86566983239087     -1.02989751978574     -0.72135547665734
  N   -2.53064043670672     -1.92994388522719     -1.07445277273017
