15
Coordinates from ORCA-job run
  C   0.46025647470680     -0.11247141648098     -0.31901001202924
  C   -1.06988245755508      0.13373368501169     -0.25381015657574
  Cl  0.77951078081816     -0.50298727194274     -2.09565284879233
  H   -1.33297778003318      0.86603907064849     -1.02471149111673
  C   1.23513899581844      1.14902903167997      0.00890046424120
  H   1.07538927805875      1.41594236077934      1.05507555902400
  H   2.30031912215392      0.97535953738392     -0.15558920085633
  H   0.92549677408352      1.97377675723497     -0.63401748637111
  N   0.80264465454411     -1.16266233253386      0.55968450135738
  H   0.38242952188304     -2.04692174739683      0.29840845461840
  H   1.80489107065102     -1.27709717445288      0.63639323023935
  C   -1.44574203015750      0.67055225926953      1.05860515334560
  N   -1.73659802104887      1.13718390577752      2.09571499520333
  C   -1.80929528200527     -1.10454517256008     -0.51830914940631
  N   -2.37258110191784     -2.11593149241806     -0.71368201288148
