15
Coordinates from ORCA-job run
  C   0.52289906110874     -0.08987052882105     -0.38867090352634
  C   -1.03299982320153      0.11816776981887     -0.31077359159124
  Cl  0.84878763255220     -0.42246486684087     -2.12419189446491
  H   -1.32243116666687      0.90890472524744     -1.01196435728204
  C   1.24142337331044      1.18402863306927      0.01489147150765
  H   1.06984808374886      1.39913731236472      1.07289788579372
  H   2.30986317352148      1.04507042624400     -0.14738652742855
  H   0.89701537637040      2.03234046379341     -0.57873401337157
  N   1.01268709591962     -1.19372015868755      0.37434786487014
  H   0.94523224255704     -1.01333950581370      1.36877491183656
  H   0.54933982194853     -2.06392925399985      0.14125910764641
  C   -1.40086815940772      0.51665079089686      1.05077456607593
  N   -1.64096169346450      0.81761493909678      2.16034744786276
  C   -1.73651146892936     -1.11490523410325     -0.66951485168114
  N   -2.26232354936731     -2.12568551226508     -0.95305711624736
