15
Coordinates from ORCA-job run
  C   0.46617583856999     -0.04733797246842     -0.32657828626930
  C   -1.07591252995017      0.10101864149650     -0.24408173697686
  Cl  0.80844622199897     -0.19895899561276     -2.13543206008015
  H   -1.38001010436671      0.90328018402767     -0.92509787513117
  C   1.16624649086026      1.20720208076000      0.15869786069400
  H   0.80742673888100      2.08565157498486     -0.37893121419028
  H   0.99265903289452      1.33288640084941      1.22890597563470
  H   2.23952379624891      1.11801375367303     -0.02011965502770
  N   0.86840407430043     -1.17558526700164      0.41983584536184
  H   1.87546984095561     -1.23994796902866      0.49061235467637
  H   0.50124702496160     -2.04413409297012      0.04885787589006
  C   -1.48258362834513      0.45799435349542      1.11930210003197
  N   -1.79967366398838      0.78431842529882      2.20138647097416
  C   -1.74225667540982     -1.13718129359885     -0.65878394147411
  N   -2.24416245761109     -2.14921982390526     -0.97857371411353
