15
Coordinates from ORCA-job run
  C   0.45275591234900     -0.13255455365468     -0.32226547182249
  C   -1.07185426369267      0.14240766388859     -0.24047787360761
  Cl  0.73485077015443     -0.58612393490112     -2.09021561656814
  H   -1.33551336438481      0.84852867730928     -1.03534101884074
  C   1.25403506159344      1.12527583112867     -0.04793527164361
  H   0.94159639047102      1.93733723035307     -0.70535981477832
  H   2.31232243207771      0.93108101179714     -0.23229518633445
  H   1.12244036448781      1.42256217463822      0.99379124804207
  N   0.79241098266576     -1.15968862158623      0.58441196217595
  H   1.79399904168947     -1.28710359596299      0.65007847657631
  H   0.35550801201263     -2.04526841162362      0.35689352417903
  C   -1.41522880429026      0.73853938855910      1.05489693664122
  N   -1.67901786916622      1.25454180090725      2.07574111210856
  C   -1.83687910197735     -1.09132646706939     -0.44473067901374
  N   -2.42142556398997     -2.09820819378330     -0.59619232711405
