15
Coordinates from ORCA-job run
  C   0.45593535802289     -0.06474660187303     -0.39072351440305
  C   -1.08644226623734      0.09200756575879     -0.28759367485478
  Cl  0.82930204360730     -0.22761672484353     -2.13323544491358
  H   -1.38258641037411      0.98883720074932     -0.84422200881312
  C   1.15777596124519      1.18120125295830      0.13330121282891
  H   2.23482823350910      1.07113133312887     -0.00427670770082
  H   0.83256830599930      2.08041630256056     -0.39473991895841
  H   0.95425174571950      1.30182069345087      1.20079406459184
  N   0.81628046777358     -1.30588138925822      0.25390688886270
  H   0.78217429801291     -1.19488968424386      1.26262789594958
  H   1.75584955168421     -1.57966468691440     -0.00721510766610
  C   -1.46172423017458      0.26606734683439      1.12000391270889
  N   -1.70313021740213      0.41073262635623      2.26019073811237
  C   -1.79076947340226     -1.06180173690188     -0.85366239245245
  N   -2.39431336798358     -1.95561349776240     -1.31615594329197
