15
Coordinates from ORCA-job run
  C   0.52602381013690     -0.16926744982970     -0.19801961925706
  C   -0.97177418858930     -0.07691324636861      0.26036840741735
  Cl  0.54287399535975     -1.17370642160131     -1.68077702983386
  H   -0.98197994771835      0.56614924722632      1.15091348978111
  C   1.05461550579258      1.21562110162863     -0.51947685754876
  H   1.02934373135552      1.84319882076125      0.37737903555921
  H   0.46525520983136      1.69392219314847     -1.30152134907881
  H   2.08715295170603      1.12375849379573     -0.85431906604523
  N   1.37154708029812     -0.80407544977273      0.76915579620869
  H   1.46753409500346     -0.23754888983151      1.60321437758875
  H   1.04987291617902     -1.73359088412899      1.01248028887434
  C   -1.47121600257868     -1.39382857979989      0.65988134664848
  N   -1.81973803603742     -2.45681063506820      1.01650067451371
  C   -1.83869968483132      0.53743469889356     -0.74635542759593
  N   -2.51181143590768      1.06565700094698     -1.55042406723199
