15
Coordinates from ORCA-job run
  C   0.50546912065656     -0.19083153272919     -0.23074879090756
  C   -0.96623882330109     -0.02116964108591      0.28540962916915
  Cl  0.39894802017049     -1.04998905230546     -1.79853961818642
  H   -0.89889497017185      0.53657995495336      1.22933714230211
  C   1.13947378518247      1.17076973467741     -0.44204663267207
  H   2.15131574707945      1.02778105929986     -0.82013635873025
  H   0.57106788203225      1.76743586220080     -1.15549135728634
  H   1.19170924867036      1.71002358855501      0.50957149018923
  N   1.32017280148997     -0.98011219185503      0.64495534647776
  H   0.92988848133078     -1.90042328648003      0.81010739967006
  H   1.48237930683876     -0.50607014561493      1.52501583017275
  C   -1.56271481478680     -1.32475105474988      0.58322626396083
  N   -1.99330844011445     -2.38304303804584      0.85365535093917
  C   -1.80808057586684      0.74840509425453     -0.63193707670292
  N   -2.46118676921006      1.39539464892531     -1.36237861839549
