15
Coordinates from ORCA-job run
  C   0.47887565744041     -0.12237584559796     -0.12434576788416
  C   -1.02281042996122     -0.08416251240513      0.26146173779375
  Cl  0.57086584326758     -0.86974221085630     -1.79422356314948
  H   -1.06765547335259      0.40125623623205      1.24458375648424
  C   1.04721483208830      1.28066923491780     -0.21498408738488
  H   2.09837893518918      1.23066948919786     -0.50600550731991
  H   0.97445660861192      1.76436289585426      0.76209302775564
  H   0.51822850033514      1.87199433812531     -0.96200027127444
  N   1.15772196708147     -0.87734645079005      0.86898316355363
  H   2.16015985008000     -0.83168202280695      0.73311696309891
  H   0.87589663616110     -1.85157356719613      0.86409034411390
  C   -1.56176716377365     -1.43882396677936      0.40780816913568
  N   -1.95032487715317     -2.53684340659548      0.55485010187093
  C   -1.82238239499074      0.70017046894612     -0.68102217892636
  N   -2.45485849102373      1.36342731975395     -1.41440588786744
