15
Coordinates from ORCA-job run
  C   0.45356065242857     -0.18987616072033     -0.13539655465305
  C   -1.00031106780596      0.06624121415181      0.33960780165988
  Cl  0.33528185767481     -1.18897605117562     -1.66664979546243
  H   -0.91741267498631      0.70018312452970      1.23147843735475
  C   1.14173057946130      1.11462041011551     -0.48802215225040
  H   2.15517846792893      0.90984398807600     -0.83884564656293
  H   0.60936177155375      1.63812984579163     -1.28170229793255
  H   1.19750564924183      1.74630655762830      0.40184052370516
  N   1.13878513590971     -0.85260164058253      0.91714732062664
  H   0.76712134981205     -1.78060167328742      1.08736548781728
  H   2.12632342264357     -0.93409626255133      0.70911331902742
  C   -1.65016226159567     -1.18436916059277      0.74095360006846
  N   -2.12916246620869     -2.19661531644818      1.09323138817681
  C   -1.79929832485666      0.77431433484861     -0.66212635359466
  N   -2.42850209120122      1.37649679021663     -1.44899507798037
