15
Coordinates from ORCA-job run
  C   0.57755268011158     -0.24830431468954     -0.32009048775413
  C   -0.96284620086655     -0.51256005022160     -0.16882959747894
  Cl  0.96394038891282     -0.75928312262489     -1.99737328133577
  H   -1.13718130501648     -1.56808127800915     -0.40974106298121
  C   0.90746258263362      1.22034899361337     -0.14743052647140
  H   0.37188807076141      1.83304802418146     -0.87241362059755
  H   1.97995432602053      1.35327282730751     -0.28767365331156
  H   0.63889053914681      1.54883287133792      0.86123160505646
  N   1.36949985118676     -1.03754185022030      0.57407483016306
  H   1.15779499182584     -2.02593828490745      0.51213348881925
  H   1.27097258461647     -0.71922705757808      1.53076157829148
  C   -1.77405280026702      0.30767044185879     -1.07025425894513
  N   -2.41151659561622      0.98155724270184     -1.79018485392351
  C   -1.35188133461369     -0.27952732931954      1.22481872000817
  N   -1.59947777883588     -0.09526711343034      2.35797112046078
