15
Coordinates from ORCA-job run
  C   0.50793205848280     -0.27338888108325     -0.24017366345126
  C   -1.01589573121034     -0.49042120396218     -0.04009073402195
  Cl  0.84265145824313     -0.87051439287821     -1.94611688999333
  H   -1.22172403392982     -1.56040165614118     -0.17013831993788
  C   0.89384359060865      1.18946703531460     -0.17275128852901
  H   1.96302768679287      1.29504174294844     -0.36763556489697
  H   0.35468077374003      1.77119767151413     -0.92011526018626
  H   0.67507020782676      1.57627934665425      0.82507553758791
  N   1.18567404445197     -1.02472769762798      0.75157384400925
  H   2.17761821880225     -0.82341647551352      0.75537837876387
  H   1.05328028615578     -2.02233984085667      0.63533952405354
  C   -1.81388554509536      0.24705924730214     -1.02340467161210
  N   -2.45650118216223      0.84823280337173     -1.80040194126516
  C   -1.40904061592706     -0.09590989036849      1.31727874869234
  N   -1.73673121677940      0.23384219132619      2.39518230078701
