15
Coordinates from ORCA-job run
  C   0.43855508014277     -0.15840951972037     -0.38507225010635
  C   -1.08309969488647      0.13667381745216     -0.27799734834556
  Cl  0.74633287183380     -0.60165358149110     -2.09153402962658
  H   -1.32334606131741      0.96644229351630     -0.95299762385673
  C   1.25016480064142      1.08968997266409     -0.06342738682651
  H   0.97986081149397      1.92545555809555     -0.71267136068504
  H   2.31085017527393      0.87422914694506     -0.20321368005145
  H   1.08901400699301      1.38050847120067      0.97808917341573
  N   0.72060437934847     -1.31818133771438      0.42738067439431
  H   0.70878299816735     -1.06328131501235      1.41013664753670
  H   1.63549516713990     -1.69160638567269      0.20390589812129
  C   -1.40204766656077      0.53953784892350      1.09617288217495
  N   -1.59541429137249      0.86441895184921      2.20806285722708
  C   -1.89287477184864     -1.02365507627307     -0.65971702180003
  N   -2.57987780504883     -1.92016884476260     -0.97811743157180
