15
Coordinates from ORCA-job run
  C   0.49587183089184     -0.29284926197589     -0.24156910663491
  C   -1.02699885135214     -0.47059052729746      0.00078242156187
  Cl  0.77786709075743     -0.95676053954312     -1.93266661429093
  H   -1.25766305984010     -1.53968513053030     -0.08780630729834
  C   0.91306670616456      1.16293395732293     -0.23552590340436
  H   1.97956417148125      1.23867660225299     -0.45715192251281
  H   0.72472130534161      1.58947975824953      0.75227366545411
  H   0.36936478804500      1.72906738970713     -0.99147346059374
  N   1.18158660885937     -1.02293507712319      0.76036217890879
  H   1.02358026864377     -2.02072837527511      0.68475546156824
  H   2.17767701992692     -0.84535869294429      0.73155202519251
  C   -1.83158557240656      0.25118151658881     -0.98884592773169
  N   -2.47534535483239      0.84518915925338     -1.77023986345471
  C   -1.37973175867509     -0.02143918941846      1.35221589838939
  N   -1.67397519300548      0.35281841073304      2.42533745484657
