15
Coordinates from ORCA-job run
  C   0.46332302065244     -0.16103760967552     -0.13890595992227
  C   -1.00627599643443      0.00039889002351      0.32889389182916
  Cl  0.40992720309987     -1.08211377007011     -1.72189236561609
  H   -0.96371993260837      0.58731326885191      1.25515487374520
  C   1.09238372653507      1.19122362336505     -0.41332938280908
  H   2.11857355172089      1.05299238023215     -0.75956356857376
  H   0.54523466987319      1.73011974479786     -1.18642295968231
  H   1.10724129531742      1.77719130008154      0.50884767345131
  N   1.16755760280091     -0.84560837943324      0.88693345712643
  H   0.83811744560760     -1.79759996396407      1.00380576860610
  H   2.16013061610493     -0.87003339202628      0.68830918295075
  C   -1.60061128253938     -1.29936409025195      0.65238929408072
  N   -2.03289857687325     -2.35174173209895      0.94195179164269
  C   -1.82635926271255      0.72550699424458     -0.64300987071359
  N   -2.47362408054433      1.34275273592352     -1.40316182611525
