15
Coordinates from ORCA-job run
  C   0.45051130809902     -0.19617906180113     -0.13751444638717
  C   -0.99948998564264      0.07753339457648      0.33889028875417
  Cl  0.31762176657182     -1.17256055306782     -1.68233102876696
  H   -0.90761740403227      0.69676398849702      1.24012724013602
  C   1.16091006875857      1.10124711753123     -0.47180514722543
  H   1.22572655390959      1.71998576304947      0.42650876617742
  H   2.17136540785893      0.88417652027074     -0.82379360445250
  H   0.63882027618474      1.64417494086463     -1.25927279489026
  N   1.12300429473431     -0.88433547090750      0.90698482398904
  H   2.10922053727931     -0.98037119096042      0.69881038247195
  H   0.73489188490971     -1.80784447171610      1.06511892803782
  C   -1.67164929218678     -1.16729251442060      0.72057361488757
  N   -2.16839882752592     -2.17636954409240      1.05735730568632
  C   -1.78422568634231      0.81548188478331     -0.65240298808119
  N   -2.40069090257607      1.44458919739308     -1.42825134033679
