15
Coordinates from ORCA-job run
  C   0.45443846989695     -0.04888298258672     -0.39453660997393
  C   -1.09093065853903      0.06646447896752     -0.27990426760112
  Cl  0.81949526187517     -0.18199109420212     -2.14138431052347
  H   -1.41412052654866      0.95991705851408     -0.82699400449579
  C   1.12741901472030      1.20856012139665      0.13963932498606
  H   0.92883597989574      1.31099062539869      1.20987816054792
  H   2.20582892644666      1.12828609877706     -0.00706195060471
  H   0.77491480569699      2.10528908800416     -0.37488170940770
  N   0.85141500319247     -1.28759301625309      0.23320900886275
  H   1.79364288303524     -1.53699885374975     -0.04214921370375
  H   0.82724970816228     -1.18738372725487      1.24333447298061
  C   -1.46111381805811      0.22014122179887      1.13128235759736
  N   -1.69736607711812      0.35433854535911      2.27382878325728
  C   -1.76828431553640     -1.10057822317812     -0.85150727310291
  N   -2.35042465712148     -2.00855934099145     -1.31375276881859
