15
Coordinates from ORCA-job run
  C   0.49776576959283     -0.29478572858523     -0.17213479961717
  C   -1.05510869325076     -0.33728992979229     -0.21231955700051
  Cl  1.06282969691297     -1.76955782993343     -1.01374652399536
  H   -1.37487165662829     -0.34548799370497     -1.26103604715539
  C   1.02082359376885      0.91758008516202     -0.93109368963882
  H   2.11178049672635      0.89162762781594     -0.94096740591685
  H   0.69945039461917      1.83591845927883     -0.43245321830645
  H   0.66674642010354      0.93095074030489     -1.96429718291572
  N   0.90526237721489     -0.39394501937747      1.20983623599762
  H   1.88865974554570     -0.62834649270274      1.27190269432535
  H   0.75601544933558      0.49387461596712      1.67938688843352
  C   -1.58816058632588      0.86815853712094      0.43202111769753
  N   -1.95635208635020      1.85712123146751      0.94725252854040
  C   -1.58506741888825     -1.53459371887419      0.44582417315715
  N   -2.05077350237649     -2.49122458414696      0.94082478639473
