15
Coordinates from ORCA-job run
  C   0.56507220014479     -0.25766162205859     -0.33307448579784
  C   -0.96684151721240     -0.52014590924887     -0.10974373760355
  Cl  0.88605504859430     -0.83044793391906     -2.00392725486362
  H   -1.14596950245031     -1.58482406896319     -0.30215644834797
  C   0.89542140455181      1.21730068327215     -0.22865943719391
  H   0.66636620272568      1.58237424830841      0.77718741755795
  H   0.32844772088642      1.80114338220284     -0.95367843845778
  H   1.96085208676265      1.34776880369406     -0.41682668700085
  N   1.39579322556487     -1.01090588414641      0.55736127107311
  H   1.18709893877765     -2.00176863035021      0.53826262877032
  H   1.33115119744769     -0.65967928163513      1.50547638562629
  C   -1.81756366589481      0.26066934688126     -1.00964122970043
  N   -2.48752032975070      0.89945692462394     -1.73208719335675
  C   -1.30010582517650     -0.23479191695441      1.28859909917333
  N   -1.49925718497115     -0.00948814170678      2.42390811012170
