15
Coordinates from ORCA-job run
  C   0.57318485636412     -0.24413128709864     -0.33002140030237
  C   -0.96694993489433     -0.50362679804736     -0.16926442189263
  Cl  0.94085118030818     -0.72283766408863     -2.02101532538279
  H   -1.14923470286910     -1.55301480238908     -0.43050649076938
  C   0.91236577074633      1.21903323113214     -0.13075319925478
  H   0.37387780165187      1.84896809689482     -0.83869048034586
  H   0.65410503086279      1.52859965629728      0.88658819757227
  H   1.98433337710684      1.34911551461543     -0.27756756490477
  N   1.36964763301100     -1.05550256878562      0.54019280157874
  H   1.15191202691884     -2.04128811828225      0.45981023078724
  H   1.28127295533142     -0.75658332132936      1.50412709294412
  C   -1.78268528336834      0.33823925918811     -1.04646578431316
  N   -2.42431747117010      1.02541150528707     -1.75004090228208
  C   -1.34133086356656     -0.29776641594010      1.23265787748345
  N   -1.57603237643296     -0.13561628745383      2.37194936908200
