15
Coordinates from ORCA-job run
  C   0.57718558819956     -0.23509703599672     -0.32961847081086
  C   -0.95429214225660     -0.53272237595100     -0.15284936889936
  Cl  0.94669699939107     -0.73752174017266     -2.01325921200654
  H   -1.10924375594828     -1.59194328783683     -0.39098029405304
  C   0.87794266916547      1.24035249540238     -0.16165654784392
  H   1.94507885111137      1.39646211856393     -0.31792564775504
  H   0.61735292904857      1.56300901878843      0.85096207406423
  H   0.31842960899826      1.84125148567009     -0.87844039428286
  N   1.40085813311629     -1.00720603890648      0.55105211531948
  H   1.20769707470102     -1.99976088141523      0.49304569477981
  H   1.31118713918734     -0.69057752172766      1.50921469796271
  C   -1.79828398145690      0.26827795359311     -1.04123473183518
  N   -2.46225684349681      0.92583514934889     -1.75227009551477
  C   -1.32467769301230     -0.30908336144196      1.24732371370173
  N   -1.55367457674807     -0.13227597791827      2.38563646717362
