15
Coordinates from ORCA-job run
  C   0.50844495052292     -0.27632936333668     -0.23390734216546
  C   -1.01797156464898     -0.48500482946561     -0.04353801885878
  Cl  0.85289150707068     -0.89100376313203     -1.93182879845147
  H   -1.22709066851155     -1.55502899132517     -0.16807020728701
  C   0.90028580822313      1.18533579209918     -0.17747973268993
  H   1.97176559234872      1.28437609828577     -0.36282876491949
  H   0.37111760197946      1.76174100179409     -0.93590081742448
  H   0.67352171713332      1.58317833229720      0.81415670219091
  N   1.17545694902035     -1.02134003394421      0.76960164135749
  H   2.16784568460579     -0.82404888601721      0.77940420648537
  H   1.03945623260269     -2.01950136931128      0.66229235183643
  C   -1.80475374043975      0.24832919000507     -1.03895516536821
  N   -2.43706014451637      0.84468344853477     -1.82801615346685
  C   -1.41975970166332     -0.08192290394627      1.30877776027452
  N   -1.75415022372709      0.24553627746238      2.38529233848696
