15
Coordinates from ORCA-job run
  C   0.44904055522899     -0.07047553159004     -0.39669564706268
  C   -1.09344628259466      0.06664427177857     -0.26777934389886
  Cl  0.79098604519561     -0.28216469405909     -2.14049502361682
  H   -1.41352949986662      0.94237682367661     -0.84439652454536
  C   1.14160833413104      1.20166431460427      0.07407124386657
  H   0.95748465652458      1.35279501224713      1.14113419737448
  H   0.79205328770572      2.07867339936986     -0.47528034790455
  H   2.21724195065231      1.10349048262639     -0.08194706020789
  N   0.84091293351813     -1.28534927612953      0.27868553356620
  H   0.82484872345756     -1.14345330455413      1.28391721166798
  H   1.77919336269300     -1.55348359451284      0.00725066085287
  C   -1.44363947299621      0.27705392906760      1.14123655039569
  N   -1.66297834459806      0.45351754680750      2.28136858868125
  C   -1.79073247438260     -1.11320111578028     -0.78667010617421
  N   -2.38904377466879     -2.02808826355201     -1.21339993299466
