15
Coordinates from ORCA-job run
  C   0.53666490252873     -0.15485755179309     -0.18890322756965
  C   -0.97481425748492     -0.10216727499782      0.22626129711121
  Cl  0.61363119495559     -1.09832167443939     -1.70959203156452
  H   -1.02040667573443      0.49919447102970      1.14431897292629
  C   1.05506705525692      1.24861913662600     -0.43785872239245
  H   0.48833244604834      1.74716823851863     -1.22422868079128
  H   0.98476639041063      1.84162106693860      0.48015551853587
  H   2.10139995828226      1.18424472993499     -0.73516697253407
  N   1.36088007237767     -0.81750492367739      0.77804516988549
  H   1.42515026386606     -0.28386473033786      1.63645625080853
  H   1.04571310760704     -1.76038361367051      0.97374789341164
  C   -1.46977575670898     -1.44112419580196      0.55202340845115
  N   -1.84754116812287     -2.50981031381632      0.85751369825116
  C   -1.82048103325975      0.54542487493876     -0.77739382782770
  N   -2.47858650002229      1.10276176054767     -1.57437874670166
