15
Coordinates from ORCA-job run
  C   0.49736401285412     -0.23656044503224     -0.15063822371256
  C   -1.05266196979249     -0.29018699144156     -0.18759865502814
  Cl  1.02325477847698     -1.77715927661205     -1.02210758652598
  H   -1.36471994549072     -0.46629469520547     -1.22279202861707
  C   1.02628681064118      0.93640515363338     -0.95317257616481
  H   0.63643186539770      0.91862949561996     -1.97161028986633
  H   0.74281195863890      1.87096266336111     -0.46588905986735
  H   2.11508812891240      0.87902075401882     -1.00815939662894
  N   0.93136170082829     -0.17170333794939      1.19122003288193
  H   1.92884595356272     -0.01443853397279      1.25550593362058
  H   0.68747897417848     -0.99936188258843      1.72301028766374
  C   -1.61910313983949      0.98460270617818      0.26537323295462
  N   -2.06615922799494      2.02240685356012      0.58367471325045
  C   -1.55736343125170     -1.38908277192442      0.64095041913070
  N   -1.93091646912141     -2.26923969164522      1.32223319690914
