15
Coordinates from ORCA-job run
  C   0.57632462511601     -0.23106374258594     -0.21705787635166
  C   -0.98886232094914     -0.36988216184987     -0.25158386652771
  Cl  1.17607157011234     -1.64172055033372     -1.15480031501983
  H   -1.31864114474771     -0.42429058533617     -1.29516713722244
  C   1.00381295070554      1.04598692467015     -0.91591937656656
  H   0.66128548559781      1.91988140367730     -0.35562780055138
  H   2.09203157043260      1.06473537680971     -0.96715441121693
  H   0.59743095224075      1.09306777686238     -1.92745795847665
  N   1.14856709604154     -0.29161227345844      1.09046909763922
  H   0.92291218236109      0.53534353005304      1.63016688122857
  H   0.87781025790896     -1.12716055579650      1.59531703854064
  C   -1.59362323931977      0.80235459113741      0.38686094628571
  N   -2.02033605424678      1.76668849591796      0.90404033173065
  C   -1.41435949315580     -1.58570445658504      0.44475366111500
  N   -1.71942443809744     -2.55662377318226      1.03016078539337
