15
Coordinates from ORCA-job run
  C   0.48959639007789     -0.30226994690709     -0.32549736497523
  C   -1.04069627068659     -0.51587231525273     -0.15110516921090
  Cl  0.86931092196115     -0.78922126941999     -2.00509715649357
  H   -1.23829849638122     -1.56202744622141     -0.40766855116555
  C   0.89092704918655      1.15164120966844     -0.13645778177094
  H   0.63943902092611      1.47271364082110      0.87897381821939
  H   1.96940679570564      1.24721148392146     -0.27414438320212
  H   0.38993700472421      1.80733831119948     -0.85042031734516
  N   1.13304881616510     -1.25384603144746      0.55806962469027
  H   2.10494726743195     -1.36419072477783      0.29244632033315
  H   1.10580729852074     -0.90471666500222      1.51149409241472
  C   -1.83123515798416      0.35898857696599     -1.01937050078471
  N   -2.45456664293898      1.06961442373949     -1.71551807856764
  C   -1.40134442696359     -0.29871802252856      1.25333574429741
  N   -1.62827956974482     -0.11664522475866      2.39095970356087
