15
Coordinates from ORCA-job run
  C   0.45581725245509     -0.14126775225627     -0.37000798738575
  C   -1.09026524889571     -0.00869854015165     -0.28873978631127
  Cl  0.82619345794509     -0.69279674784400     -2.03185162608152
  H   -1.41545731045040      0.72505986294541     -1.03554004589146
  C   1.12228691465534      1.21155266669139     -0.15695378088651
  H   2.20129766946395      1.10320444003847     -0.27911692442918
  H   0.92151631256371      1.56992640544075      0.85625778688978
  H   0.76678082878105      1.95453291384374     -0.87434409421586
  N   0.85639247027957     -1.18861502520030      0.53984681259648
  H   1.80415426073412     -1.48572944596615      0.34120225541458
  H   0.81891466844964     -0.84995454484991      1.49629613349594
  C   -1.46451695858827      0.47913626803406      1.04326042005431
  N   -1.70384048773710      0.88283561991432      2.11973954975128
  C   -1.76124106729596     -1.28223718195398     -0.56332824186352
  N   -2.33803276236013     -2.27694893868588     -0.79772047113730
