15
Coordinates from ORCA-job run
  C   0.57021708833539     -0.24521562952903     -0.33486797291224
  C   -0.96357586507780     -0.52072305292269     -0.13982979525706
  Cl  0.91428668484585     -0.75924720677358     -2.02004958672587
  H   -1.13664141671611     -1.57875554390755     -0.36994196249342
  C   0.89291556981014      1.22658588132252     -0.17556013230601
  H   0.33200715667815      1.83308397811413     -0.88651696793561
  H   1.95994695278221      1.36761513072803     -0.34612447643580
  H   0.65034257073005      1.55562209815232      0.83948805447070
  N   1.39317989834826     -1.02543103848226      0.53956268200233
  H   1.31292301601466     -0.70866986653789      1.49870116042614
  H   1.19062375746430     -2.01608231234028      0.48185034872487
  C   -1.80516660867672      0.28908613883232     -1.02241123798860
  N   -2.46660189673584      0.95334043458669     -1.72958879583617
  C   -1.31454122066999     -0.28137952334205      1.26266661881522
  N   -1.52791568713256     -0.08982948790069      2.40162206345155
