15
Coordinates from ORCA-job run
  C   -0.65698355158534     -0.19616689210157      0.80586681309734
  C   0.75488485834877      0.24612285188132      0.42462100995312
  F   -1.13562430389144      0.76834666287867      1.68341981944370
  H   1.25774716730623      0.71801143360163      1.26724300472552
  H   -0.56373122225133     -1.12990064212000      1.36497671122502
  C   -1.61709700442497     -0.33884132886781     -0.34816885674450
  H   -1.23543189895440     -1.04339460486846     -1.08613962872666
  H   -1.78340710452910      0.63018625103469     -0.82187867091857
  H   -2.57325888317015     -0.70221951128061      0.02963240998301
  N   0.71246518652333      1.25497909521546     -0.68488712048527
  O   0.47431145780908      2.40365824930891     -0.33235134765342
  O   0.84250702576912      0.83941151420333     -1.83034247408179
  N   1.62148479619887     -0.88057712711730     -0.04032915976311
  O   2.81749235098085     -0.61981738447012     -0.11393023650120
  O   1.08364112587047     -1.94879856729814     -0.31773227355319
