15
Coordinates from ORCA-job run
  C   -0.87989986779504      0.33586607067169      0.10371028196372
  C   0.62989372260231      0.28336432701025      0.27341331245810
  F   -1.17999062954378      0.82235027066363     -1.15366164340958
  H   0.90256009002642      0.12323835486888      1.31670516925947
  H   -1.24678723643688      1.06799465761707      0.82712034304020
  C   -1.52515484597064     -1.01660215545575      0.29720522226098
  H   -1.26437798957116     -1.44466640161806      1.26783336993285
  H   -1.21171886076475     -1.70079046740469     -0.49244148399770
  H   -2.60866310659870     -0.90758252359245      0.24454931966591
  N   1.25362625261552      1.59756149864037     -0.12781045943045
  O   2.21419052696378      1.58163524808318     -0.88215787697171
  O   0.74317997452010      2.57385795790100      0.40633447012861
  N   1.24844354339428     -0.82457615506109     -0.50891397784564
  O   1.89097405962639     -1.64698104972382      0.14295061144108
  O   1.03372436693214     -0.84466963260023     -1.71483665849584
