15
Coordinates from ORCA-job run
  C   -0.60477014338713     -0.40048736936181      0.57288536542346
  C   0.64778965677600     -0.14835537730157     -0.24925546499356
  F   -0.63545065845373      0.52051446248165      1.60428466257364
  H   0.65672215117296     -0.71872133364814     -1.17783117408173
  H   -0.50609819674080     -1.39218593842691      1.02117471610739
  C   -1.87639546873652     -0.28343273080817     -0.23588860244411
  H   -2.72480981504121     -0.50102840044015      0.41385795800997
  H   -1.99173068660338      0.72333542886667     -0.63643365839955
  H   -1.88135537239712     -0.99381293048209     -1.06514067554707
  N   1.92177602502363     -0.49623003564725      0.47258637782662
  O   1.84234981016369     -0.96858689417170      1.60019027225206
  O   2.94367215440407     -0.29315762481112     -0.17313139696871
  N   0.73492056412017      1.30099143182972     -0.62623452909589
  O   0.15370281124028      1.60042488865112     -1.66539532705637
  O   1.31967716845911      2.05173242326974      0.14133147639386
