15
Coordinates from ORCA-job run
  C   -0.88049573420340      0.24962340916760      0.12931534285296
  C   0.63706876001904      0.23998437609560      0.19874925371815
  F   -1.25051879565064      0.57923097969642     -1.16210187241066
  H   1.00747489391214     -0.17897213598756      1.13412770654804
  H   -1.23174984318953      1.04978252599988      0.78547079106144
  C   -1.49777245124795     -1.07970920148730      0.49907491493901
  H   -1.21982076394306     -1.37319609942350      1.51344988892064
  H   -1.18118121025455     -1.86133628402681     -0.19094945781161
  H   -2.58320278912990     -0.98679093441604      0.44880093195695
  N   1.25407523445561      1.60736174871265      0.07502905568674
  O   0.51016266553541      2.57474966442746     -0.03244253232376
  O   2.47870733770899      1.61892980377902      0.12620319602876
  N   1.19990196549800     -0.60044387501054     -0.90919076005959
  O   1.31231146099993     -1.79435702227613     -0.64621227040752
  O   1.44503926948992     -0.04685695525073     -1.97132418869955
