18

C	-0.515871	-0.060616	-1.44669
C	0.0	0.0	0.0
Cl	0.275385	-1.432567	-2.303934
H	1.095888	0.0	0.0
N	-1.955595	-0.247824	-1.613414
H	-2.431189	0.505928	-1.128284
H	-2.209587	-1.120192	-1.163688
C	-0.163488	1.164829	-2.180222
N	0.052502	2.166433	-2.754268
C	-0.451998	-1.21124	0.811338
H	-1.528321	-1.194173	1.024056
H	0.07782	-1.202106	1.76685
H	-0.200239	-2.148794	0.311918
C	-0.444668	1.293621	0.681813
H	-0.027358	1.313978	1.691199
H	-0.066835	2.175278	0.159751
H	-1.535571	1.371702	0.771174
Br	3.587747	0.0	0.0
