18

C	0.0	0.0	0.0
C	-0.55043	0.037781	-1.362804
Br	1.974109	0.0	0.0
H	-1.625732	0.022856	-1.166766
C	-0.491437	1.205691	0.775072
H	-0.167347	2.087246	0.357274
H	-0.158059	1.158732	1.772336
H	-1.511363	1.17451	0.740691
C	-0.501549	-1.272095	0.665824
H	-1.506126	-1.236116	0.65209
H	-0.159396	-1.310758	1.644717
H	-0.180029	-2.112273	0.135559
N	-0.210046	-0.981384	-2.221007
H	0.624976	-1.079226	-2.511926
H	-0.736186	-1.135702	-2.888721
C	-0.171432	1.345358	-1.973809
N	-0.04403	2.259027	-2.638766
H	-3.09195	0.0	0.0
