18

C	0.0	0.0	0.0
C	-0.37002	-0.02773	-1.513495
Br	1.969407	0.0	0.0
H	0.351884	0.622639	-2.025148
C	-0.477018	1.301812	0.62278
H	-1.571315	1.274342	0.656772
H	-0.157816	2.164615	0.034346
H	-0.082448	1.392348	1.639048
C	-0.534127	-1.191519	0.766832
H	-1.630278	-1.147381	0.69824
H	-0.242047	-1.122042	1.818505
H	-0.17117	-2.137392	0.359766
N	-1.706642	0.482246	-1.748928
H	-2.429241	0.203474	-1.019664
H	-2.048201	0.145526	-2.642382
C	-0.132647	-1.384775	-2.063364
N	0.010858	-2.438299	-2.566981
H	-3.544654	0.0	0.0
