18

C	0.0	0.0	0.0
C	-0.380682	-0.000417	-1.521431
Br	1.970076	0.0	0.0
H	0.288068	0.721455	-2.00095
C	-0.503	1.273979	0.644455
H	-0.184441	2.159728	0.086345
H	-1.595977	1.218212	0.669012
H	-0.12497	1.355348	1.664993
C	-0.536061	-1.209015	0.733515
H	-1.632437	-1.160846	0.674903
H	-0.177651	-2.14211	0.294821
H	-0.23631	-1.1771	1.784581
N	-1.738035	0.352512	-1.863014
H	-2.449248	0.025696	-1.159029
H	-1.810775	1.361419	-1.83377
C	-0.041099	-1.305735	-2.119891
N	0.250568	-2.325643	-2.623607
H	-3.5663	0.0	0.0
