15

C	0.0	0.0	0.0
C	-0.359167	-0.07751	-1.494837
F	1.394046	0.0	0.0
H	-0.108844	-1.099496	-1.820489
H	0.390016	0.580494	-1.960106
C	-0.52606	1.239322	0.679943
H	-0.090247	1.322779	1.678429
H	-0.258804	2.115013	0.085442
H	-1.616762	1.162465	0.74416
C	-0.389454	-1.225045	0.727482
N	-0.57004	-2.223041	1.318028
N	-1.701058	0.36329	-1.830872
H	-2.397991	0.204692	-1.052411
H	-2.054725	-0.218963	-2.580061
H	-3.540385	0.0	0.0
