17

C	-0.488819	0.054313	-1.435699
C	0.0	0.0	0.0
Br	0.357745	-1.59475	-2.394357
H	1.089936	0.0	0.0
N	-1.897223	0.011782	-1.538511
H	-2.202405	-0.045695	-2.503133
H	-2.26743	-0.769552	-1.012625
C	0.033459	1.142075	-2.26819
N	0.337378	1.971608	-3.044096
C	-0.451227	-1.20919	0.792921
H	-0.322977	-2.115217	0.201046
H	-1.48585	-1.124644	1.138999
H	0.190316	-1.286667	1.67201
N	-0.348891	1.225233	0.695872
O	-0.330854	2.291785	0.059894
O	-0.491334	1.164259	1.929314
H	2.471335	0.0	0.0
