17

C	-0.266526	-0.018705	-1.506163
C	0.0	0.0	0.0
Br	-2.189711	0.453298	-1.898746
H	1.095064	0.0	0.0
N	0.58527	0.825635	-2.30604
H	1.534957	0.566025	-2.005727
H	0.455826	1.765587	-1.944429
C	-0.132225	-1.393898	-2.00438
N	-0.005726	-2.493463	-2.401313
C	-0.516665	-1.172294	0.795266
H	-0.171365	-1.080515	1.824565
H	-1.608521	-1.226026	0.79462
H	-0.102948	-2.093776	0.383581
N	-0.393155	1.273363	0.596951
O	-0.137722	2.316253	-0.023494
O	-0.882966	1.269628	1.735001
H	2.550973	0.0	0.0
