17

C	-0.253025	-0.018704	-1.509411
C	0.0	0.0	0.0
Br	-2.164416	0.473307	-1.927105
H	1.095057	0.0	0.0
N	0.620265	0.81252	-2.299649
H	0.481351	1.75874	-1.957372
H	1.562983	0.556555	-1.968707
C	-0.12897	-1.39713	-2.00201
N	-0.016236	-2.498183	-2.398024
C	-0.525241	-1.169511	0.793322
H	-0.18737	-1.078406	1.824992
H	-1.617479	-1.218334	0.784581
H	-0.113897	-2.093385	0.384905
N	-0.386916	1.275709	0.595419
O	-0.848891	1.27747	1.744978
O	-0.151727	2.315498	-0.038552
H	2.551395	0.0	0.0
