17

C	-0.238856	-0.011285	-1.512971
C	0.0	0.0	0.0
Br	-2.141714	0.489583	-1.950147
H	1.095094	0.0	0.0
N	0.647424	0.819823	-2.28959
H	1.583977	0.569235	-1.936256
H	0.496819	1.767523	-1.95669
C	-0.111845	-1.388262	-2.008961
N	0.003819	-2.489303	-2.403989
C	-0.533843	-1.172206	0.78299
H	-1.625949	-1.220513	0.759751
H	-0.118009	-2.094802	0.37644
H	-0.209972	-1.084712	1.819401
N	-0.388431	1.274157	0.597735
O	-0.148015	2.315803	-0.031028
O	-0.85614	1.272241	1.745052
H	2.55431	0.0	0.0
