13
Coordinates from ORCA-job run
  C   -0.46983486398365     -0.12746104513017      0.53093275080404
  C   0.41342843303716     -0.65310120542098     -0.59233517763225
  Br  0.32280663165577     -0.42767610353533      2.25580497240350
  H   0.53124794138995     -1.73228766977212     -0.51385090534436
  H   -0.02416654856922     -0.38000568076505     -1.55434799702224
  N   -0.76646431618978      1.38967078826164      0.29435775130625
  O   -1.16664608319954      1.61783600775837     -0.83742910909434
  O   -0.62433840795296      2.16524061379305      1.21514484706610
  C   -1.76174271815173     -0.79592052837669      0.46424334678517
  N   -2.79649346950514     -1.35040744267236      0.39063260440454
  N   1.78053845291077     -0.05277086584248     -0.54841833494362
  O   1.85037892682788      1.13569035114904     -0.25159569169346
  O   2.71028602173052     -0.78980721944692     -0.85313905703933
