13
Coordinates from ORCA-job run
  C   -0.46781159881529     -0.15481058534027      0.52474521593151
  C   0.39977197855762     -0.61646915559774     -0.63836363737579
  Br  0.33794224903092     -0.57618717100816      2.21835495656893
  H   0.50310866407189     -1.69990491902849     -0.63256928659018
  H   -0.04041849115257     -0.27274074543441     -1.57623742490717
  N   -0.74780164323252      1.37737531941264      0.39066867135519
  O   -0.57736425330283      2.09123728578100      1.35560163674084
  O   -1.16465581710266      1.68186571632809     -0.71680466206137
  C   -1.76721374847290     -0.80452259008730      0.42624387989526
  N   -2.80633489636760     -1.34527005783396      0.32012002790656
  N   1.77510924710226     -0.03888145870676     -0.56355586147540
  O   2.69720985647882     -0.77548197073196     -0.89184113850697
  O   1.85845845320486      1.13579033224731     -0.21836237748141
