13
Coordinates from ORCA-job run
  C   -0.57153890067083     -0.24135551276076      0.48319469580449
  C   0.81006020024295     -0.67167676675549      0.03385440110829
  Br  -1.01850870680438     -1.27528419190510      2.06854470478578
  H   0.81965932792308     -1.73014231917594     -0.22544176440793
  H   1.54376516800832     -0.47026086839060      0.81309760942149
  N   -0.55979749441821      1.23421999065295      0.92381605936838
  O   0.48443626246003      1.62667743767278      1.41905752277630
  O   -1.60314869025731      1.84906828245515      0.78351530573221
  C   -1.59598123361819     -0.44419836912350     -0.52554825932631
  N   -2.40395787039729     -0.68584044284937     -1.34479656320812
  N   1.25052063191338      0.08473494748584     -1.18365986693054
  O   2.28086465021979     -0.31504404983613     -1.70759889227922
  O   0.56362665539867      1.03910186253017     -1.53903495284482
