13
Coordinates from ORCA-job run
  C   -0.48500919387836     -0.23574353001809      0.57304975756541
  C   0.80608278234053     -0.67132531636649     -0.09046084638164
  Br  -0.66971805896948     -1.25579841159498      2.21826789292374
  H   0.77777195636687     -1.73348689772386     -0.33226315326247
  H   1.65597440618863     -0.45511412529307      0.55557818015671
  N   -0.40168621832580      1.24325559088137      0.99301808010669
  O   0.70369413942207      1.62872408632698      1.33899671527851
  O   -1.44787633113901      1.86870553417272      0.98777258766326
  C   -1.65819205228222     -0.44599074208951     -0.25622396183698
  N   -2.58651677080966     -0.69204080350574     -0.93456514643212
  N   1.03706439365271      0.06813062065133     -1.37434280424535
  O   1.95283933201408     -0.35230564808485     -2.06743212778416
  O   0.31557161541963      1.03398964264419     -1.61039517375162
