13
Coordinates from ORCA-job run
  C   -0.43796110722234     -0.22537632579820      0.52568619792098
  C   0.33118325040177     -0.51577733077899     -0.75561468944052
  Br  0.45646358274332     -0.94442364524365      2.06705917174151
  H   0.38989569159527     -1.58791382552599     -0.93354240949532
  H   -0.15548618086812     -0.01012836968901     -1.59175032609530
  N   -0.66150484340042      1.31650421638901      0.66189776815152
  O   -0.40599143313081      1.85428800594390      1.71789523268711
  O   -1.12963773753536      1.81347546198762     -0.35126021618131
  C   -1.76798128382099     -0.80802236700983      0.41574871587714
  N   -2.83433430269894     -1.29066460848209      0.29990337068408
  N   1.73125898391106      0.00005294187991     -0.68904378871067
  O   1.88867607036683      1.09489635966582     -0.15777191319126
  O   2.59541930965875     -0.69591051333849     -1.20820711394794
