13
Coordinates from ORCA-job run
  C   -0.44197445540802     -0.23994975091725      0.51546018871802
  C   0.32804528776280     -0.49024640154651     -0.77409597213854
  Br  0.44070293621902     -1.02570863938493      2.03082017204251
  H   -0.15073305082763      0.05224140171930     -1.59145994034108
  H   0.37490039825495     -1.55571734063417     -0.99126372770988
  N   -0.64936123780617      1.29795831817630      0.70881450083610
  O   -0.38517402261082      1.79465048149088      1.78273545293068
  O   -1.11574407109663      1.83609667542233     -0.28410755638065
  C   -1.77751029745705     -0.80417659535983      0.37976603406290
  N   -2.84821718944241     -1.27099306166570      0.24181185627945
  N   1.73334662721485      0.00696234294330     -0.68303457150002
  O   2.59376416270348     -0.68241328457973     -1.21694049153082
  O   1.89895491249365      1.08329585433604     -0.11750594526869
