13
Coordinates from ORCA-job run
  C   -0.37037771575819      0.05616306337396      0.54374073000001
  C   0.80279349397525      0.28061253475644     -0.40918477308182
  Br  0.17340849944717     -0.38183913485732      2.34864385337536
  H   1.59689845093201      0.83803766887160      0.08508247036855
  H   0.45757641689689      0.80948510385148     -1.29652043414254
  N   -1.12966262001441      1.39681773210929      0.66000407486414
  O   -2.32034159922752      1.33063958716280      0.91661928528199
  O   -0.44621990471728      2.40218175348223      0.52572120540470
  C   -1.29279565563574     -0.94800524523466      0.04038159683183
  N   -2.00329910706007     -1.77224780708260     -0.40611678370122
  N   1.36603988061214     -1.02136926795873     -0.88324187734317
  O   1.44242183922072     -1.16929500873681     -2.09941304640548
  O   1.72155802132903     -1.82118097973768     -0.02471630145236
