13
Coordinates from ORCA-job run
  C   -0.53049684831150     -0.13860828635396      0.56421556893353
  C   0.84039263471962     -0.62020775310430      0.13339827845746
  Br  -0.83818207444567     -0.79148204299798      2.37005911350040
  H   1.60871656382077     -0.21485730836544      0.79051790316013
  H   0.88450187839869     -1.70898551543933      0.12995793695379
  N   -0.55743895185839      1.39823247340883      0.65398094121603
  O   0.48824407808144      1.92157056116319      1.00444149974797
  O   -1.62501236786120      1.93688975017856      0.41746783275374
  C   -1.60108509943343     -0.59981300478480     -0.30136938153862
  N   -2.44226227635470     -1.04719012242027     -0.99035450697329
  N   1.16939904050188     -0.16033497725688     -1.25546016629767
  O   0.43370862598692      0.68239035718747     -1.76305864993508
  O   2.16951479675557     -0.65860413121512     -1.75279636997839
