13
Coordinates from ORCA-job run
  C   -0.47278611161667     -0.11984263477540      0.52987149713832
  C   0.40809301134562     -0.65839685509146     -0.58949611460369
  Br  0.31501849363793     -0.42012176495248      2.25687763985977
  H   0.51310118819428     -1.73861737995137     -0.50790353304187
  H   -0.02336604590865     -0.38164087002975     -1.55324415385235
  N   -0.75450310437891      1.39887867341020      0.28650234855718
  O   -1.15984234693049      1.62459109971951     -0.84393458514315
  O   -0.59705803528883      2.17838121332887      1.20161647788707
  C   -1.76992570370304     -0.77793752540883      0.46224916946296
  N   -2.80673972230849     -1.32770346325440      0.38360209041122
  N   1.78122105350069     -0.07318131870744     -0.54080523443691
  O   1.85864222511376      1.12264957074379     -0.27671521646682
  O   2.70814509834279     -0.82805874503125     -0.80862038577173
