13
Coordinates from ORCA-job run
  C   -0.38265061416658     -0.00632196076030      0.48925257668201
  C   0.75506918231588      0.22638926524091     -0.50018441302619
  Br  0.25510880482496     -0.95282850665157      2.04153648930900
  H   0.37260152246670      0.68402950560928     -1.41221104283828
  H   1.52652891834937      0.84731817883351     -0.04908623056356
  N   -0.90392539665305      1.40292915274478      0.92033454099339
  O   -0.80712250069751      2.26181325753197      0.05283125504138
  O   -1.40467420293589      1.50967326311372      2.02264236541300
  C   -1.54384630782002     -0.67902619254907     -0.07316674727094
  N   -2.52695931941362     -1.15767636687924     -0.50730733040128
  N   1.39625069174630     -1.06528908260266     -0.88888771017697
  O   2.61968662419955     -1.11368386761852     -0.82303709505916
  O   0.64593259778391     -1.95632664601282     -1.27371665810240
