13
Coordinates from ORCA-job run
  C   -0.46892838399231     -0.02590843771169      0.42782176768373
  C   0.80228181564230      0.25494357050375     -0.35856131779350
  Br  -0.07133288582785     -0.91069046476607      2.10430133501804
  H   0.56188097569390      0.78305530181241     -1.28534565836260
  H   1.49174010545674      0.85326496589237      0.23060346836666
  N   -1.09037949317535      1.34474302418751      0.81322122427029
  O   -0.30961314679200      2.28110168882373      0.90990250823487
  O   -2.29136326046455      1.35228544192527      1.02372566324041
  C   -1.47502424831322     -0.76197099391288     -0.31722275280694
  N   -2.30452940003292     -1.31169714402022     -0.94406542978610
  N   1.53313590182066     -0.99123380908746     -0.75744524637528
  O   2.70803057645694     -0.82043939353798     -1.05956610792381
  O   0.91510144352765     -2.04945375010873     -0.78736945376577
