13
Coordinates from ORCA-job run
  C   -0.47051588995765     -0.14812866965330      0.52530488334804
  C   0.40058274298859     -0.62476893388349     -0.62930471934094
  Br  0.32562704356678     -0.55366063940777      2.22675877682448
  H   0.50088090662882     -1.70834862616438     -0.61186674236712
  H   -0.03549677305045     -0.28988762996324     -1.57226004795686
  N   -0.74447559357897      1.38363131368703      0.37294907198877
  O   -0.57767093926331      2.10719628936757      1.33128648905654
  O   -1.15452939016633      1.67769118064955     -0.73989188964723
  C   -1.77174749100731     -0.79407861708529      0.42692947060353
  N   -2.81184342435615     -1.33287070511874      0.32072489295776
  N   1.77711853031803     -0.05006571989489     -0.55573618275703
  O   1.86298884562282      1.12736192118871     -0.22093956550448
  O   2.69808143225513     -0.79207116372173     -0.87495443720546
