13
Coordinates from ORCA-job run
  C   -0.40878861826419     -0.04980347880114      0.50276508650498
  C   0.73396488210558      0.25444598189789     -0.46403691519876
  Br  0.22757444810275     -1.01382734404812      2.03627406745377
  H   0.33540076938924      0.73299174121209     -1.36026272967495
  H   1.47759149588614      0.88323339279248      0.02424599712844
  N   -0.93189014825917      1.36632871413205      0.91320202948038
  O   -0.79140086397964      1.74046357329441      2.06112960244658
  O   -1.41710283151002      1.98070515974267     -0.02773727781097
  C   -1.53878359194690     -0.74199142536595     -0.09522848306437
  N   -2.48962325137543     -1.26716011017935     -0.54624477504957
  N   1.43020241811738     -0.99279644140139     -0.89848386358719
  O   0.71879509596243     -1.89707882232459     -1.32288250502491
  O   2.65406019577184     -0.99351094095106     -0.82274023360343
