13
Coordinates from ORCA-job run
  C   -0.42975775549113     -0.21329811573545      0.62379956369990
  C   0.90091958969951     -0.54423973278726     -0.02163965180878
  Br  -0.41605137335420     -0.97295396194506      2.41382691077345
  H   1.71841383947018     -0.09920613228218      0.54415922001263
  H   1.03757238694946     -1.62287198401075     -0.09459506789196
  N   -0.57598091424237      1.30870939008801      0.80550151993257
  O   -1.70873998636093      1.75552957000021      0.75096662646667
  O   0.46036253874164      1.91105222829138      1.03675023663870
  C   -1.57026742063019     -0.73300102236682     -0.10917935800661
  N   -2.46045857126799     -1.22554839538361     -0.69856010092281
  N   0.98556938005191      0.00741468897848     -1.41339710078336
  O   0.11383212791463      0.79899364191352     -1.76359862206690
  O   1.94358615851947     -0.37058017476048     -2.07303417604351
