13
Coordinates from ORCA-job run
  C   -0.50913327082040     -0.15025076969366      0.58072512635775
  C   0.83813310268261     -0.63209325706471      0.08148909317734
  Br  -0.75327199033249     -0.85368032622463      2.37693471497817
  H   1.63650241303315     -0.25365045122935      0.71857657790148
  H   0.87046201157597     -1.72064526535886      0.04450994660641
  N   -0.51554704886605      1.38367389501734      0.71684007031785
  O   0.54877244622353      1.88588766985543      1.04120233701078
  O   -1.58547770504875      1.93978736991910      0.53862308247989
  C   -1.61802039023139     -0.57445816635922     -0.25512058075151
  N   -2.49088577424830     -0.99273078717661     -0.92258094382040
  N   1.11643009901802     -0.13482581186203     -1.30567833167620
  O   0.37167054490179      0.73117338880087     -1.75769012059945
  O   2.08936556211230     -0.62918748862366     -1.85783097198210
