13
Coordinates from ORCA-job run
  C   -0.41608576819864      0.03669112439879      0.44518757631778
  C   0.78385898128094      0.21537391048282     -0.47621516567602
  Br  0.12063594466956     -0.79897582511024      2.11009256409084
  H   1.54223789957258      0.82153939685025      0.00942627059909
  H   0.46123505259589      0.66380957437478     -1.41842172811605
  N   -0.94521398695684      1.44780988964641      0.81881621007665
  O   -0.13881670410795      2.36378292960693      0.74043450446535
  O   -2.10485911176578      1.50575342771313      1.19022304612766
  C   -1.52158582607952     -0.69879007737223     -0.14298125967845
  N   -2.43429582943103     -1.26697258856948     -0.62001907270845
  N   1.39856778242399     -1.10700649961025     -0.80073011878483
  O   2.55484604000727     -1.28329840128023     -0.42971673645150
  O   0.69847552598954     -1.89971686113069     -1.42409609026206
