13
Coordinates from ORCA-job run
  C   -0.56165192751759     -0.23271219551101      0.49978660295664
  C   0.66262935953432     -0.79466830969588     -0.19453215762214
  Br  -1.05966229926203     -1.47929447770833      1.90652258275376
  H   1.48995427300415     -0.88337201003819      0.50846114855797
  H   0.44323949815707     -1.76430838829324     -0.64080210081978
  N   -0.21929677844862      1.09344902224086      1.20390765795024
  O   -1.11941052252231      1.91096226345843      1.28872738723553
  O   0.91303770634922      1.17142838775129      1.65314181054423
  C   -1.69114796001690     -0.03895240110776     -0.39176272592671
  N   -2.59873512323493      0.04181353659145     -1.13486235514432
  N   1.12585071015002      0.10617156422797     -1.30011052926495
  O   0.62633235183116      1.22656806343222     -1.36557115751449
  O   1.98886071197645     -0.35808505534782     -2.03190616370598
