13
Coordinates from ORCA-job run
  C   -0.46899798009880     -0.13711815944839      0.61645209113371
  C   0.85432931976583     -0.61346157947725      0.05196776805649
  Br  -0.58524206996354     -0.77333523296376      2.45061229903868
  H   1.68232885145386     -0.19605682310128      0.62354281409456
  H   0.90701368002856     -1.70186615370339      0.05378064031149
  N   -0.49848992474040      1.40068849375571      0.69463558218543
  O   -1.58860167443137      1.92981374487960      0.56285779710255
  O   0.57333441393020      1.93426451994503      0.93253772373948
  C   -1.61892753993332     -0.61405212763934     -0.13063382938787
  N   -2.52268289226487     -1.07385502068942     -0.72579870840546
  N   1.03604804049737     -0.16440808978931     -1.36710444015011
  O   0.24542814061031      0.66803796911287     -1.80423103609944
  O   1.98445963514617     -0.65965154088106     -1.95961870161950
