13
Coordinates from ORCA-job run
  C   -0.47052415588044     -0.11399330808143      0.53228101087328
  C   0.40582715256659     -0.66514042737962     -0.58454851402344
  Br  0.32413490826409     -0.39427421551517      2.25942048480709
  H   -0.02907173165031     -0.39747487421147     -1.54928450320328
  H   0.51071744483139     -1.74444175717665     -0.49175751226618
  N   -0.75347952715094      1.40206948821313      0.27277247527235
  O   -1.16384596823043      1.61514036118699     -0.85819991051708
  O   -0.59188151100884      2.19180778362585      1.17830503024273
  C   -1.76821839575296     -0.77218814134807      0.47756629967924
  N   -2.80535175787803     -1.32255419997306      0.40778381923667
  N   1.77924980867844     -0.08011216149898     -0.54526347769154
  O   1.85721131422686      1.11972499829309     -0.29948443416450
  O   2.70623241898457     -0.83956354613463     -0.79959076824534
