13
Coordinates from ORCA-job run
  C   -0.44029714773403      0.02802960814270      0.42149074625519
  C   0.82068714837937      0.20825628405677     -0.41402635996937
  Br  -0.04436093513003     -0.93660422848701      2.05576868022744
  H   0.57658737570575      0.73105487601560     -1.34129778263929
  H   1.57354002427198      0.74508510163690      0.15451858574578
  N   -0.92978665755353      1.43583075360359      0.85671390030168
  O   -0.08032999663753      2.31487471438719      0.88984033129362
  O   -2.10711924156149      1.52509958547763      1.16029158020941
  C   -1.53812267873813     -0.61553117177561     -0.27831825666470
  N   -2.44360111416143     -1.10797165612308     -0.84500731916131
  N   1.39507718932324     -1.11847587450461     -0.79008231065198
  O   2.51514176578438     -1.37634474683794     -0.36023692028650
  O   0.70258426805144     -1.83230324559212     -1.50965487465996
