13
Coordinates from ORCA-job run
  C   -0.53851942257985     -0.20902685655469      0.53416515572200
  C   0.63059969019054     -0.81513186212099     -0.21603039001686
  Br  -0.98913768665270     -1.41763020770810      1.98944432781102
  H   1.49311900700509     -0.91334513061032      0.44192505431400
  H   0.36244332931280     -1.78604350683421     -0.63178174477933
  N   -0.12385246726078      1.11919952244997      1.19349700424175
  O   1.03347745659079      1.17517672145177      1.57770059056975
  O   -0.99679209555864      1.96153476108468      1.31289504481997
  C   -1.71066033491866     -0.00103083410008     -0.29702646356236
  N   -2.65623550583367      0.09086255272803     -0.98975959852034
  N   1.05418047083248      0.05427348248370     -1.36191478557084
  O   1.86340481988070     -0.44479717217702     -2.13127459205203
  O   0.57997273899189      1.18595852990725     -1.42083960297674
