13
Coordinates from ORCA-job run
  C   -0.39844379629813      0.05364897585098      0.51137153509229
  C   0.70513099761490      0.17693263995156     -0.53751431333183
  Br  0.32796953549529     -0.44124005299444      2.21803420853839
  H   1.40713828149814      0.95841679795326     -0.24878479920507
  H   0.25997935098721      0.38335253418440     -1.51249755902214
  N   -1.01524586632244      1.49018828306439      0.56480307485477
  O   -0.86515601159835      2.16328976247061      1.56578829041069
  O   -1.57481296121220      1.80193830840607     -0.47835036289329
  C   -1.48379629493404     -0.84214601096951      0.14634748869869
  N   -2.39003988070739     -1.54722223215639     -0.10846273082553
  N   1.48510684565877     -1.08966313100844     -0.66454219423415
  O   0.83644607795035     -2.11867201349744     -0.82043376467213
  O   2.70672372186790     -0.98782386125503     -0.63475887341068
