13
Coordinates from ORCA-job run
  C   -0.34396456160822      0.10636310214919      0.49762030959205
  C   0.63973641397600      0.14367915173108     -0.66315080314225
  Br  0.59772391847152     -0.13953628672587      2.17362230598413
  H   1.33713522548140      0.96693271909315     -0.54318928467431
  H   0.09969994995161      0.23610166996417     -1.60889957411765
  N   -1.03471974121375      1.49602132263234      0.58995029650917
  O   -0.48249912882038      2.41789386665003      0.00571581587957
  O   -2.05019997402446      1.54194266616642      1.26209759700895
  C   -1.40348798677844     -0.87824550674854      0.36408499098470
  N   -2.29818449363224     -1.63145581732966      0.23903597223817
  N   1.44683150979738     -1.11330129829744     -0.74041483311777
  O   0.84717033758064     -2.17534493309699     -0.61236017464754
  O   2.64375853081893     -0.97105065618787     -0.96511261849721
