13
Coordinates from ORCA-job run
  C   -0.36912156054173      0.06045327770138      0.51508523594604
  C   0.71956124145792      0.16406741371597     -0.54172899969241
  Br  0.34715873417847     -0.56958078871595      2.20016130249029
  H   0.30552649163377      0.56578163381356     -1.47036736958533
  H   1.52630233771780      0.80684293456565     -0.19986015512430
  N   -0.89080565060197      1.49726452145571      0.79089299711251
  O   -0.11477371401206      2.40931246955793      0.54144670717197
  O   -2.01061421277808      1.58166132912289      1.26555988672455
  C   -1.51128939057990     -0.73989064110822      0.10914190395879
  N   -2.45671458994473     -1.34259783452038     -0.24573862421262
  N   1.33143258407091     -1.16006998076338     -0.88805641943286
  O   2.40316338220969     -1.08773678704225     -1.47676103851662
  O   0.72217434718990     -2.18350754778293     -0.59777542684000
