13
Coordinates from ORCA-job run
  C   -0.47223360116058     -0.10709787074442      0.53297235979395
  C   0.40230586532352     -0.67188129394208     -0.57772263718525
  Br  0.31681355340443     -0.38129921859852      2.26391926242288
  H   0.50031825540368     -1.75115461220389     -0.47677090322131
  H   -0.02885185796046     -0.41049879229431     -1.54603627556618
  N   -0.74422955024102      1.40948540201372      0.26261170980129
  O   -0.57617781967725      2.20462496158523      1.16214217182045
  O   -1.15339539559014      1.61665177491090     -0.86982293649748
  C   -1.77436066755658     -0.75671845106481      0.48047976624480
  N   -2.81610250792309     -1.29906123871013      0.41695731384215
  N   1.77994383352065     -0.09593619503794     -0.54377207792179
  O   2.69992416306328     -0.86181487246471     -0.80367066256486
  O   1.86704572939355      1.10370040655096     -0.30128709096863
