13
Coordinates from ORCA-job run
  C   -0.46079772931285     -0.14547027688571      0.53335435226853
  C   0.40268316038093     -0.63279462250482     -0.62228098891130
  Br  0.36324200482979     -0.50406595456303      2.23195860175105
  H   -0.05036028156788     -0.32467287846520     -1.56646870634328
  H   0.51889298365636     -1.71429185536856     -0.58383755159516
  N   -0.76025602793818      1.37929260315676      0.35416622961995
  O   -0.59508647004602      2.12367418507520      1.29664028289177
  O   -1.18584414066176      1.64518227879808     -0.75989538307206
  C   -1.75454770453582     -0.81032372747217      0.46564644854820
  N   -2.79182416347289     -1.35901753872444      0.38611642383428
  N   1.77094560390794     -0.03620934024893     -0.57712277571464
  O   1.84131482867524      1.15067293273208     -0.27312731960294
  O   2.70063793608514     -0.77197580552927     -0.88514961367441
