13
Coordinates from ORCA-job run
  C   -0.47329398660019     -0.12952207444835      0.52724466782145
  C   0.40379213788080     -0.64723555166327     -0.60475599223276
  Br  0.31367329916181     -0.47395483828879      2.24635121334758
  H   0.50241329374874     -1.72967254503626     -0.54834654816691
  H   -0.02612135309053     -0.34494241207103     -1.56151300692002
  N   -0.74619224482894      1.39661928988117      0.31920622416204
  O   -1.15076992984369      1.65081390479144     -0.80533569386304
  O   -0.58299296254324      2.15372865920629      1.25183649542724
  C   -1.77458001418659     -0.77753807051164      0.44489287022732
  N   -2.81485559715398     -1.31857830380128      0.35280618077800
  N   1.78057127801953     -0.07183033959025     -0.54275524007321
  O   2.70315542904556     -0.82649269754978     -0.82562202564298
  O   1.86520065039071      1.11760497908175     -0.25300914486468
