14

C	0.0	0.0	0.0
C	-0.469997	-0.004493	-1.445367
Cl	1.766304	0.0	0.0
H	-1.565168	0.091368	-1.456911
H	0.008698	0.812843	-1.978766
N	-0.396424	1.353035	0.629686
O	-0.500812	1.37481	1.843836
O	-0.458138	2.302565	-0.137101
C	-0.45952	-1.082	0.861185
N	-0.63895	-2.012627	1.557087
N	-0.111595	-1.24796	-2.177603
O	0.215426	-2.251488	-1.550624
O	-0.206138	-1.1724	-3.40062
Br	-3.407695	0.0	0.0
