13

C	0.0	0.0	0.0
C	-0.302135	0.992022	-1.147249
Cl	1.839586	0.0	0.0
H	0.106552	1.958818	-0.836089
H	-0.256409	0.422817	0.977424
H	0.297843	0.655529	-1.996575
N	-0.545961	-1.294896	-0.263375
H	-1.556446	-1.162444	-0.346838
H	-0.39734	-1.902102	0.53461
N	-1.659633	1.16968	-1.595095
H	-2.012496	0.317729	-2.011096
H	-2.30327	1.347527	-0.831791
Cl	-4.135077	0.0	0.0
