13

C	0.0	0.0	0.0
C	-0.456241	0.111329	-1.435028
Cl	1.854692	0.0	0.0
H	-0.15064	-0.808201	-1.962555
H	-0.27701	0.896067	0.550057
H	-1.549197	0.134867	-1.37169
N	-0.507446	-1.149091	0.613712
H	-0.198834	-2.005462	0.180244
H	-0.396065	-1.173989	1.61366
N	0.039858	1.338152	-2.051208
H	1.003623	1.216382	-2.336319
H	-0.511221	1.539279	-2.874917
Cl	-3.938774	0.0	0.0
