13

C	0.0	0.0	0.0
C	-0.451617	0.016073	-1.451147
Cl	1.804266	0.0	0.0
H	-0.138319	-0.936087	-1.912687
H	-0.290613	0.943464	0.461308
H	-1.543778	0.035415	-1.406048
N	-0.511969	-1.083315	0.785976
H	-1.514389	-0.898249	0.882512
H	-0.423044	-1.94378	0.254278
N	0.022289	1.20333	-2.157487
H	0.96422	1.055541	-2.495606
H	-0.576541	1.378572	-2.953212
Cl	-3.682212	0.0	0.0
