13

C	0.0	0.0	0.0
C	-0.472751	0.194216	-1.426103
Cl	1.873255	0.0	0.0
H	-0.040812	1.119407	-1.829397
H	-0.233859	0.865561	0.61779
H	-1.56043	0.299801	-1.35257
N	-0.53342	-1.16114	0.531511
H	-0.312619	-1.358341	1.491319
H	-0.464038	-1.944728	-0.097501
N	-0.152537	-0.996031	-2.214577
H	-0.833789	-1.110876	-2.950779
H	0.765845	-0.906073	-2.628267
Cl	-4.125405	0.0	0.0
