13

C	0.0	0.0	0.0
C	-0.451151	0.614118	-1.325302
Cl	1.798081	0.0	0.0
H	0.035766	0.052995	-2.128
H	-0.272117	0.66991	0.823976
H	-1.530088	0.467297	-1.39483
N	-0.496895	-1.341257	0.114115
H	-1.511462	-1.256333	0.006427
H	-0.332242	-1.682584	1.05462
N	-0.17485	2.036936	-1.484665
H	0.780098	2.230112	-1.207245
H	-0.789587	2.549551	-0.863856
Cl	-3.619172	0.0	0.0
