14

C	-0.518073	0.02557	-1.419756
C	0.0	0.0	0.0
Br	0.111615	-1.647895	-2.373303
H	1.092077	0.0	0.0
H	-0.036335	0.81408	-2.000101
H	-0.336329	-0.921218	0.490093
N	-1.937407	0.167674	-1.492184
H	-2.380115	-0.597464	-0.993805
H	-2.252412	0.139088	-2.453796
C	-0.471655	1.230149	0.776763
H	-0.000978	1.237137	1.763098
H	-0.161042	2.144071	0.262795
H	-1.556615	1.262035	0.894739
Br	3.763199	0.0	0.0
