18
Coordinates from ORCA-job run
  C   0.65534810437619      0.02248262883928      0.57017021179086
  C   -0.83713942238630      0.05750249764902      0.21408994592734
  Cl  0.98298198464628      1.15372724273881      1.91281045533566
  H   -1.38524504709416     -0.01450060967076      1.15940115732402
  N   0.94255399318257     -1.36828671863469      1.15166444588888
  O   0.05540457938164     -1.87206950784699      1.83486139349472
  O   2.03645183187070     -1.86930490254833      0.92413899090957
  C   1.59121753497108      0.29142511020053     -0.57833116282448
  H   2.62480508922648      0.16009079596536     -0.26635899656843
  H   1.36273893533503     -0.40371353898518     -1.38670831375879
  H   1.45605384973407      1.31692487303298     -0.92176946883015
  N   -1.08723323500990     -1.08240426918300     -0.66499500708774
  H   -1.82391006792954     -0.86838078242220     -1.32418080556215
  H   -1.37001400972387     -1.88858787918528     -0.12289266539632
  C   -1.21824869711427      1.35053750408614     -0.48997062373598
  H   -0.79583337787063      1.38046523185262     -1.49673689783314
  H   -2.30631456548693      1.40523594826016     -0.57648956075495
  H   -0.88161748010843      2.22885637585152      0.06129690168108
