18
Coordinates from ORCA-job run
  C   0.52070731398692     -0.36696678724170      0.37316217362129
  C   -0.58797784044847      0.46125606607065     -0.33264204300870
  Cl  -0.15724870791289     -1.32109040828057      1.70129753486681
  H   -0.05826642353798      1.01046560861483     -1.11818559905754
  N   1.08694106114108     -1.30678027552170     -0.68734893700076
  O   0.90201744932466     -2.51265815688798     -0.61212353299954
  O   1.67278388211989     -0.72143671071261     -1.59713531892756
  C   1.66675906085639      0.47623036500313      0.89705456274081
  H   2.06965758964561      1.09550774952042      0.09531364851307
  H   1.31181466597173      1.10831687422729      1.71065717543944
  H   2.45955616904292     -0.16386467747738      1.28828600181397
  N   -1.23157083769829      1.43684086380259      0.52209567265758
  H   -1.67655150269866      0.98691500176551      1.31280165876435
  H   -0.57980326330716      2.13031828321842      0.86431067923571
  C   -1.64384561771577     -0.42114608078822     -0.98242437406955
  H   -2.36202835695665      0.22527104663940     -1.48720489321020
  H   -1.21614704855391     -1.10602362864148     -1.71644210628868
  H   -2.17779759325944     -1.01115513331059     -0.23447230309048
