18
Coordinates from ORCA-job run
  C   0.64493211368493     -0.04072888785086      0.58146844590362
  C   -0.83802985004706      0.07749445517769      0.20373258324034
  Cl  0.99001829561653      0.98820697836997      2.00022921122270
  H   -1.40641381223048     -0.03130701841470      1.13344346902565
  N   0.86484158187451     -1.47596703993075      1.07469777579299
  O   -0.04953437674696     -1.98022866072968      1.72040687720871
  O   1.93576059873027     -2.01210106487242      0.81975728670101
  C   1.61255242355433      0.26510003461536     -0.53106787025714
  H   1.52414336195629      1.31544592800430     -0.80796478267831
  H   1.37275560053279     -0.36606101303228     -1.38720362388230
  H   2.63405353048035      0.07236284936352     -0.21126890252880
  N   -1.11628548415023     -0.99384378786093     -0.74996896455486
  H   -1.43774841492798     -1.82137852895043     -0.26460613455896
  H   -1.83381882005054     -0.71029504636147     -1.40393888309287
  C   -1.15422487060883      1.42674534388164     -0.42257667228670
  H   -2.23747377241593      1.53083739291846     -0.52291773674353
  H   -0.79356022032259      2.25404095310133      0.18908327618651
  H   -0.71196788492939      1.50267711257125     -1.41830535469805
