18
Coordinates from ORCA-job run
  C   0.58869676519539     -0.29361696554898      0.33565752001970
  C   -0.65879437150691      0.38895223082155     -0.29113739879614
  Cl  0.14287921101347     -1.20628400295597      1.78592144342478
  H   -0.26587622279551      0.93016006964079     -1.15833562451353
  N   1.12190257934695     -1.25444228062104     -0.72290289585520
  O   1.05317457846134     -2.46309948520683     -0.55585462083445
  O   1.55312413912545     -0.68651917029611     -1.72530716910799
  C   1.70267155894800      0.67610306770982      0.67835228872260
  H   2.58394433621164      0.13289481946900      1.02424742988639
  H   1.96634761170778      1.26479372071851     -0.20056012370723
  H   1.37740006261926      1.33612161534523      1.48218681879446
  N   -1.30055609874527      1.35712347676838      0.57303562370542
  H   -0.68247870832441      2.12030350626628      0.81471123325829
  H   -1.62806079738248      0.91894457694438      1.42532195409543
  C   -1.68773166338026     -0.62270207532545     -0.77477224423221
  H   -1.27856414009210     -1.29984291952151     -1.52633082194325
  H   -2.07140037997595     -1.22185384879310      0.05377852362112
  H   -2.51967846042640     -0.07503633541497     -1.21801193653816
