18
Coordinates from ORCA-job run
  C   0.69484108714230     -0.14113453262582      0.57596233427404
  C   -0.75659620388544      0.32247943437198      0.33782255969251
  Cl  0.95907913884112     -0.63450868116391      2.25856674292508
  H   -0.79387795178373      1.33092312028369      0.76701208446317
  N   0.91150385622020     -1.38131374894819     -0.29038669426105
  O   1.70333074462629     -1.29095477574993     -1.22374175057678
  O   0.21850286908393     -2.36232900314799     -0.03813533865147
  C   1.72128684062872      0.91441418002316      0.22235562502781
  H   1.58219415965659      1.76210694057065      0.89471219373773
  H   2.72833839664601      0.52240576981292      0.35741810653855
  H   1.61729297922996      1.24625569695321     -0.80884580338027
  N   -1.71840864274333     -0.47854929777138      1.07683845254260
  H   -2.64589643879817     -0.10247677842366      0.92213970394064
  H   -1.70321308648831     -1.43556264317438      0.74551222033012
  C   -1.05395255123901      0.41667966646765     -1.16532475567197
  H   -2.02926545219273      0.89063527296624     -1.29894109115010
  H   -1.11035563841772     -0.58121917636684     -1.60779463731560
  H   -0.32280410652663      1.00414855592260     -1.72416995246507
