17

C	0.0	0.0	0.0
C	-0.441961	-0.125898	-1.475157
F	1.35674	0.0	0.0
H	-1.489427	-0.418952	-1.37675
N	-0.370808	1.259838	0.763463
O	-0.142062	2.326111	0.197038
O	-0.706305	1.14306	1.932991
C	-0.461064	-1.161929	0.774314
N	-0.56476	-2.161606	1.383503
N	0.361555	-1.229707	-2.012185
H	1.208629	-0.879677	-2.444368
H	-0.182741	-1.705198	-2.718814
C	-0.356073	1.149697	-2.300511
H	-0.587888	0.886196	-3.338488
H	0.639487	1.603505	-2.26982
H	-1.085966	1.877959	-1.953794
F	-2.454409	0.0	0.0
