17

C	0.0	0.0	0.0
C	-0.330112	-0.143206	-1.544913
F	1.363855	0.0	0.0
H	0.634688	0.111621	-1.998922
N	-0.344767	1.351645	0.588308
O	-0.667442	1.41414	1.766746
O	-0.128529	2.319016	-0.139485
C	-0.484057	-1.049761	0.892698
N	-0.55966	-1.984222	1.60248
N	-1.337654	0.684047	-2.159786
H	-2.139291	0.556043	-1.521804
H	-1.045082	1.649322	-2.076445
C	-0.646713	-1.606829	-1.828388
H	0.111885	-2.288024	-1.434723
H	-1.608911	-1.824561	-1.363566
H	-0.723783	-1.735223	-2.910615
F	-2.412478	0.0	0.0
