17

C	0.0	0.0	0.0
C	-0.229305	-0.110411	-1.562362
F	1.361693	0.0	0.0
H	0.64336	-0.74543	-1.798551
N	-0.380179	1.237155	0.775146
O	-0.224814	2.318791	0.217231
O	-0.635862	1.088765	1.963227
C	-0.504141	-1.184125	0.690585
N	-0.541661	-2.239773	1.212261
N	-0.102409	1.189031	-2.234911
H	0.614656	1.748922	-1.792553
H	0.196621	0.993517	-3.185075
C	-1.42233	-0.838969	-2.149982
H	-1.192476	-1.020349	-3.212241
H	-1.581408	-1.80171	-1.663496
H	-2.315077	-0.241089	-2.026851
F	-2.266432	0.0	0.0
