17

C	0.0	0.0	0.0
C	-0.274202	0.052035	-1.54309
F	1.356882	0.0	0.0
H	0.542393	-0.591133	-1.892117
N	-0.193688	1.423356	0.801864
O	-1.268657	1.827602	1.203728
O	0.883349	2.012715	0.967644
C	-0.498188	-1.119294	0.784167
N	-0.794236	-2.015971	1.488123
N	0.064211	1.413667	-1.971845
H	0.664487	1.379519	-2.778367
H	-0.788182	1.883742	-2.232851
C	-1.539599	-0.45584	-2.207441
H	-2.34631	0.252526	-2.053314
H	-1.303453	-0.579693	-3.273812
H	-1.895045	-1.39781	-1.791747
F	-2.336704	0.0	0.0
