18

C	0.0	0.0	0.0
C	-0.338244	0.098325	-1.518526
F	1.38637	0.0	0.0
H	0.390831	-0.631927	-1.891382
N	-0.277379	1.261995	0.872875
O	0.04974	1.137042	2.054461
O	-0.772522	2.269781	0.387512
N	-0.558514	-1.130034	0.596889
H	-0.322145	-1.134365	1.583819
H	-1.584338	-1.012157	0.50259
C	0.020893	1.440223	-2.153619
H	0.947168	1.859597	-1.750699
H	-0.784218	2.157277	-2.010101
H	0.145659	1.271067	-3.225849
N	-1.641957	-0.333285	-1.967536
H	-1.691048	-1.342878	-1.872423
H	-2.379637	-0.001581	-1.30954
H	-3.317345	0.0	0.0
