18

C	0.0	0.0	0.0
C	-0.330975	-0.037855	-1.521763
F	1.35449	0.0	0.0
H	0.554956	0.433863	-1.956048
N	-0.213198	1.47701	0.542021
O	0.124897	2.402422	-0.191074
O	-0.584252	1.600973	1.705386
N	-0.664405	-0.926439	0.775986
H	-1.693226	-0.733705	0.582523
H	-0.500971	-0.735127	1.758204
C	-1.543242	0.69621	-2.087593
H	-1.480687	0.610709	-3.18266
H	-1.532246	1.757077	-1.832104
H	-2.470209	0.274913	-1.699223
N	-0.282404	-1.460587	-1.896723
H	-1.002177	-1.937593	-1.363276
H	-0.558592	-1.516202	-2.871932
H	-3.200026	0.0	0.0
