18

C	0.0	0.0	0.0
C	-0.253751	-0.042317	-1.544633
F	1.365783	0.0	0.0
H	0.490511	0.666414	-1.917174
N	-0.246514	1.44163	0.568265
O	-0.161491	2.393614	-0.202865
O	-0.399643	1.532221	1.783611
N	-0.636578	-0.9762	0.736897
H	-0.468965	-0.816615	1.726209
H	-1.674867	-0.772792	0.544415
C	-1.582031	0.334113	-2.171621
H	-2.3607	-0.385363	-1.937021
H	-1.405954	0.382037	-3.253669
H	-1.946901	1.290131	-1.803553
N	0.137371	-1.368136	-2.04195
H	1.041566	-1.601638	-1.644276
H	-0.518722	-2.033788	-1.644476
H	-3.071201	0.0	0.0
