18

C	0.0	0.0	0.0
C	-0.514406	0.066545	-1.436711
F	1.353945	0.0	0.0
H	-1.610744	0.034807	-1.315274
N	-0.313561	1.337548	0.733141
O	0.269941	1.495017	1.80109
O	-1.08882	2.141752	0.227481
N	-0.578836	-0.996967	0.818833
H	-0.376997	-1.905387	0.415769
H	-1.613476	-0.827548	0.720013
C	-0.010148	-1.149104	-2.203548
H	1.072311	-1.077635	-2.342093
H	-0.246991	-2.088441	-1.701261
H	-0.486621	-1.183813	-3.188439
N	-0.03085	1.268977	-2.135493
H	-0.651203	2.028436	-1.879504
H	-0.15083	1.112583	-3.130434
H	-3.152228	0.0	0.0
