18

C	0.0	0.0	0.0
C	-0.491564	0.012596	-1.455136
F	1.358333	0.0	0.0
H	-1.591079	0.023317	-1.375189
N	-0.534227	1.223051	0.678045
O	-0.142934	2.355144	0.270747
O	-1.701827	0.988215	1.198145
N	-0.448757	-1.179763	0.663873
H	-1.473586	-1.124997	0.600646
H	-0.228271	-1.063898	1.650362
C	-0.044068	-1.247994	-2.180814
H	1.047669	-1.257119	-2.271476
H	-0.469148	-1.243338	-3.187326
H	-0.346849	-2.14876	-1.648192
N	-0.077507	1.179939	-2.230975
H	0.914753	1.320971	-2.064538
H	-0.514429	1.991795	-1.803564
H	-2.924126	0.0	0.0
