17
Coordinates from ORCA-job run
  C   -0.71823683784431     -0.15733169387095     -0.27182719963394
  C   0.80873485344389     -0.26124735348366     -0.39048339122725
  Br  -1.44988240122311     -1.73070457655097     -1.17853104899250
  H   1.08492694571292     -0.16754442041156     -1.44739460914316
  C   -1.23918092803466     -0.09553548376842      1.14045662496060
  H   -0.81296682932318     -0.92969471634797      1.69679923772418
  H   -2.32521788841055     -0.15801818915561      1.14829394779606
  H   -0.94446312804470      0.84733953237390      1.60171170188057
  N   -1.21520091579297      1.01730272290377     -1.11154896359313
  O   -0.64126585156532      1.21428662171047     -2.17556442621539
  O   -2.16921007801107      1.64482654580317     -0.67448550419018
  N   1.30470766454907     -1.42410422048308      0.29856546477236
  H   2.30199270411573     -1.31452956372881      0.43837727343776
  H   1.14526245146317     -2.24693700240994     -0.26770507908953
  N   1.45532893194446      0.95205075324645      0.25904164635503
  O   2.61470784521824      0.82115744332699      0.63514209727183
  O   0.80096346180238      1.98868360084621      0.30015222788669
