17
Coordinates from ORCA-job run
  C   -0.63069155576251      0.12061784234821     -0.27083759645684
  C   0.80410699532650      0.09955004385035      0.28084184914464
  Br  -0.60898203744612      0.39460954078897     -2.18422873840106
  H   0.73703430351905     -0.09589358294981      1.35203501141517
  C   -1.49178637552914     -1.08059788564862      0.06955567091447
  H   -1.13665091292641     -1.96621465063042     -0.45251663966999
  H   -2.52072253436941     -0.87970351964492     -0.23494360723984
  H   -1.45950720831317     -1.26192498150745      1.14428540787766
  N   -1.26223396573078      1.33818118442148      0.42783295160678
  O   -1.27093784234482      1.23839309424226      1.65095723720342
  O   -1.71213440199656      2.25907469103575     -0.23017593988176
  N   1.46867458582699      1.31809300665465      0.03546182348081
  H   1.67260640066366      1.44201701413748     -0.94793628673763
  H   2.32395049390940      1.39032088072639      0.56907062258044
  N   1.52153979916879     -1.13886918771953     -0.27651580997003
  O   1.21581739326304     -2.21753480521706      0.22700819336799
  O   2.35191686274149     -0.96011868488773     -1.16089414923421
