17
Coordinates from ORCA-job run
  C   -0.66456922766511     -0.05820068401787     -0.41452403209695
  C   0.78525575974289     -0.44544740723312     -0.09223881245171
  Br  -0.97648087522801     -0.45128627732466     -2.28372804569130
  H   0.92594649586535     -1.46736938591734     -0.44699280538329
  C   -1.64180691543578     -0.83556575752166      0.44964269994073
  H   -2.66451736759154     -0.57623302977783      0.17072227461249
  H   -1.49508794449535     -1.90539124683386      0.29651887283111
  H   -1.46247102370192     -0.59925043888354      1.49774018305696
  N   -0.93849894980649      1.42499365596698     -0.14626339990362
  O   -1.55296834024390      2.08515753419474     -0.96314049188029
  O   -0.56983801093622      1.80337332402940      0.96321837727121
  N   1.11645440434369     -0.38621162866895      1.28789753837911
  H   1.07179604509840      0.55723989793507      1.64811141793844
  H   2.02281239561054     -0.80246758657742      1.45739707098007
  N   1.75901908749411      0.35691646908309     -0.95826415200785
  O   1.49328199363973      1.53164066297412     -1.19647727391964
  O   2.79067247330961     -0.23289810142715     -1.26961942167546
