17
Coordinates from ORCA-job run
  C   -0.64516244026514      0.04022360489496     -0.26098806341712
  C   0.81066561684094      0.18069677156567      0.21240853163470
  Br  -0.71111459385226     -0.12904549826395     -2.18542086578303
  H   0.79400651425284      0.23325284229748      1.30194803570414
  C   -1.44921170996993     -1.07270403752083      0.38344357212835
  H   -1.36664821144042     -1.00338107903695      1.46848206866471
  H   -1.08495665705100     -2.04491248838524      0.05918633917568
  H   -2.49609290959886     -0.97190202738613      0.09079827480636
  N   -1.28946342240403      1.36925986626754      0.17258732930689
  O   -1.24686627947043      1.54974706350969      1.38565453821181
  O   -1.79429973871066      2.10634085310949     -0.65505473112743
  N   1.42237542424800      1.32670174165358     -0.33433378818220
  H   1.58159286101079      1.22829689766461     -1.32881217760787
  H   2.29542396345686      1.54025948344543      0.12783155199201
  N   1.54678276537039     -1.13468283288439     -0.08245168014564
  O   1.30046148496760     -2.07589458277506      0.66841085419969
  O   2.33250733261530     -1.14325657815590     -1.02368978956104
