17
Coordinates from ORCA-job run
  C   -0.61263945296503     -0.03953385566997     -0.42418810621428
  C   0.85648889099572     -0.42834044875806     -0.11702583739676
  Br  -0.96201245331614     -0.39914672464726     -2.29162205201309
  H   0.97673474772555     -1.46517946666050     -0.43297660209711
  C   -1.57120489739412     -0.83871081365938      0.43996973019761
  H   -2.60154523642304     -0.57191678911717      0.19998839370304
  H   -1.43605941380492     -1.90414467942846      0.24633241915012
  H   -1.38554464729445     -0.62759690506875      1.49265802836968
  N   -0.85757812359045      1.44379202918856     -0.12706979695915
  O   -1.17891435737943      2.20777106309038     -1.01895191873474
  O   -0.72414397938355      1.73286434069915      1.06200114663987
  N   1.33463025789778     -0.26565757551447      1.21309515792580
  H   0.97493819619235      0.56883672536434      1.65539373001874
  H   1.16897315597140     -1.08214550740984      1.78119245397456
  N   1.77551348978176      0.35968356130143     -1.02132051087748
  O   1.73012342056447      1.57950854587162     -0.88796359526448
  O   2.51324040242210     -0.27008349958164     -1.76951264042232
