17
Coordinates from ORCA-job run
  C   -0.70088345441509     -0.06663883731571     -0.37104830535593
  C   0.78178537034370     -0.35618496976583     -0.04375085214169
  Br  -1.14996140515352     -0.19174991000294     -2.25301317861953
  H   0.90374287624838     -1.43860505503579     -0.11095695843896
  C   -1.58337793101962     -1.00993968018377      0.41859721040595
  H   -1.35645183928632     -0.90715530213756      1.48001898142472
  H   -1.38862100899600     -2.03365149385836      0.09485393240481
  H   -2.63241481220670     -0.77943650535746      0.24752479291174
  N   -1.00097976775196      1.37495810333679      0.02098579142664
  O   -2.05789030379288      1.60330201865252      0.59377005402547
  O   -0.15020967930785      2.20271765555835     -0.29014989929558
  N   1.06086691015914      0.10329013705806      1.27196860568960
  H   1.85522300066777     -0.38551871785501      1.66292316930237
  H   1.27098716614819      1.09508052844691      1.25397112286043
  N   1.79252011142438      0.15737734394223     -1.08197243231330
  O   2.45049795295919      1.15027918901400     -0.79355918039409
  O   1.90416681397920     -0.51912450449643     -2.09916285389266
