17
Coordinates from ORCA-job run
  C   -0.69494012429486     -0.18853203064482     -0.42497111623845
  C   0.84029129974516     -0.31291714366545     -0.39859524015172
  Br  -1.38803908541534     -1.57891647914416     -1.58540867577209
  H   1.21728184328696     -0.22849965205451     -1.41748913539959
  C   -1.35694547651070     -0.27407340151971      0.92870520900704
  H   -1.15506176991927     -1.25666168448219      1.35646771559820
  H   -2.43449876737828     -0.15754864387518      0.82333749429732
  H   -0.98450262480114      0.50313920952856      1.59522874309886
  N   -1.00769275610720      1.14658610573767     -1.10749371868894
  O   -1.59714098927794      1.98649181544648     -0.43412124435234
  O   -0.60928643613039      1.28420690245777     -2.25561094564291
  N   1.26113649807901     -1.50741825408191      0.22975609486103
  H   1.18163598466905     -1.43248051280365      1.23626923669588
  H   2.21799856085797     -1.72711132895576     -0.01110484658592
  N   1.37525147100338      0.94687175923697      0.31506694853499
  O   1.63597800686195      1.91955115287464     -0.38637987290429
  O   1.49853436533163      0.87731218594524      1.53634335364294
