17
Coordinates from ORCA-job run
  C   -0.60786536305267      0.02478494535670     -0.23441087664930
  C   0.88604511449336      0.10997140882072      0.17667155238777
  Br  -0.79157849818919      0.11742788705631     -2.15304037452693
  H   0.91894775179544     -0.00139915981190      1.26025469600674
  C   -1.37167277087829     -1.16653651432423      0.31133426430288
  H   -1.01476597002331     -2.08642416384441     -0.14734632319638
  H   -2.43436779248428     -1.05047599573773      0.08965012385954
  H   -1.22836931016616     -1.22968087717967      1.39101433315806
  N   -1.22186149632703      1.28122544557915      0.40467044471654
  O   -1.05405888448121      1.34040519396402      1.62142718412598
  O   -1.81364820904761      2.09909560747370     -0.28089415012365
  N   1.60348623815367      1.26740514157872     -0.20991137703615
  H   1.44304706718139      2.04105675726933      0.41776953478218
  H   1.45174196328029      1.53031642801831     -1.17371223225798
  N   1.58240145726397     -1.12070684082888     -0.36229908194296
  O   2.22223257734922     -1.00328611645541     -1.39888305342507
  O   1.42928612513241     -2.15317914693472      0.28970533581874
