17
Coordinates from ORCA-job run
  C   -0.58250875890392     -0.15401265979122     -0.44034506163540
  C   0.89940814728044     -0.34688668980765     -0.02744356781354
  Br  -0.79415026721030     -0.76957846286586     -2.26082795920358
  H   1.13805281270260     -1.39606732577800     -0.20538474267644
  C   -1.50236242296578     -0.93951330491910      0.47685962052630
  H   -1.25457076292592     -2.00081287851926      0.42143967265899
  H   -2.53983250249637     -0.81008236464212      0.16485957063741
  H   -1.39329817767766     -0.58694982114275      1.50201976942966
  N   -0.98886385075650      1.32020168079435     -0.34093717815723
  O   -0.94715838053434      1.76200570783707      0.80725127109866
  O   -1.33754963724672      1.93380778735215     -1.33289902567257
  N   1.28804736372134      0.02434456522402      1.28989434065056
  H   1.17823074511227     -0.73123581301764      1.94848373209942
  H   0.82310207101670      0.86234402080249      1.61056295637635
  N   1.78294410740265      0.41732871857199     -0.98563984974717
  O   1.60742348378003      1.63234646659856     -1.01249477110610
  O   2.62108602970146     -0.21723962669702     -1.61439877746531
