17
Coordinates from ORCA-job run
  C   -0.71850821391728     -0.22420250820320     -0.36449022706461
  C   0.81171526455479     -0.39902377338677     -0.38012798702046
  Br  -1.50174196725706     -1.74165295610082     -1.28393861635648
  H   1.14547319929015     -0.48684490959562     -1.41367289964960
  C   -1.32460549924799     -0.09082953317836      1.01131665625831
  H   -2.40083753098914      0.05396483831016      0.93020826446823
  H   -1.13944955115384     -1.01073490285572      1.56678467789739
  H   -0.89631666013996      0.75691362492114      1.54508063624789
  N   -1.01931482855913      1.00973405008657     -1.22080592261918
  O   -0.67055592079821      0.96536252485816     -2.39225776504963
  O   -1.54944013795180      1.95976439260666     -0.65249766318504
  N   1.22296105208312     -1.49788208281153      0.40897463333797
  H   1.18661822669629     -1.26778555669107      1.39425652536140
  H   2.16220915556055     -1.78572742681299      0.17049330313988
  N   1.41842194025225      0.93380169301216      0.10715073582854
  O   1.57657759635743      1.05517510786073      1.32047957273138
  O   1.69679387521980      1.76896741798050     -0.74795392432600
