17
Coordinates from ORCA-job run
  C   -0.60817330699109      0.18631026963706     -0.28461088558298
  C   0.77150557980112      0.02249437356853      0.37356506277452
  Br  -0.42637623535699      0.99790302688854     -2.02940535764268
  H   0.61644665053030     -0.47445339672231      1.33228938914551
  C   -1.45103984029651     -1.07040452785233     -0.38430424316075
  H   -1.01855767671652     -1.76549063896353     -1.10045930795447
  H   -2.45553334642252     -0.80087886157247     -0.71624758504317
  H   -1.50800976284160     -1.55263181304591      0.59198837822589
  N   -1.34366517435587      1.14614772692105      0.66842041146544
  O   -1.76297783915053      2.21453301297973      0.26101028322338
  O   -1.45976072064137      0.69820345571232      1.80489939882497
  N   1.40882698494772      1.26703362163341      0.55159028332994
  H   1.69397815010281      1.67106667820682     -0.33130882089631
  H   2.21039139398891      1.19147293659294      1.16253037970016
  N   1.58177174297444     -0.99521316592896     -0.44306008481233
  O   1.27101003371465     -2.17595914788059     -0.30249355226277
  O   2.48116336671304     -0.56113355017430     -1.15440374933435
