17
Coordinates from ORCA-job run
  C   -0.65530264097637     -0.17186105456689     -0.34225350543149
  C   0.88990711445721     -0.33802936387881     -0.37065626263288
  Br  -1.41635646022528     -1.75060913814225     -1.18720248704271
  H   1.20370812758046     -0.33922789596482     -1.41432702447805
  C   -1.26246623956543      0.01735944631035      1.02557034235737
  H   -1.02488412370087     -0.84516417011068      1.64943394488471
  H   -2.34566737061972      0.09763622361373      0.94544492835587
  H   -0.88056447495285      0.92092077389512      1.49880848755573
  N   -0.98526877917609      1.01135596941103     -1.25669779907792
  O   -0.61616655050994      0.92568658048334     -2.41990489334305
  O   -1.55552554944383      1.96705761220318     -0.74021424893576
  N   1.46143105558966     -1.43781364148389      0.32479082923886
  H   1.26838849496888     -2.30953424369440     -0.14680810099350
  H   1.17345453427383     -1.47819400497163      1.29243453392791
  N   1.45604411512905      0.93004821657951      0.23180119632098
  O   1.64256697037394      0.92944858474134      1.44489184953300
  O   1.64670177679735      1.86992010557576     -0.53511179023908
