17
Coordinates from ORCA-job run
  C   -0.61821960755677     -0.19638906838259     -0.39624238759169
  C   0.93118703435102     -0.28147159144617     -0.31122069766084
  Br  -1.22566160007360     -1.78242290118504     -1.34571001007557
  H   1.32144650845134     -0.24526546165105     -1.32814599097992
  C   -1.33763272000040     -0.08685962382606      0.92506233649336
  H   -1.03802083414730      0.81482091154394      1.45722445566971
  H   -1.10724750372704     -0.96025376374603      1.53627895476747
  H   -2.41407130895402     -0.05439516833422      0.76213375481725
  N   -0.93929631461169      1.00036807024109     -1.29589349018730
  O   -0.48808072659042      0.96965324429163     -2.43263381039897
  O   -1.58428367019183      1.91382712716204     -0.79071044497317
  N   1.50625773645477     -1.36569436406821      0.40694772317714
  H   1.38421003812001     -2.23706605403177     -0.08873178087923
  H   1.15298818881516     -1.43444634269047      1.35122769082290
  N   1.38637762343892      0.99964660818077      0.35339287087448
  O   1.60729354058800      1.95809286752219     -0.38147593267290
  O   1.46375361563385      0.98685551041997      1.57849675879728
