17
Coordinates from ORCA-job run
  C   -0.68350485606754     -0.22860822919459     -0.40193246841597
  C   0.85210337022636     -0.34884211099307     -0.35135092568165
  Br  -1.39615156305399     -1.79530488331289     -1.29619170617668
  H   1.23797193366970     -0.29273193267034     -1.36930890590244
  C   -1.32922412111500     -0.06605291655799      0.95257605716708
  H   -2.41150134735372     -0.01625721059670      0.84906027549832
  H   -0.98870379366649      0.84824187798422      1.44016755042934
  H   -1.07889438211666     -0.92889117101664      1.57177499587935
  N   -1.02466835714554      0.95326014610994     -1.31741131955273
  O   -0.52851154778486      0.93958182292000     -2.43463777345582
  O   -1.76593490120276      1.81535903482130     -0.85943259643595
  N   1.28734826160963     -1.51457710991422      0.31490656812148
  H   1.21691311289292     -1.40977224812806      1.31890072273594
  H   2.24585111097456     -1.72961083484184      0.07799967770360
  N   1.34690579136249      0.94552535495670      0.33525350764596
  O   1.31516255050025      1.97287748558453     -0.33446019258857
  O   1.70583873827064      0.85480292484966      1.50608653302873
