17
Coordinates from ORCA-job run
  C   -0.58925544048203      0.08651492417310     -0.26516376737720
  C   0.87244135643360      0.05038823461355      0.25507422656708
  Br  -0.63501471832815      0.56915072558205     -2.13265655784840
  H   0.82747280035906     -0.27836763984310      1.29305666872491
  C   -1.40171466218960     -1.17181346489070     -0.02571173916232
  H   -1.33473143764723     -1.45634685407116      1.02534425075673
  H   -2.44515258724558     -0.98743872075523     -0.28873691266346
  H   -1.02313741409396     -1.98770141972221     -0.63806278332314
  N   -1.23443484725858      1.20235840916450      0.57282553936494
  O   -1.15363416176514      1.00962284107996      1.78466833990207
  O   -1.76614755043185      2.15703921495062      0.02973161931841
  N   1.62751768431569      1.24433529302242      0.16069486058842
  H   1.54622813045770      1.69978179412157     -0.73770691068848
  H   1.42869089488137      1.87907950172440      0.91964044661835
  N   1.59261512407545     -1.06267323070654     -0.47435776133409
  O   1.38305022172840     -2.20142497393854     -0.05727212699266
  O   2.30520660719086     -0.75450463450469     -1.42036739245115
