17
Coordinates from ORCA-job run
  C   -0.68247037489444     -0.20255154373815     -0.35837132452983
  C   0.84968708263763     -0.32372928269482     -0.25272348169954
  Br  -1.32817826483292     -1.89380116480398     -1.08515468743875
  H   1.26422569544623     -0.31855598161105     -1.26675633846685
  C   -1.36139575517937      0.08705023983900      0.95439441802328
  H   -1.10132730484902      1.08967734142599      1.29775357237383
  H   -2.44271655111550      0.03456349285311      0.84646201135937
  H   -1.02520345646933     -0.65666322058837      1.67733805302079
  N   -1.04236056320049      0.82871536423291     -1.42496388410534
  O   -1.97681022209891      1.57929186261899     -1.17892929813444
  O   -0.38406365199407      0.80215945341158     -2.45700056744122
  N   1.22415621572639     -1.43212911509406      0.57828842124423
  H   1.42484052191144     -2.24337428565417      0.01069186793988
  H   2.04878480126053     -1.18435506838897      1.11130677738177
  N   1.37801997664605      0.95921184199339      0.37467713804776
  O   2.26987206932100      0.87352442067794      1.21187874926531
  O   0.88393978168476      2.00196564552067     -0.03989142684027
