17
Coordinates from ORCA-job run
  C   -0.69991901172001     -0.17122894716572     -0.32090595587693
  C   0.82701142993743     -0.34221353700187     -0.27816006811840
  Br  -1.42181710855237     -1.83381908566911     -1.05430753660627
  H   1.20123122682406     -0.37487208441084     -1.30810460955795
  C   -1.33175231023178      0.11464485664750      1.01625529152759
  H   -0.99064907060888     -0.64475989724040      1.71960054229209
  H   -1.03543549331521      1.10534755388398      1.36274898474185
  H   -2.41660789499828      0.08902160749785      0.93914801079020
  N   -1.06780623099792      0.88435159749813     -1.36079392915997
  O   -2.00562525310289      1.62229406363896     -1.09327681162144
  O   -0.41509291702078      0.88525856665663     -2.39710660864295
  N   1.20133790668312     -1.44057438174118      0.57166212324670
  H   1.16736442401237     -2.30533278331671      0.04896880116872
  H   2.14892809839287     -1.29094268624060      0.89681014652944
  N   1.45069602143912      0.92089677624341      0.29635670645040
  O   2.50130769942768      0.79984186455796      0.91642844845439
  O   0.88682848383147      1.98008651616200      0.04267646438254
