17
Coordinates from ORCA-job run
  C   -0.68023728542400     -0.19509784124552     -0.36115015063279
  C   0.85300034202470     -0.29754503135938     -0.26648105870458
  Br  -1.30151540246419     -1.86347953556342     -1.16218731379056
  H   1.26405417807638     -0.24915556291785     -1.28114836989519
  C   -1.36202059426214      0.02352066618239      0.96387939096546
  H   -1.01325359378213     -0.74653623712198      1.65220956401435
  H   -2.44244188656783     -0.04048174404846      0.85353980204505
  H   -1.11667451673007      1.01308938492106      1.35238934711985
  N   -1.06026725808458      0.87578471219590     -1.38067097045657
  O   -2.01158254682556      1.59328031182794     -1.10374954301038
  O   -0.39875117073394      0.91114167133206     -2.41045207775115
  N   1.24698264565804     -1.42882125868791      0.52525107325889
  H   2.10415143803010     -1.20597265869601      1.01644098561828
  H   1.40377460839933     -2.23141264744799     -0.06826983037934
  N   1.37282452031246      0.96586930891217      0.40572970180644
  O   0.83806230734185      2.01616877993042      0.06751680843311
  O   2.30489421503158      0.85964768178658      1.19515264135912
