17
Coordinates from ORCA-job run
  C   -0.63742111751415     -0.13852961896869     -0.44720559561987
  C   0.80485299306436     -0.41509332673631     -0.00447866381490
  Br  -0.84040690434311     -0.77719068651577     -2.26346779250562
  H   1.01663070683510     -1.45646993818150     -0.25191147375045
  C   -1.63270316458838     -0.84216907050277      0.45937162899868
  H   -1.52803523376958     -0.46090262540413      1.47462544897725
  H   -1.43199527637252     -1.91410132752438      0.46260357132293
  H   -2.64564175812650     -0.67287269013983      0.09049943537939
  N   -0.98097332855204      1.35047016292373     -0.38101567650890
  O   -1.66808623148824      1.84795417042419     -1.25362699948620
  O   -0.59541397655797      1.90729923157373      0.64454310597579
  N   1.04516352295938     -0.22010821923405      1.38241319760584
  H   1.95426559182664     -0.58293865669801      1.63771682684761
  H   0.95325292389390      0.75150272208447      1.64557618821049
  N   1.80402636903979      0.35351863210101     -0.87940063607208
  O   1.44515513037888      1.38966412181468     -1.43014186795728
  O   2.93832975331447     -0.11803288101636     -0.88710069760267
