17
Coordinates from ORCA-job run
  C   -0.66580864181651     -0.05832479216455     -0.40564215541866
  C   0.78533236744744     -0.45813640093230     -0.09163311394059
  Br  -0.98288236404593     -0.40708091833133     -2.28186143472701
  H   0.91711403027158     -1.48395274682033     -0.43859671038865
  C   -1.64512602494433     -0.84539529458740      0.44532578644300
  H   -2.66735268121798     -0.56408316048234      0.18667704001726
  H   -1.51595329161812     -1.91164133626771      0.25519514792869
  H   -1.45231411073115     -0.64293202827781      1.49738144371558
  N   -0.91015129555595      1.42878341513184     -0.11063919589875
  O   -0.69710480594651      1.73731798935775      1.05974196095728
  O   -1.32553505281697      2.16794759182823     -0.98437310178629
  N   1.11664783357431     -0.37272622735801      1.28543550983180
  H   1.06362978015850      0.57596011614702      1.63166638252919
  H   2.02639918196556     -0.77655202743804      1.46630099135987
  N   1.73793111851360      0.34197808319762     -0.97850912171206
  O   2.56448505766649     -0.29822994510933     -1.62255483588851
  O   1.65068889909597      1.56606768210668     -0.91591459302216
