17
Coordinates from ORCA-job run
  C   -0.60111486632813      0.12730602642296     -0.32886317903662
  C   0.79644908088577      0.07235216311606      0.30917655150501
  Br  -0.46366262581783      0.02258060765171     -2.25417491465208
  H   0.65987043018882      0.09511229731400      1.39130839200478
  C   -1.60261252349785     -0.89464986565736      0.17402473074121
  H   -1.32377965441213     -1.89473082951283     -0.15014269432978
  H   -2.58899720742213     -0.65512612086669     -0.22773837657035
  H   -1.63754592606823     -0.86860013052043      1.26352105528335
  N   -1.12663575922109      1.51336688097283      0.08649752409794
  O   -1.43892998369409      2.33119632870564     -0.76033411635857
  O   -1.20347863627034      1.65260490612290      1.30337233258915
  N   1.60000058913478      1.14956755721733     -0.11638858465849
  H   2.43375789298919      1.23800292571644      0.44802320072174
  H   1.86018668776584      1.05984044598209     -1.09024272228712
  N   1.39909964688803     -1.31466526810948      0.04169973656665
  O   0.95358886188798     -2.24059739781103      0.71603908461959
  O   2.28380399299140     -1.39256052674413     -0.80377802023640
