17
Coordinates from ORCA-job run
  C   -0.67148554438885     -0.05074092045819     -0.41398479182233
  C   0.77762359184357     -0.45101248761786     -0.10965978260023
  Br  -1.02489030378906     -0.45012485091286     -2.27499109050798
  H   0.91178160681104     -1.46441230475346     -0.49114254165761
  C   -1.64607179496822     -0.81066063961632      0.46931438057345
  H   -1.45487328230009     -0.56393058106850      1.51314887348629
  H   -1.50831073699888     -1.88339181551213      0.32922436826372
  H   -2.66894518568672     -0.54653404185880      0.19586092312384
  N   -0.92413155227725      1.43409960382752     -0.14661616400857
  O   -1.63064004786848      2.06983417286105     -0.90672943446582
  O   -0.44862524529303      1.83920776166835      0.91175779911544
  N   1.11737312480885     -0.43604468031397      1.27010754451871
  H   1.09839636961519      0.50026633869257      1.65057925455386
  H   2.01865638519474     -0.87134986195892      1.41697884757274
  N   1.76089679082570      0.36577606473694     -0.95764742950478
  O   1.43319016944892      1.48400970125007     -1.34240256961939
  O   2.85805565502257     -0.16399145896552     -1.11479818702136
