17
Coordinates from ORCA-job run
  C   -0.54523468863768      0.13705944444635     -0.29608759967110
  C   0.88078144547157     -0.01492437822948      0.29068163918655
  Br  -0.47377256346323      0.25578156476390     -2.22481720111463
  H   0.77453991299138     -0.08720982535295      1.37171119573237
  C   -1.54519069545108     -0.92181030627871      0.13039918198754
  H   -1.27060602527215     -1.89351961225241     -0.27503260236807
  H   -2.53649755170509     -0.65000288518062     -0.23599610206953
  H   -1.56121642290757     -0.98783480231489      1.22128690409440
  N   -1.09173666708033      1.46502963273458      0.25799402927412
  O   -1.90990852852185      2.08140905087203     -0.40521286095826
  O   -0.71804174375239      1.75197677052141      1.39394253948166
  N   1.84321774994860      0.97560782796213     -0.02790934645859
  H   1.70425332172793      1.80885153084978      0.52463236765317
  H   1.87573273158629      1.18835499074828     -1.01546243599631
  N   1.40391874679553     -1.36894907792825     -0.13554340327768
  O   2.14487148633107     -1.40944674210342     -1.10917118634397
  O   1.02588949193898     -2.32937318325771      0.53458488084832
