17
Coordinates from ORCA-job run
  C   -0.60607608097466      0.14431688212949     -0.31255504105675
  C   0.79990263528024      0.05831663592046      0.30339519027217
  Br  -0.49292853344521      0.16439111572984     -2.24236207576852
  H   0.67694109026747      0.01027797562191      1.38632367130101
  C   -1.59404710447496     -0.91535643680959      0.13578113537620
  H   -1.31272396142871     -1.89070690422430     -0.25479858903884
  H   -2.58685179205662     -0.65831911905444     -0.23847547040613
  H   -1.61588016316814     -0.95932789969565      1.22503672124115
  N   -1.13480752888044      1.49689150306332      0.19737095103569
  O   -1.46188105121382      2.36576158263245     -0.59100345526893
  O   -1.19833341317616      1.55632298635680      1.42151659363084
  N   1.59149257585454      1.16558140023121     -0.06218687468877
  H   2.43212637780909      1.22373850427766      0.49578488995998
  H   1.83771354637876      1.14211688163373     -1.04343031996606
  N   1.40716328506358     -1.30505450874271     -0.06000422017380
  O   0.97814811989921     -2.27467136801753      0.56158436943348
  O   2.27904199826583     -1.32327923105266     -0.92197747588272
