17
Coordinates from ORCA-job run
  C   -0.62221411941558     -0.05665887192282     -0.40874311675767
  C   0.86386947611904     -0.40822368888444     -0.13776908048026
  Br  -1.01146770519188     -0.42900991441406     -2.26532783207340
  H   1.00209336994761     -1.44240597333113     -0.45515654020269
  C   -1.53931991332885     -0.87558459046814      0.48150302707678
  H   -2.58122291738266     -0.63139320390013      0.26895181242493
  H   -1.33035940500045     -0.65895467237437      1.52861181313128
  H   -1.38629811031059     -1.93807610724557      0.28511556314665
  N   -0.89346401369765      1.42153113849616     -0.10865422412611
  O   -1.24612668200408      2.17784475392287     -0.99525868766020
  O   -0.74315374638994      1.71524801903234      1.07730801622743
  N   1.37029666848985     -0.23089904686263      1.17983221026270
  H   1.23794370917957     -1.04991553880111      1.75297167907470
  H   1.00193312338674      0.59579941537568      1.62948142569265
  N   1.73893984572989      0.40160666383840     -1.06588616156301
  O   2.46250936962636     -0.20942716910677     -1.84291723248601
  O   1.67504105024262      1.61951878664572     -0.92306267168777
