17
Coordinates from ORCA-job run
  C   -0.66491303505328     -0.19044368259623     -0.38937761783399
  C   0.85860055900562     -0.32232533441681     -0.21353254502887
  Br  -1.28175439587936     -1.86799166790886     -1.17558886832793
  H   1.32221094407495     -0.31268870260497     -1.20641945469846
  C   -1.40831836739509      0.08014229481068      0.89210996298122
  H   -1.11039183875346     -0.67528405383084      1.61940304883190
  H   -1.16289084640284      1.07616846414425      1.26367815473841
  H   -2.48287586553436      0.03291018713632      0.72876918273732
  N   -0.97000058928283      0.85780376459004     -1.45666075858912
  O   -0.25251519450593      0.85370477101489     -2.44896270107291
  O   -1.92298028171692      1.59699118355516     -1.25262653442607
  N   1.18641319910240     -1.43715256861896      0.63006195194328
  H   2.02864043920590     -1.22199033399146      1.14966101868318
  H   1.34384482476640     -2.26352122012659      0.07031090816963
  N   1.37345071786387      0.94886908839982      0.44878797035847
  O   0.87101479265613      1.99961792284162      0.06548960827167
  O   2.27246493784881      0.84518988760195      1.27589667326228
