17
Coordinates from ORCA-job run
  C   -0.69499988707895     -0.04571060930517     -0.38461887357340
  C   0.77508525246228     -0.37181849986864     -0.03634740434859
  Br  -1.11373713797208     -0.13433628034527     -2.27577966350231
  H   0.87578010007752     -1.45508708142739     -0.12247877720656
  C   -1.61070821798225     -0.98162913990638      0.37563737472041
  H   -1.40103425884403     -0.89823688009317      1.44230221431372
  H   -2.65153484395889     -0.72747400603449      0.18891422768477
  H   -1.43058763261376     -2.00461407297564      0.04132603702459
  N   -0.97358755965562      1.39584149691784      0.02272786771378
  O   -2.04441353033600      1.63990254235425      0.56206951287538
  O   -0.09382894168842      2.20824325840606     -0.24533489809230
  N   1.03956766470805      0.05639857105549      1.29281250851845
  H   1.81596438057338     -0.45683267041656      1.68839616923508
  H   1.27031336772342      1.04367710494180      1.29779149444187
  N   1.81578353394559      0.13967666353106     -1.04603568100544
  O   2.49209640114505      1.10993549931575     -0.72508636349099
  O   1.92984130949470     -0.51793589614952     -2.07529574530849
