17
Coordinates from ORCA-job run
  C   -0.69971234155892     -0.02078327163635     -0.37862934947218
  C   0.76594066078846     -0.38838379604433     -0.05350224302234
  Br  -1.13900396738212     -0.05041239677282     -2.26684928933355
  H   0.84146039326758     -1.47124947231007     -0.16649936550352
  C   -1.62947548292744     -0.95479145538225      0.36655203576097
  H   -1.40742923167367     -0.90498231960302      1.43280445502319
  H   -1.47703459840109     -1.97236420942561      0.00318780280705
  H   -2.66579033174475     -0.67131588978724      0.19766489086187
  N   -0.94046415107813      1.41600299860070      0.06881913610756
  O   -1.99616275471970      1.66904079431796      0.63324248734030
  O   -0.04790683365186      2.21593831884243     -0.19439874118743
  N   1.05253256338421      0.00103101500271      1.28294230072097
  H   1.30458439749667      0.98281250147948      1.30960244583964
  H   1.82297268865097     -0.53716048493466      1.65659437854841
  N   1.80811074015052      0.12436983970292     -1.06105084435045
  O   2.50892410523717      1.07136956599187     -0.72344848813382
  O   1.89745414416211     -0.51012173804171     -2.10703161200667
