17
Coordinates from ORCA-job run
  C   -0.70118530970333     -0.04788284108907     -0.37331308195809
  C   0.77534865297852     -0.36963292696043     -0.04831307691807
  Br  -1.14954263879957     -0.13684462430252     -2.25754323108054
  H   0.87729109242670     -1.45291857236392     -0.13282387231760
  C   -1.60212090645061     -0.98647950360613      0.40101179437219
  H   -1.37485250986157     -0.90382512881358      1.46411702526834
  H   -2.64647445491342     -0.73428267387150      0.23205124514077
  H   -1.42559580107442     -2.00864888150020      0.06228163701450
  N   -0.97619045521241      1.39291455273817      0.03937622146509
  O   -0.10772616524033      2.20903954163722     -0.25303701455599
  O   -2.03283512971172      1.63265314690813      0.60790793495199
  N   1.06042801367910      0.06314699872605      1.27508295165817
  H   1.28829799097592      1.05112596927524      1.27383282858181
  H   1.84501350162815     -0.44638840977014      1.65919518237743
  N   1.79764598069304      0.14156834172341     -1.07650255266229
  O   1.89761932098223     -0.51955765743844     -2.10494789709452
  O   2.47487881760372      1.11601266870771     -0.77037609424318
