17
Coordinates from ORCA-job run
  C   -0.67337220228630     -0.03946072020342     -0.41217123381060
  C   0.77341074748641     -0.45614486288137     -0.11866916351714
  Br  -1.03723964241291     -0.41122256464210     -2.27679669650415
  H   0.89721741566152     -1.46544807678868     -0.51426079242298
  C   -1.65103913091987     -0.80273192604082      0.46486899212651
  H   -1.52276576651751     -1.87467391559594      0.31047193534610
  H   -1.45404549979607     -0.57123612383224      1.51110118296394
  H   -2.67264903127773     -0.52664348428189      0.19859486379085
  N   -0.91218309475612      1.44378177757869     -0.12425840621406
  O   -0.42974915543065      1.83043468473491      0.93790873920766
  O   -1.61534478725740      2.09587485551430     -0.87354774585377
  N   1.11806490437953     -0.46293467391385      1.25997937282234
  H   2.01625726632278     -0.90756031646267      1.39759950347900
  H   1.10829761212873      0.46823094056731      1.65321709095121
  N   1.76061045369974      0.36355837619691     -0.95896928314022
  O   2.85297683541994     -0.17291423717146     -1.12644736804431
  O   1.44055307555590      1.48909026722231     -1.32862099118037
