17
Coordinates from ORCA-job run
  C   -0.62259404765671     -0.05743073207114     -0.40700949764016
  C   0.86207327165008     -0.41184685068773     -0.13560001141734
  Br  -1.01432330314539     -0.44511264972118     -2.25997603343797
  H   0.99702645702193     -1.44895291802638     -0.44464822155378
  C   -1.54099516973483     -0.86585614884740      0.49164319892917
  H   -1.39083670320977     -1.93052094458746      0.30503299386171
  H   -1.33045380155056     -0.64023463830961      1.53656639062693
  H   -2.58246504101085     -0.62106595908276      0.27755092313186
  N   -0.89067145039711      1.42368352833902     -0.11924437314013
  O   -0.73015457834417      1.72924452048171      1.06232634275339
  O   -1.25418723665772      2.17045338101653     -1.00951029602412
  N   1.37200563503545     -0.22433710295155      1.17945698941916
  H   1.00473610257187      0.60607113558926      1.62312280079142
  H   1.24107853294513     -1.03871636271113      1.75946279917637
  N   1.73925767968710      0.38565578713762     -1.07255374874253
  O   2.47042457567225     -0.23672706764226     -1.83328204319643
  O   1.67007907712331      1.60569302207446     -0.95233821353755
