15

C	-0.403905	-0.014314	-1.440481
C	0.0	0.0	0.0
Br	-2.418373	-0.575258	-1.631507
H	1.090324	0.0	0.0
H	0.07217	-0.875086	-1.903028
N	-0.101373	1.165506	-2.115325
H	-0.257324	1.084599	-3.108157
H	-0.597513	1.952043	-1.719652
N	-0.353361	-1.25591	0.662826
O	0.073232	-2.262875	0.088136
O	-0.996162	-1.254227	1.713017
N	-0.416971	1.144508	0.77903
O	-1.154813	2.007397	0.264808
O	0.098285	1.245728	1.898807
H	2.368191	0.0	0.0
