15

C	-0.465854	-0.015848	-1.414275
C	0.0	0.0	0.0
Br	-2.60033	0.474352	-1.441982
H	1.090682	0.0	0.0
H	-0.578315	-1.03247	-1.770485
N	0.26045	0.7916	-2.254503
H	0.468507	1.697993	-1.86024
H	-0.083711	0.823288	-3.201462
N	-0.378426	-1.182261	0.754487
O	0.024799	-1.220538	1.922582
O	-0.920901	-2.130294	0.162694
N	-0.343737	1.245274	0.688404
O	-0.986885	1.250454	1.733783
O	0.090855	2.258496	0.121712
H	2.342721	0.0	0.0
