15

C	-0.476249	0.015274	-1.428392
C	0.0	0.0	0.0
Br	0.408425	-1.534881	-2.401006
H	1.088431	0.0	0.0
H	-0.00079	0.868142	-1.905779
N	-1.879754	0.053993	-1.581383
H	-2.136946	0.116694	-2.558183
H	-2.286463	-0.77506	-1.167456
N	-0.449795	-1.124589	0.798942
O	-1.268946	-1.930744	0.322327
O	0.10689	-1.261903	1.894013
N	-0.365562	1.267721	0.637231
O	-0.922853	1.284368	1.73602
O	-0.023771	2.27312	0.003279
H	2.38406	0.0	0.0
