15

C	-0.522822	-0.008508	-1.416504
C	0.0	0.0	0.0
Br	0.232372	-1.481981	-2.468744
H	1.094648	0.0	0.0
H	-0.100817	0.879636	-1.894413
N	-1.962619	-0.121271	-1.461744
H	-2.331799	0.654794	-0.921765
H	-2.273794	-0.014422	-2.420879
N	-0.478081	-1.149346	0.793017
O	0.130093	-2.205933	0.621364
O	-1.450526	-0.999204	1.536348
N	-0.337745	1.22739	0.681207
O	0.046753	1.317823	1.856229
O	-0.803091	2.180102	0.016395
H	2.404916	0.0	0.0
