15

C	-0.373287	-0.237234	-1.451975
C	0.0	0.0	0.0
Br	-0.416288	1.622887	-2.41529
H	1.104219	0.0	0.0
H	-1.402046	-0.552202	-1.611126
N	0.582976	-1.099459	-1.955985
H	1.531571	-0.844571	-1.658248
H	0.499398	-1.313649	-2.937345
N	-0.469428	-1.103888	0.858673
O	-1.02441	-2.081812	0.351533
O	-0.216783	-0.972726	2.059025
N	-0.592175	1.224186	0.592673
O	0.156358	2.113697	0.975563
O	-1.82417	1.239085	0.660168
H	2.605316	0.0	0.0
