15

C	-0.405649	0.295415	-1.447741
C	0.0	0.0	0.0
Br	-0.442029	2.250096	-1.717234
H	1.090418	0.0	0.0
H	-1.426785	-0.033553	-1.644049
N	0.511148	-0.286059	-2.38132
H	0.314742	-1.280682	-2.401716
H	1.454174	-0.169965	-2.001481
N	-0.409927	-1.343513	0.391789
O	-0.35843	-1.61062	1.597651
O	-0.649976	-2.172387	-0.50196
N	-0.586492	0.919584	1.002112
O	0.163314	1.663186	1.625287
O	-1.814334	0.880592	1.112242
H	2.547297	0.0	0.0
