18

C	-0.129148	-0.121209	-1.535244
C	0.0	0.0	0.0
Cl	-1.635218	-1.025471	-2.089407
H	1.093146	0.0	0.0
N	-0.377157	1.283247	-2.219176
O	0.489555	1.662591	-2.995465
O	-1.409785	1.880801	-1.952348
N	1.016275	-0.744358	-1.980691
H	1.157483	-0.671303	-2.976432
H	1.850565	-0.482079	-1.390582
C	-0.549269	-1.183258	0.752053
H	-1.638149	-1.224717	0.732741
H	-0.137439	-2.086534	0.299444
H	-0.211759	-1.13126	1.789247
N	-0.477728	1.288044	0.547509
O	-1.431647	1.282389	1.331745
O	0.149044	2.29589	0.22262
F	2.64977	0.0	0.0
