18

C	-0.567413	0.172293	-1.401014
C	0.0	0.0	0.0
Cl	0.475255	1.303824	-2.39352
H	1.102822	0.0	0.0
N	-0.398636	-1.140718	-2.183065
O	-1.29461	-1.426578	-2.976818
O	0.629602	-1.77634	-2.014763
N	-1.940633	0.495406	-1.436788
H	-2.276194	0.496496	-2.390963
H	-2.044513	1.412727	-1.021673
C	-0.480869	-1.267216	0.686892
H	-1.573339	-1.352461	0.690303
H	-0.039738	-2.131702	0.193968
H	-0.111055	-1.253453	1.710368
N	-0.355801	1.168798	0.831904
O	-0.677565	2.238233	0.290693
O	-0.232951	1.055843	2.052469
F	2.492251	0.0	0.0
