18

C	-0.103666	0.153469	-1.526445
C	0.0	0.0	0.0
Cl	-0.736552	-1.563322	-2.326473
H	1.093078	0.0	0.0
N	-1.284285	0.994383	-2.026278
O	-2.3129	0.962245	-1.362752
O	-1.119696	1.615884	-3.069841
N	1.075183	0.555385	-2.019493
H	1.148834	0.771993	-2.999217
H	1.917334	0.370596	-1.403358
C	-0.613259	-1.193223	0.676303
H	-0.408291	-1.13557	1.744033
H	-0.150684	-2.094915	0.283089
H	-1.691866	-1.241879	0.518183
N	-0.408928	1.283741	0.640535
O	-0.175569	2.327433	0.033048
O	-0.899662	1.238517	1.768695
F	2.65918	0.0	0.0
