18

C	-0.335011	0.052852	-1.46852
C	0.0	0.0	0.0
Cl	-2.090858	0.645376	-1.826404
H	1.091638	0.0	0.0
N	0.492815	1.122688	-2.191172
O	0.979297	0.817824	-3.275505
O	0.553308	2.215682	-1.656538
N	-0.079525	-1.17392	-2.08854
H	-0.057286	-1.075002	-3.094431
H	-0.750119	-1.870193	-1.796887
C	-0.469396	-1.287595	0.649896
H	-1.531148	-1.501273	0.488963
H	-0.296835	-1.216431	1.725239
H	0.159711	-2.095872	0.275124
N	-0.526444	1.144825	0.796342
O	-1.696214	1.073128	1.193507
O	0.240004	2.061633	1.081473
F	2.520879	0.0	0.0
