18

C	-0.57046	0.046413	-1.409999
C	0.0	0.0	0.0
Cl	0.350645	1.066863	-2.532038
H	1.088239	0.0	0.0
N	-0.390416	-1.412164	-1.966372
O	-1.42387	-2.077685	-2.05992
O	0.736336	-1.806006	-2.217351
N	-1.926191	0.442383	-1.439308
H	-2.464617	-0.120035	-0.79288
H	-2.313856	0.350654	-2.369439
C	-0.412152	-1.236263	0.77885
H	-0.05813	-1.113801	1.801745
H	-1.486738	-1.440941	0.810604
H	0.117549	-2.092142	0.358523
N	-0.464184	1.231943	0.686585
O	-1.250419	1.123365	1.637303
O	-0.032301	2.305219	0.275484
F	2.515908	0.0	0.0
