18

C	-0.579034	0.227634	-1.38855
C	0.0	0.0	0.0
Cl	0.369759	1.338994	-2.396793
H	1.096693	0.0	0.0
N	-0.45336	-1.16219	-2.112189
O	0.659107	-1.56388	-2.412274
O	-1.508887	-1.776765	-2.273389
N	-1.919969	0.668891	-1.358189
H	-2.320732	0.693317	-2.286169
H	-2.472422	0.063425	-0.765018
C	-0.421161	-1.315572	0.629049
H	-0.034839	-1.329802	1.647975
H	-1.500213	-1.496266	0.667918
H	0.072818	-2.12441	0.089762
N	-0.442412	1.144618	0.836397
O	-1.207672	0.927924	1.78562
O	-0.009029	2.256401	0.547935
F	2.513491	0.0	0.0
