16

C	-0.1976	0.027805	-1.529703
C	0.0	0.0	0.0
Br	-0.03612	-1.895941	-2.226846
H	1.095783	0.0	0.0
N	-1.538986	0.404859	-1.942421
H	-1.653982	0.217832	-2.93209
H	-1.602971	1.411114	-1.804308
N	0.845072	0.839118	-2.013269
H	1.72863	0.607099	-1.519479
H	0.933844	0.810199	-3.020936
N	-0.568425	-1.122883	0.709306
H	-1.520836	-0.934762	0.992457
H	-0.004337	-1.295432	1.530219
C	-0.460974	1.295012	0.510603
N	-0.868755	2.298896	0.970565
F	2.641155	0.0	0.0
