16

C	-0.20903	-0.054211	-1.527633
C	0.0	0.0	0.0
Br	-0.079018	1.894224	-2.260401
H	1.100836	0.0	0.0
N	0.883006	-0.810936	-2.005582
H	0.979529	-0.767457	-3.011686
H	1.752356	-0.528909	-1.511074
N	-1.517158	-0.493725	-1.886232
H	-1.725339	-1.2475	-1.233219
H	-1.520108	-0.851205	-2.834267
N	-0.47588	-1.305162	0.542568
H	0.301535	-1.941431	0.382094
H	-0.558097	-1.207102	1.550154
C	-0.654703	1.088939	0.689643
N	-1.165234	1.922698	1.341858
F	2.65032	0.0	0.0
