16

C	0.05305	-0.052101	-1.525358
C	0.0	0.0	0.0
Br	-1.722556	-0.11243	-2.42666
H	1.108772	0.0	0.0
N	0.717383	1.16203	-1.940746
H	0.876632	1.132494	-2.942372
H	1.623759	1.114461	-1.457136
N	0.728799	-1.304428	-1.83968
H	0.890644	-1.342888	-2.840216
H	1.636285	-1.195822	-1.36386
N	-0.589966	-1.183144	0.628433
H	0.071139	-1.490604	1.334479
H	-0.588704	-1.904962	-0.086008
C	-0.581582	1.230733	0.509681
N	-1.034446	2.202303	0.991612
F	2.668311	0.0	0.0
