16

C	-0.588755	0.000167	-1.410071
C	0.0	0.0	0.0
Br	0.142604	1.705578	-2.336813
H	1.092024	0.0	0.0
N	-0.109436	-1.118132	-2.127682
H	0.070412	-1.845081	-1.439779
H	-0.787251	-1.437464	-2.807961
N	-2.021422	0.102667	-1.389797
H	-2.370978	0.155702	-2.341521
H	-2.291263	0.965197	-0.927202
N	-0.299594	-1.295516	0.630562
H	-1.152878	-1.281091	1.171992
H	0.490623	-1.503748	1.228723
C	-0.519994	1.121547	0.770628
N	-0.979998	1.977487	1.435629
F	2.539457	0.0	0.0
