16

C	-0.188395	-0.136852	-1.531647
C	0.0	0.0	0.0
Br	0.093635	-2.035432	-2.009881
H	1.092662	0.0	0.0
N	-1.523102	0.197894	-1.97228
H	-1.722121	1.151319	-1.677949
H	-1.526468	0.179726	-2.988825
N	0.861005	0.601233	-2.209505
H	1.726194	0.415696	-1.672069
H	0.653078	1.588272	-2.075969
N	-0.579584	-1.023741	0.837029
H	-0.011017	-1.118743	1.668672
H	-1.528114	-0.79676	1.103478
C	-0.432688	1.355397	0.354491
N	-0.829035	2.421819	0.658479
F	2.623035	0.0	0.0
