15

C	-0.291154	-0.037393	-1.484165
C	0.0	0.0	0.0
Br	-2.242057	-0.188569	-1.864382
H	1.106345	0.0	0.0
H	-0.048796	0.942984	-1.900463
N	0.384941	-1.164056	-2.074529
H	1.353763	-1.129281	-1.753476
H	0.380722	-1.088859	-3.084799
N	-0.520888	-1.197296	0.666574
H	0.137911	-1.444228	1.399792
H	-0.500863	-1.960318	-0.004965
N	-0.475404	1.231443	0.594248
H	0.150594	1.485054	1.348027
H	-1.388932	1.039465	0.992222
Br	3.577271	0.0	0.0
