15

C	-0.558645	-0.018131	-1.419462
C	0.0	0.0	0.0
Br	-0.103485	1.607259	-2.401093
H	1.097876	0.0	0.0
H	-0.042566	-0.801879	-1.987713
N	-1.997696	-0.155233	-1.36616
H	-2.363085	-0.367298	-2.285757
H	-2.171655	-0.935732	-0.739036
N	-0.4541	-1.29926	0.597208
H	-0.237853	-1.236	1.587074
H	0.170219	-2.019983	0.239382
N	-0.485346	1.130027	0.738132
H	-1.464922	1.018867	0.963575
H	0.065146	1.264224	1.574864
Br	3.644375	0.0	0.0
