15

C	-0.409895	0.103463	-1.468693
C	0.0	0.0	0.0
Br	-0.178318	-1.676253	-2.387338
H	1.102268	0.0	0.0
H	-1.481905	0.283719	-1.570483
N	0.351248	1.140039	-2.068064
H	1.343644	0.974009	-1.906772
H	0.176861	1.22069	-3.060469
N	-0.529196	-1.161839	0.677736
H	0.208326	-1.608403	1.204407
H	-1.256542	-0.850887	1.309047
N	-0.511668	1.228179	0.642065
H	-0.277141	2.003694	0.029089
H	0.04597	1.361284	1.481383
Br	3.619865	0.0	0.0
