15

C	-0.537149	-0.098564	-1.425249
C	0.0	0.0	0.0
Br	0.124158	1.492044	-2.506064
H	1.095239	0.0	0.0
H	-0.083429	-0.935901	-1.954527
N	-1.950345	-0.183882	-1.404376
H	-2.297217	0.580698	-0.83428
H	-2.3521	-0.150932	-2.330534
N	-0.400045	-1.176288	0.765299
H	-1.260463	-1.558153	0.39114
H	0.336606	-1.867112	0.69827
N	-0.605035	1.176586	0.63421
H	-0.466724	1.044144	1.628952
H	-0.068248	1.992897	0.359681
Br	3.656659	0.0	0.0
