15

C	-0.586592	-0.025308	-1.402215
C	0.0	0.0	0.0
Br	0.142422	1.565237	-2.456901
H	1.096717	0.0	0.0
H	-0.193374	-0.872571	-1.95824
N	-1.996823	-0.02296	-1.345822
H	-2.418628	0.020711	-2.262424
H	-2.297918	0.755879	-0.772312
N	-0.405668	-1.242081	0.628054
H	0.190015	-1.423646	1.427472
H	-1.376532	-1.183196	0.914049
N	-0.54577	1.18206	0.704591
H	-0.238296	1.1036	1.669441
H	-0.06968	1.999519	0.331209
Br	3.674482	0.0	0.0
