15

C	-0.523124	0.019643	-1.439462
C	0.0	0.0	0.0
Br	0.00788	1.672893	-2.358866
H	1.09785	0.0	0.0
H	-0.020074	-0.761411	-2.020298
N	-1.964239	-0.057827	-1.419378
H	-2.323529	-0.24712	-2.346581
H	-2.172957	-0.839777	-0.8029
N	-0.500722	-1.274047	0.571537
H	-0.57232	-1.096715	1.567843
H	0.229719	-1.970154	0.450936
N	-0.498494	1.089568	0.813667
H	0.174175	1.844588	0.781535
H	-1.374676	1.421288	0.42689
Br	3.642926	0.0	0.0
