17

C	0.0	0.0	0.0
C	-0.626358	0.039147	-1.434443
Cl	1.761341	0.0	0.0
H	0.219426	0.243887	-2.096173
C	-0.404457	1.139786	0.823833
N	-0.595194	2.04462	1.54913
N	-0.40877	-1.282172	0.771995
O	-1.248954	-1.152562	1.650291
O	0.131652	-2.322078	0.417181
N	-1.511181	1.188912	-1.487551
H	-1.73034	1.377201	-2.459619
H	-2.39953	0.95405	-1.023239
C	-1.275376	-1.280516	-1.854179
H	-1.682559	-1.137509	-2.858587
H	-0.571325	-2.113075	-1.876351
H	-2.118313	-1.50409	-1.196279
Cl	-4.179122	0.0	0.0
