17

C	0.0	0.0	0.0
C	-0.6202	0.096313	-1.396839
Cl	1.754054	0.0	0.0
H	-1.700738	0.005734	-1.200411
C	-0.425698	1.096724	0.874726
N	-0.687027	2.023407	1.548965
N	-0.421819	-1.310137	0.708588
O	-1.022551	-2.146315	0.051291
O	-0.086848	-1.405003	1.882952
N	-0.087226	-0.966037	-2.246592
H	-0.709692	-1.76031	-2.191614
H	-0.074286	-0.642036	-3.205957
C	-0.328582	1.456169	-2.009315
H	-0.871753	1.534849	-2.955201
H	0.740415	1.569741	-2.205751
H	-0.669749	2.268827	-1.369317
Cl	-3.731668	0.0	0.0
