11

C	0.0	0.0	0.0
C	-0.532285	-0.344929	-1.391457
Cl	1.781782	0.0	0.0
H	-1.632549	-0.309073	-1.312886
H	-0.346648	-0.73616	0.726169
H	-0.189727	0.400726	-2.11351
C	-0.427309	1.339504	0.411003
N	-0.607953	2.453049	0.736931
C	-0.099399	-1.669568	-1.817774
N	0.245368	-2.736006	-2.168439
Br	-3.590784	0.0	0.0
