11

C	0.0	0.0	0.0
C	-0.48828	0.061078	-1.448666
Cl	1.781722	0.0	0.0
H	-1.587186	0.065038	-1.405862
H	-0.359887	-0.918266	0.463549
H	-0.146897	-0.838451	-1.965852
C	-0.415257	1.162157	0.789458
N	-0.566247	2.137443	1.42519
C	0.020701	1.228171	-2.159908
N	0.454191	2.141637	-2.755716
Br	-3.5156	0.0	0.0
