11

C	0.0	0.0	0.0
C	-0.534577	-0.336408	-1.391649
Cl	1.781599	0.0	0.0
H	-1.63597	-0.306268	-1.310203
H	-0.349048	-0.73917	0.720653
H	-0.196029	0.412115	-2.111632
C	-0.430967	1.332531	0.427898
N	-0.61663	2.440751	0.771197
C	-0.095605	-1.657497	-1.827127
N	0.252338	-2.719736	-2.184631
Br	-3.586904	0.0	0.0
