11

C	0.0	0.0	0.0
C	-0.218759	0.016809	-1.553624
Cl	1.783784	0.0	0.0
H	0.36937	-0.824653	-1.928774
H	-0.395008	-0.895986	0.468218
H	0.295113	0.916781	-1.906498
C	-0.438015	1.212867	0.683014
N	-0.528584	2.236656	1.253621
C	-1.489778	-0.038104	-2.280563
N	-2.185008	-0.093733	-3.230678
Br	-3.198667	0.0	0.0
