11

C	0.0	0.0	0.0
C	-0.233074	-0.346918	-1.504497
Cl	1.78424	0.0	0.0
H	0.388981	0.359458	-2.06272
H	-0.393239	-0.755464	0.673448
H	0.229991	-1.32822	-1.644026
C	-0.430856	1.342127	0.383927
N	-0.53602	2.467072	0.708023
C	-1.508729	-0.383972	-2.227092
N	-2.180642	-0.492071	-3.189571
Br	-3.232954	0.0	0.0
