11

C	0.0	0.0	0.0
C	-0.564284	0.162365	-1.403877
Cl	1.783149	0.0	0.0
H	-1.664638	0.308705	-1.292214
H	-0.338243	-0.946561	0.428505
H	-0.117281	1.044884	-1.88572
C	-0.41056	1.100562	0.862675
N	-0.578883	2.027429	1.564878
C	-0.347233	-1.021045	-2.218793
N	-0.253072	-1.968224	-2.908482
Br	-3.673474	0.0	0.0
