15

C	-0.542381	0.006404	-1.427452
C	0.0	0.0	0.0
F	-0.143987	-1.134549	-2.035997
H	1.089106	0.0	0.0
H	-0.391375	0.858679	0.544718
N	-1.935524	0.1863	-1.663385
H	-2.190227	1.126537	-1.38684
H	-2.436568	-0.46673	-1.071707
N	0.13596	1.183446	-2.129649
O	-0.185725	2.286479	-1.687
O	0.892016	0.951966	-3.056919
N	-0.506092	-1.222137	0.685848
O	-1.736455	-1.350453	0.757029
O	0.302509	-2.014319	1.149696
Br	3.494722	0.0	0.0
