15

C	-0.338859	0.020453	-1.473391
C	0.0	0.0	0.0
F	0.005754	1.288684	-1.942053
H	1.088561	0.0	0.0
H	-0.449773	0.844077	0.512925
N	0.271866	-1.034033	-2.131646
H	0.141741	-1.009027	-3.131637
H	1.252969	-1.088152	-1.869905
N	-1.851794	0.013572	-1.738093
O	-2.283297	-0.731836	-2.612676
O	-2.508235	0.818207	-1.089662
N	-0.51304	-1.254982	0.609199
O	0.25716	-2.201043	0.725461
O	-1.701035	-1.257326	0.948065
Br	3.461825	0.0	0.0
