15

C	-0.403378	0.027039	-1.462466
C	0.0	0.0	0.0
F	-0.717299	1.361787	-1.762376
H	1.090944	0.0	0.0
H	-0.426778	0.818168	0.569289
N	0.534904	-0.490422	-2.324374
H	1.424036	-0.724203	-1.896698
H	0.182087	-1.147415	-2.996165
N	-1.781071	-0.633404	-1.672131
O	-1.951164	-1.322516	-2.673631
O	-2.638954	-0.351295	-0.844933
N	-0.39619	-1.265858	0.661676
O	-0.632122	-1.215396	1.865097
O	-0.415449	-2.288526	-0.023204
Br	3.41937	0.0	0.0
