15

C	-0.379003	0.128119	-1.457886
C	0.0	0.0	0.0
F	-1.691297	0.546945	-1.621063
H	1.090358	0.0	0.0
H	-0.434323	-0.880945	0.45609
N	0.49087	0.923113	-2.173432
H	1.439901	0.886345	-1.807443
H	0.453137	0.735792	-3.165475
N	-0.497389	-1.326725	-2.067621
O	-0.948399	-2.222303	-1.362832
O	-0.199246	-1.434739	-3.253833
N	-0.489337	1.174671	0.763235
O	-0.084136	2.284668	0.435056
O	-1.266401	0.947456	1.693094
Br	3.428934	0.0	0.0
