15

C	-0.535943	0.121267	-1.408226
C	0.0	0.0	0.0
F	0.217555	-0.624385	-2.277897
H	1.088841	0.0	0.0
H	-0.360789	0.811737	0.623479
N	-1.923131	-0.114233	-1.543981
H	-2.107134	-1.07223	-1.273278
H	-2.175268	0.013712	-2.51773
N	-0.344863	1.567643	-1.892404
O	-0.004646	2.427284	-1.091762
O	-0.598082	1.74384	-3.080264
N	-0.433307	-1.258469	0.659002
O	-0.754449	-2.224122	-0.039084
O	-0.402754	-1.264378	1.88497
Br	3.43185	0.0	0.0
