15

C	-0.358803	-0.087817	-1.469127
C	0.0	0.0	0.0
F	-0.1715	1.114758	-2.055126
H	1.096348	0.0	0.0
H	-0.371318	-0.87844	0.527966
N	0.40299	-1.068639	-2.170626
H	1.390692	-0.87281	-1.994876
H	0.195146	-1.984269	-1.788241
N	-1.825316	-0.470803	-1.673551
O	-2.154994	-1.527488	-1.137093
O	-2.532937	0.245569	-2.360618
N	-0.585403	1.186689	0.667786
O	-1.733767	1.489892	0.333811
O	0.076587	1.752414	1.529355
Br	3.461658	0.0	0.0
