15

C	-0.352084	-0.15761	-1.473687
C	0.0	0.0	0.0
F	-0.337752	1.119128	-1.983129
H	1.091905	0.0	0.0
H	-0.426301	0.895631	0.439618
N	0.473115	-0.976258	-2.263737
H	1.440896	-0.798415	-1.993033
H	0.259186	-1.947205	-2.07991
N	-1.813968	-0.610095	-1.61416
O	-2.083192	-1.554646	-2.345072
O	-2.619645	0.058306	-0.971331
N	-0.442435	-1.154518	0.808678
O	-0.531142	-2.250507	0.249313
O	-0.662966	-0.953962	1.998888
Br	3.411246	0.0	0.0
