15

C	-0.507457	0.091792	-1.421873
C	0.0	0.0	0.0
F	-1.795131	0.651084	-1.430233
H	1.088667	0.0	0.0
H	-0.414955	-0.850645	0.527104
N	0.376347	0.708389	-2.278813
H	1.044264	1.317576	-1.830635
H	-0.034251	1.054972	-3.129925
N	-0.822578	-1.310706	-1.998411
O	-0.763933	-2.292647	-1.266926
O	-1.134006	-1.314857	-3.184022
N	-0.420221	1.224156	0.730673
O	-1.042774	1.075703	1.780997
O	-0.093025	2.306526	0.249666
Br	3.438971	0.0	0.0
