15

C	-0.398112	0.144813	-1.447762
C	0.0	0.0	0.0
F	-1.694878	0.536407	-1.620805
H	1.0916	0.0	0.0
H	-0.343126	0.891418	0.527536
N	0.462602	1.089899	-2.03812
H	0.344807	1.118578	-3.042644
H	1.435602	0.926639	-1.776533
N	-0.304717	-1.20358	-2.197126
O	-0.911796	-1.269274	-3.263175
O	0.455377	-2.048268	-1.741334
N	-0.590221	-1.157327	0.706931
O	-1.562551	-1.715035	0.196987
O	-0.106305	-1.433556	1.798635
Br	3.448563	0.0	0.0
