15

C	0.0	0.0	0.0
C	-0.482163	-0.061648	-1.438879
Br	2.073785	0.0	0.0
H	-1.576481	0.063001	-1.375734
H	-0.197901	-0.971289	0.446453
N	-0.519079	1.025532	0.736473
H	-0.41867	0.979704	1.73413
H	-0.525691	1.940044	0.322023
N	-0.132591	-1.283709	-2.059161
H	0.867326	-1.333767	-2.212178
H	-0.610706	-1.379155	-2.944407
N	0.033155	1.166884	-2.215094
O	-0.190122	2.278593	-1.737322
O	0.614402	0.971401	-3.28112
Cl	-3.736824	0.0	0.0
