15

C	0.0	0.0	0.0
C	-0.535691	-0.030111	-1.429096
Br	1.941368	0.0	0.0
H	-1.627071	0.011792	-1.325268
H	-0.267126	-0.977979	0.409126
N	-0.486467	1.13522	0.72494
H	-1.501281	1.151231	0.579204
H	-0.336153	0.975086	1.713911
N	-0.125309	-1.199341	-2.122657
H	0.840579	-1.111152	-2.411568
H	-0.701634	-1.33221	-2.941921
N	-0.144568	1.253849	-2.160045
O	0.779467	1.184888	-2.975966
O	-0.780649	2.26923	-1.902701
Cl	-3.583904	0.0	0.0
