15

C	0.0	0.0	0.0
C	-0.359937	-0.126241	-1.507677
Br	2.057112	0.0	0.0
H	0.539431	-0.166567	-2.127145
H	-0.24228	-0.918485	0.524833
N	-0.493638	1.116325	0.692418
H	-0.564363	1.90492	0.06206
H	-1.435428	0.888523	1.010611
N	-1.198191	0.924146	-1.947119
H	-1.361194	0.835616	-2.941875
H	-2.09506	0.843161	-1.45512
N	-0.932721	-1.548408	-1.782996
O	-1.609617	-1.65963	-2.798801
O	-0.563351	-2.476868	-1.071314
Cl	-3.531697	0.0	0.0
