15

C	0.0	0.0	0.0
C	-0.405884	0.512556	-1.418024
Br	1.954093	0.0	0.0
H	0.477032	0.770834	-2.005955
H	-0.279217	-1.04541	0.095534
N	-0.513477	0.731858	1.105969
H	-0.534824	1.715949	0.86223
H	-1.483588	0.436284	1.223425
N	-1.274447	1.626169	-1.366511
H	-1.461005	1.953224	-2.305038
H	-2.16159	1.32885	-0.943667
N	-0.956634	-0.67196	-2.263549
O	-0.591213	-1.812416	-1.996029
O	-1.632203	-0.356339	-3.238023
Cl	-3.616611	0.0	0.0
