15

C	0.0	0.0	0.0
C	-0.37957	-0.283367	-1.499512
Br	1.96851	0.0	0.0
H	0.515562	-0.094435	-2.097626
H	-0.2722	-0.830281	0.651226
N	-0.507178	1.29148	0.373777
H	-1.527397	1.198538	0.350252
H	-0.2508	1.474096	1.337829
N	-1.456224	0.419208	-2.099832
H	-2.320476	0.283609	-1.567865
H	-1.225945	1.404822	-2.098487
N	-0.588455	-1.78675	-1.679252
O	-0.03695	-2.529196	-0.866564
O	-1.213522	-2.165278	-2.659753
Cl	-3.738998	0.0	0.0
