15

C	0.0	0.0	0.0
C	-0.422631	0.126575	-1.497588
Br	1.942841	0.0	0.0
H	0.454525	0.155734	-2.147117
H	-0.281353	-0.985703	0.359621
N	-0.51253	0.985234	0.890239
H	-0.507308	1.883141	0.418357
H	-1.490506	0.739295	1.05332
N	-1.224137	1.267709	-1.740049
H	-1.419538	1.335265	-2.730449
H	-2.114111	1.134214	-1.248475
N	-1.07184	-1.202524	-1.977831
O	-0.753862	-2.249158	-1.422213
O	-1.765412	-1.120141	-2.985711
Cl	-3.566141	0.0	0.0
