15

C	0.0	0.0	0.0
C	-0.458253	-0.308842	-1.44194
Br	2.039804	0.0	0.0
H	-1.531351	-0.084515	-1.427135
H	-0.270286	-0.870734	0.597243
N	-0.473623	1.174598	0.628786
H	-0.421155	1.948319	-0.026067
H	-1.465907	1.003411	0.819096
N	-0.247261	-1.639494	-1.907374
H	0.666852	-1.982237	-1.638505
H	-0.973184	-2.22971	-1.522188
N	0.170673	0.672929	-2.394783
O	-0.140762	1.856335	-2.235008
O	0.966922	0.26679	-3.233673
Cl	-3.474333	0.0	0.0
