15

C	0.0	0.0	0.0
C	-0.366158	0.324482	-1.508792
Br	1.967889	0.0	0.0
H	0.54376	0.651911	-2.017495
H	-0.294362	-1.015411	0.250707
N	-0.50963	0.893629	0.983385
H	-1.508632	0.690242	1.065186
H	-0.41367	1.853545	0.672477
N	-1.388478	1.259299	-1.793196
H	-1.071259	2.202927	-1.629066
H	-2.240508	1.04681	-1.267846
N	-0.671234	-0.998189	-2.226263
O	-1.387544	-0.971125	-3.215828
O	-0.093657	-1.997399	-1.799059
Cl	-3.628722	0.0	0.0
