18

C	0.0	0.0	0.0
C	-0.501562	0.172142	-1.450516
Cl	1.831361	0.0	0.0
H	0.214368	-0.298708	-2.12267
N	-0.496025	1.038009	0.817866
H	-0.222237	0.910156	1.783192
H	-0.189901	1.94144	0.477925
C	-0.403267	-1.352762	0.557354
H	-0.041596	-2.159129	-0.084463
H	0.041954	-1.485342	1.547195
H	-1.490958	-1.377323	0.636909
N	-0.473627	1.628399	-1.808194
O	0.570916	2.322662	-1.716519
O	-1.291583	1.823243	-2.955152
N	-1.818766	-0.367358	-1.77906
H	-1.922018	1.058117	-2.825323
H	-1.798272	-1.372697	-1.622027
Br	-3.732743	0.0	0.0
