18

C	0.0	0.0	0.0
C	-0.509839	0.260681	-1.443296
Cl	1.789572	0.0	0.0
H	-1.589184	0.072457	-1.417923
N	-0.489991	1.113616	0.783573
H	-0.224243	0.955117	1.750863
H	-1.513491	1.038299	0.743378
C	-0.428189	-1.360842	0.534525
H	-0.083114	-1.455022	1.567528
H	-0.01058	-2.181946	-0.047363
H	-1.51951	-1.41312	0.510649
N	0.065953	-0.766689	-2.378491
O	1.05483	-0.453457	-3.037221
O	-0.481654	-1.869705	-2.407178
N	-0.247559	1.558744	-1.982724
H	0.707916	1.825331	-1.76326
H	-0.863132	2.207448	-1.506216
Br	-3.815007	0.0	0.0
