18

C	0.0	0.0	0.0
C	-0.398405	-0.061643	-1.489953
Cl	1.844271	0.0	0.0
H	-0.037591	-1.001058	-1.911688
N	-0.529191	1.153397	0.610919
H	-0.409179	1.156379	1.613334
H	-0.197884	2.007692	0.184994
C	-0.498621	-1.243113	0.707683
H	-1.591396	-1.239541	0.667526
H	-0.17751	-1.227074	1.752071
H	-0.100663	-2.144904	0.239084
N	0.39648	0.980711	-2.285189
O	0.326434	2.151484	-1.922023
O	1.00354	0.58792	-3.276898
N	-1.765804	0.162475	-1.744961
H	-2.268822	0.603903	-0.980371
H	-2.280927	-0.666953	-1.995612
Br	-4.585633	0.0	0.0
