15

C	-0.241273	0.040801	-1.489834
C	0.0	0.0	0.0
Cl	-2.001665	0.089566	-1.915402
H	1.095286	0.0	0.0
H	0.129755	-0.901398	-1.888415
C	0.504781	1.21441	-2.091479
H	0.073694	2.161425	-1.759444
H	1.532835	1.13004	-1.725725
H	0.473162	1.175695	-3.182141
N	-0.448124	-1.264555	0.620849
O	-0.81493	-1.236394	1.795599
O	-0.359737	-2.285773	-0.059368
C	-0.525004	1.144778	0.709482
N	-0.901428	2.121876	1.243537
F	2.492802	0.0	0.0
