15

C	-0.456609	0.010273	-1.463666
C	0.0	0.0	0.0
Cl	0.247323	-1.364773	-2.365921
H	1.091393	0.0	0.0
H	0.009975	0.901509	-1.889441
C	-1.960505	0.024963	-1.672607
H	-2.401409	0.879734	-1.153741
H	-2.193388	0.096371	-2.737458
H	-2.41297	-0.887727	-1.28136
N	-0.551397	-1.184306	0.715
O	0.099057	-2.22345	0.650857
O	-1.636381	-1.07161	1.300591
C	-0.493582	1.210705	0.631797
N	-0.862632	2.23736	1.070778
F	2.482664	0.0	0.0
