15

C	-0.459876	-0.006212	-1.462603
C	0.0	0.0	0.0
Cl	0.256456	-1.371799	-2.370753
H	1.091402	0.0	0.0
H	-0.010243	0.889511	-1.8952
C	-1.965239	-0.012309	-1.65627
H	-2.40213	-0.927825	-1.254656
H	-2.409949	0.840777	-1.139071
H	-2.210388	0.048196	-2.718852
N	-0.550737	-1.170055	0.732739
O	-1.578348	-1.020701	1.405291
O	0.038915	-2.238405	0.594037
C	-0.483684	1.22254	0.615155
N	-0.836494	2.260969	1.035978
F	2.478782	0.0	0.0
