15

C	-0.239775	0.011954	-1.490208
C	0.0	0.0	0.0
Cl	-1.999485	0.046126	-1.918466
H	1.095254	0.0	0.0
H	0.135476	-0.936378	-1.87015
C	0.502197	1.176556	-2.113192
H	0.474347	1.115805	-3.202368
H	0.066467	2.128386	-1.801574
H	1.529469	1.103371	-1.743742
N	-0.444703	-1.254702	0.643715
O	-0.815268	-1.206028	1.816247
O	-0.347398	-2.288705	-0.016166
C	-0.528622	1.156199	0.687705
N	-0.909785	2.143759	1.1989
F	2.492667	0.0	0.0
