15

C	-0.37654	-0.094785	-1.487495
C	0.0	0.0	0.0
Cl	-0.052668	1.500342	-2.246263
H	1.091523	0.0	0.0
H	-1.447729	-0.26874	-1.616653
C	0.495245	-1.150183	-2.143424
H	0.174209	-2.146541	-1.831966
H	1.517018	-0.984266	-1.790898
H	0.431438	-1.088171	-3.231608
N	-0.504148	-1.268893	0.631275
O	0.294166	-2.191362	0.770324
O	-1.701792	-1.325515	0.92974
C	-0.607583	1.119436	0.690308
N	-1.057232	2.039608	1.268279
F	2.53193	0.0	0.0
