15

C	-0.249823	0.006055	-1.486961
C	0.0	0.0	0.0
Cl	-2.016363	-0.003713	-1.900416
H	1.095315	0.0	0.0
H	0.145143	-0.932959	-1.869507
C	0.458144	1.187272	-2.11421
H	0.411236	1.138874	-3.203421
H	0.013617	2.128669	-1.783704
H	1.494796	1.128665	-1.763999
N	-0.440988	-1.256531	0.643659
O	-0.877818	-1.202505	1.794395
O	-0.278125	-2.293217	0.000745
C	-0.532612	1.156101	0.683182
N	-0.911131	2.148412	1.186954
F	2.488934	0.0	0.0
