15

C	-0.487156	0.004597	-1.444437
C	0.0	0.0	0.0
Cl	0.413463	-1.153771	-2.475677
H	1.094709	0.0	0.0
H	-0.191732	0.985304	-1.824725
C	-1.981418	-0.196679	-1.632171
H	-2.267233	-1.204359	-1.332526
H	-2.25372	-0.054563	-2.680415
H	-2.528796	0.5328	-1.027159
N	-0.423531	-1.168091	0.798888
O	-0.439957	-1.038813	2.023304
O	-0.66165	-2.222721	0.207521
C	-0.462618	1.208834	0.653428
N	-0.841159	2.230551	1.097267
F	2.444515	0.0	0.0
