15

C	-0.360685	-0.115378	-1.493374
C	0.0	0.0	0.0
Cl	-0.121564	1.491862	-2.254902
H	1.091495	0.0	0.0
H	-1.421647	-0.347831	-1.625717
C	0.571818	-1.125453	-2.141737
H	0.299017	-2.137784	-1.83252
H	1.581377	-0.908747	-1.776208
H	0.514391	-1.06563	-3.230254
N	-0.495651	-1.266836	0.637338
O	-1.683915	-1.317239	0.971934
O	0.300064	-2.196388	0.746868
C	-0.62209	1.120598	0.674247
N	-1.085244	2.043063	1.236383
F	2.537776	0.0	0.0
