15

C	-0.357418	-0.098023	-1.495167
C	0.0	0.0	0.0
Cl	-0.082934	1.509096	-2.244101
H	1.09157	0.0	0.0
H	-1.420862	-0.307828	-1.633659
C	0.557244	-1.121021	-2.144248
H	1.568291	-0.923437	-1.773438
H	0.266522	-2.129809	-1.841326
H	0.505997	-1.055162	-3.232544
N	-0.500716	-1.274131	0.620399
O	-1.702023	-1.342561	0.900583
O	0.303493	-2.19044	0.768561
C	-0.623563	1.112644	0.686442
N	-1.092467	2.025155	1.260186
F	2.537908	0.0	0.0
