15

C	-0.362554	-0.082485	-1.494184
C	0.0	0.0	0.0
Cl	-0.047215	1.525922	-2.228239
H	1.09157	0.0	0.0
H	-1.430144	-0.264679	-1.634362
C	0.530103	-1.120207	-2.149516
H	0.488092	-1.042582	-3.237322
H	1.543353	-0.9451	-1.769516
H	0.212857	-2.123991	-1.858983
N	-0.505908	-1.278579	0.612783
O	-1.707579	-1.348654	0.886944
O	0.298944	-2.193325	0.760797
C	-0.621636	1.10893	0.692202
N	-1.082809	2.020889	1.273473
F	2.536629	0.0	0.0
