14

C	0.0	0.0	0.0
C	-0.55428	0.126101	-1.418311
Cl	1.774751	0.0	0.0
H	-1.640695	0.273459	-1.202466
H	-0.280013	0.918581	0.529323
N	-0.564777	-1.193995	0.564119
H	-1.593284	-0.99789	0.500068
H	-0.329438	-1.232291	1.550831
N	-0.286106	-1.080722	-2.206546
H	-1.100842	-1.245157	-2.790061
H	-0.265577	-1.837418	-1.52657
C	-0.038335	1.315243	-2.098678
N	0.311578	2.29324	-2.64862
H	-3.023291	0.0	0.0
