14

C	0.0	0.0	0.0
C	-0.40359	0.151821	-1.485375
Cl	1.844555	0.0	0.0
H	0.38248	-0.330392	-2.07544
H	-0.280201	0.899943	0.552929
N	-0.439001	-1.248799	0.539609
H	-0.16412	-1.294933	1.517062
H	-1.471119	-1.109653	0.509515
N	-0.484779	1.550801	-1.904514
H	0.359281	2.019497	-1.589117
H	-1.270864	1.948647	-1.395933
C	-1.643095	-0.54268	-1.896876
N	-2.310195	-1.151491	-2.659711
H	-2.655778	0.0	0.0
