14

C	0.0	0.0	0.0
C	-0.417758	-0.055517	-1.473656
Cl	1.777962	0.0	0.0
H	0.282983	-0.740016	-1.96323
H	-0.304303	0.960565	0.426241
N	-0.48271	-1.166645	0.687784
H	-0.231155	-1.083896	1.668461
H	-1.509508	-1.015089	0.624547
N	-0.230097	1.274306	-2.061084
H	-1.016574	1.83776	-1.747678
H	-0.332812	1.18024	-3.066335
C	-1.777522	-0.600271	-1.775727
N	-2.439263	-1.104043	-2.627548
H	-2.677944	0.0	0.0
