14

C	0.0	0.0	0.0
C	-0.680517	0.036296	-1.318984
Cl	1.844107	0.0	0.0
H	-1.85309	0.091458	-0.843982
H	-0.223952	0.922136	0.542087
N	-0.448842	-1.114891	0.729547
H	-0.450381	-1.915051	0.117594
H	0.09136	-1.301069	1.555998
N	-0.570084	-1.224319	-2.048619
H	0.184343	-1.152054	-2.718303
H	-1.437893	-1.405021	-2.547539
C	-0.368195	1.19408	-2.121559
N	-0.140821	2.108571	-2.828704
H	-2.975236	0.0	0.0
