11

C	-0.534933	0.04463	-1.429205
C	0.0	0.0	0.0
Cl	0.050521	-1.345485	-2.397915
H	1.092745	0.0	0.0
H	-1.62445	-0.031225	-1.451284
H	-0.300778	0.921943	0.511354
C	-0.168618	1.295446	-2.096408
N	0.119797	2.290898	-2.648516
C	-0.546802	-1.137859	0.718209
N	-0.977191	-2.060997	1.304814
H	2.70624	0.0	0.0
