11

C	-0.538018	0.032775	-1.427813
C	0.0	0.0	0.0
Cl	0.049048	-1.362969	-2.390854
H	1.092745	0.0	0.0
H	-1.62864	-0.045817	-1.449022
H	-0.295047	0.925094	0.506999
C	-0.169653	1.279746	-2.097059
N	0.12037	2.281123	-2.636539
C	-0.544827	-1.133435	0.727005
N	-0.975106	-2.05193	1.32173
H	2.703182	0.0	0.0
