11

C	-0.386775	0.000652	-1.474987
C	0.0	0.0	0.0
Cl	-0.149176	1.610666	-2.222622
H	1.092843	0.0	0.0
H	0.316586	-0.671926	-1.980521
H	-0.290755	-0.966498	0.429419
C	-1.7602	-0.435325	-1.724234
N	-2.860414	-0.805872	-1.911772
C	-0.603341	1.069178	0.769031
N	-1.060447	1.933104	1.42359
H	2.682717	0.0	0.0
