11

C	-0.359153	0.111148	-1.466273
C	0.0	0.0	0.0
Cl	-2.050105	0.687189	-1.762106
H	1.09453	0.0	0.0
H	0.299761	0.867545	-1.90217
H	-0.297972	0.922897	0.50639
C	-0.171883	-1.139189	-2.19927
N	-0.051696	-2.147678	-2.787424
C	-0.592451	-1.14183	0.664044
N	-1.049869	-2.069473	1.222913
H	2.677248	0.0	0.0
