16

C	0.0	0.0	0.0
C	-0.446754	-0.332556	-1.435675
Br	1.937933	0.0	0.0
H	0.043859	0.440168	-2.044996
C	-0.385716	1.407503	0.43798
H	-1.470311	1.436009	0.506216
H	0.083144	1.634119	1.394174
H	-0.015005	2.111522	-0.311709
N	-0.453359	-1.029367	1.009966
O	-0.605295	-2.175535	0.613117
O	-0.557124	-0.651702	2.169268
C	-1.902371	-0.23359	-1.774951
N	-2.64244	-0.204048	-2.702674
C	0.086511	-1.603183	-1.949727
N	0.501887	-2.573803	-2.464844
F	-2.543742	0.0	0.0
