16

C	0.0	0.0	0.0
C	-0.447346	0.041717	-1.475693
Br	1.937997	0.0	0.0
H	-0.020704	0.98262	-1.848796
C	-0.403539	1.230224	0.796968
H	0.042291	1.184481	1.789317
H	-0.025462	2.115575	0.278974
H	-1.490698	1.227985	0.843033
N	-0.449741	-1.271201	0.687206
O	-0.693439	-2.234955	-0.024348
O	-0.4659	-1.257118	1.91168
C	-1.908887	0.111466	-1.790301
N	-2.652103	0.257657	-2.70388
C	0.162072	-1.00961	-2.302872
N	0.614655	-1.785771	-3.059302
F	-2.567	0.0	0.0
