16

C	0.0	0.0	0.0
C	-0.443999	-0.199694	-1.461004
Br	1.938048	0.0	0.0
H	0.015796	0.647942	-1.988731
C	-0.39268	1.354893	0.573492
H	-1.477861	1.372213	0.635778
H	0.067782	1.483679	1.551972
H	-0.017374	2.132629	-0.096224
N	-0.454106	-1.128008	0.898707
O	-0.520579	-0.88486	2.095761
O	-0.651665	-2.214925	0.374034
C	-1.903354	-0.12558	-1.789807
N	-2.639075	-0.079531	-2.719863
C	0.127677	-1.395693	-2.09545
N	0.574963	-2.295921	-2.702806
F	-2.553073	0.0	0.0
