18

C	-0.153427	0.0835	-1.514847
C	0.0	0.0	0.0
Br	-1.886301	0.80963	-2.137071
H	1.092219	0.0	0.0
N	0.912477	0.891719	-1.945087
H	1.774939	0.628824	-1.404932
H	1.02916	0.891404	-2.949245
N	-0.02154	-1.345391	-2.149275
O	0.883721	-2.011445	-1.660537
O	-0.68784	-1.652715	-3.130745
N	-0.608571	-1.184109	0.62564
O	-1.404032	-1.870079	-0.020439
O	-0.315092	-1.385638	1.804214
C	-0.452569	1.245837	0.73698
H	-0.033827	1.219446	1.743507
H	-1.541774	1.323586	0.789559
H	-0.052642	2.113114	0.212834
F	2.62229	0.0	0.0
