18

C	-0.545232	-0.017684	-1.423584
C	0.0	0.0	0.0
Br	0.497416	-1.10935	-2.662506
H	1.088264	0.0	0.0
N	-1.886702	-0.436764	-1.497469
H	-2.275348	-0.287314	-2.419344
H	-2.446093	0.043405	-0.803525
N	-0.359878	1.443172	-1.959943
O	-1.398304	2.054224	-2.212792
O	0.769771	1.889727	-2.054917
N	-0.493041	-1.248722	0.631588
O	0.013065	-2.306064	0.271423
O	-1.395054	-1.166973	1.475945
C	-0.443103	1.220264	0.789985
H	-1.514615	1.441728	0.758917
H	-0.159142	1.066616	1.830529
H	0.124791	2.077166	0.426039
F	2.515321	0.0	0.0
