19

C	-0.423864	-0.026936	-1.430055
C	0.0	0.0	0.0
Cl	0.180705	1.339338	-2.349949
H	1.10428	0.0	0.0
N	0.059059	-1.325742	-2.091769
O	1.097834	-1.310182	-2.729179
O	-0.639678	-2.306491	-1.843429
N	-1.954159	-0.069836	-1.709292
O	-2.70615	0.127018	-0.761134
O	-2.293959	-0.279781	-2.867572
C	-0.381882	-1.23574	0.810342
H	-1.459005	-1.415779	0.848707
H	-0.016245	-1.067745	1.827509
H	0.120741	-2.130587	0.442212
C	-0.384398	1.275727	0.745449
H	-0.235844	2.170762	0.140007
H	0.297664	1.355469	1.598163
H	-1.415675	1.256518	1.104927
H	2.719192	0.0	0.0
