19

C	-0.442733	-0.109847	-1.420331
C	0.0	0.0	0.0
Cl	0.357682	-1.415427	-2.27237
H	1.104124	0.0	0.0
N	-1.969433	-0.296622	-1.662128
O	-2.701328	-0.294315	-0.67953
O	-2.331055	-0.418323	-2.825174
N	-0.172029	1.212643	-2.155872
O	0.916654	1.366827	-2.682495
O	-1.071665	2.045693	-2.065111
C	-0.365242	-1.22292	0.840981
H	-0.260469	-2.154187	0.282457
H	0.355752	-1.26565	1.66295
H	-1.377723	-1.165409	1.244127
C	-0.392014	1.297101	0.697177
H	-1.472493	1.448963	0.760021
H	0.020721	1.246595	1.709346
H	0.069639	2.165172	0.221457
H	2.725609	0.0	0.0
