19

C	-0.441539	0.010285	-1.425079
C	0.0	0.0	0.0
Cl	0.353426	1.259606	-2.363239
H	1.104959	0.0	0.0
N	-0.159414	-1.356396	-2.067476
O	0.938333	-1.541579	-2.565208
O	-1.059289	-2.184459	-1.935034
N	-1.972136	0.172171	-1.681406
O	-2.705142	0.221875	-0.701895
O	-2.331812	0.22321	-2.851114
C	-0.392432	-1.247826	0.781978
H	0.028889	-1.13446	1.785065
H	0.063454	-2.145058	0.357655
H	-1.472368	-1.393209	0.86213
C	-0.361412	1.278221	0.75433
H	-0.185962	2.170352	0.148105
H	0.32146	1.34142	1.607976
H	-1.394393	1.283605	1.109724
H	2.725442	0.0	0.0
