16
Coordinates from ORCA-job run
  C   -0.74010374943644      0.16799474030967      0.63632107726576
  C   0.46362001056853      0.39711790441626     -0.29492661705745
  Br  -0.72773950236201      1.37363909085943      2.16338108402444
  H   0.48263975981074      1.47204388496222     -0.50059547489616
  N   -2.01972096461456      0.49305384771437     -0.14552098504192
  O   -2.99142222926789     -0.22032421102158      0.05133563623627
  O   -1.95701176916528      1.46835563649576     -0.88140662191115
  C   -0.80916301841173     -1.20679955829399      1.10120239673661
  N   -0.77104294388626     -2.31444701513463      1.49319305994699
  N   0.17295165680333     -0.38846141772286     -1.48288650577108
  H   0.96134996698772     -0.95174071097210     -1.76785344505767
  H   -0.12959723566165      0.19020067106770     -2.25378285130732
  C   1.76658627230709     -0.03713870778022      0.35695148596113
  H   1.76808663519468     -1.11746207657139      0.52366884063307
  H   2.59614023046762      0.21267653020526     -0.30834823117129
  H   1.93342688066612      0.46229139146611      1.31126715140977
