16
Coordinates from ORCA-job run
  C   -0.80604186040627      0.41575390861708      0.55275576263740
  C   0.57670491066949      0.45109581802879     -0.14670721225172
  Br  -1.60456281645744      2.18373012800679      0.53962622948534
  H   1.11179131453762      1.26615997497352      0.36468239936036
  N   -1.70814489113346     -0.57094122986642     -0.21135011720248
  O   -1.46022354275937     -1.74551303478934      0.03875077470318
  O   -2.51985657421516     -0.13746831593761     -1.00498822704635
  C   -0.71177314704059     -0.02911203273221      1.93363357292784
  N   -0.60007567087672     -0.35345729302143      3.05835213521424
  N   0.34771576516307      0.67931713179339     -1.56031862244382
  H   0.06536949372232      1.63441999835769     -1.74212376129927
  H   1.19466042035553      0.49148985110598     -2.08087234543309
  C   1.36978469372112     -0.83642261105424      0.03681337005564
  H   2.37794875120506     -0.67663632134537     -0.35547581736251
  H   0.90752876613062     -1.65703533831754     -0.51070235487974
  H   1.46017438738420     -1.11538063381907      1.08692421353498
