16
Coordinates from ORCA-job run
  C   -0.77395338162473      0.43071035579074      0.58874530103442
  C   0.58263605770556      0.43779853703368     -0.16160930001223
  Br  -1.52206515617675      2.22033015614761      0.62762454037556
  H   1.15909019610189      1.23078229843033      0.33918621132607
  N   -1.73051053256345     -0.51998263725258     -0.15407782848434
  O   -2.56085094837706     -0.05356567966997     -0.90869003015888
  O   -1.50380244593035     -1.70426613760016      0.06872130639027
  C   -0.64114230776757     -0.03497921411597      1.95942950456773
  N   -0.48866425755759     -0.38594945717797      3.07130007776215
  N   0.30682913625111      0.69130277330189     -1.56221987929272
  H   1.12592467252951      0.48312235421888     -2.11865574548634
  H   0.04737793513163      1.65662188329425     -1.72262702969746
  C   1.34623591507615     -0.87339124974024     -0.02505493602281
  H   1.46029227380192     -1.17424437573640      1.01669481305778
  H   2.34610350219567     -0.73224096540428     -0.44500852285488
  H   0.84549934120402     -1.67104864151980     -0.57275848250432
