16
Coordinates from ORCA-job run
  C   -0.77999936615562      0.42205426132573      0.58610507991710
  C   0.57768392353727      0.44372329277839     -0.16140796803066
  Br  -1.55023672752579      2.20251481542796      0.61944353411904
  H   1.14461122755480      1.24199373513268      0.34210894244361
  N   -1.72433768675826     -0.54205189585707     -0.15457710080061
  O   -2.55671490485383     -0.08811833301392     -0.91476745082394
  O   -1.48594841680172     -1.72295150527658      0.07473323072759
  C   -0.64287444024312     -0.03803814796064      1.95826364742278
  N   -0.48601640926496     -0.38283309136790      3.07146125717280
  N   0.30329066368266      0.69634333151007     -1.56274298362035
  H   1.12708884560284      0.49837754472546     -2.11574724512629
  H   0.03540725815880      1.65967169772502     -1.72155297407929
  C   1.35397267106288     -0.85975896680607     -0.02402199933277
  H   2.35196675636125     -0.70974972944394     -0.44541410121772
  H   1.47252403052402     -1.15787041384204      1.01809530320733
  H   0.86058257511876     -1.66330659505716     -0.56997917197862
