16
Coordinates from ORCA-job run
  C   -0.75949155110102      0.15963565448656      0.61687549991344
  C   0.46626268942656      0.40239591289948     -0.28272546466932
  Br  -0.80316252533747      1.36512175712764      2.14324711465851
  H   0.47521680587406      1.47683855483341     -0.49080173956451
  N   -2.02099865248244      0.46950320189816     -0.19934146190705
  O   -1.94815579662258      1.44097181041045     -0.93923958315375
  O   -2.99149527024882     -0.25083436934011     -0.02229711761414
  C   -0.82395169839227     -1.21633397869376      1.07851245094801
  N   -0.78152014943595     -2.32689631511879      1.46172773526706
  N   0.21697168503655     -0.38866229749113     -1.47564194656796
  H   1.01247352884251     -0.95539285440452     -1.73163651907925
  H   -0.06408826016439      0.18268999047974     -2.25948487609174
  C   1.75738192625711     -0.01112023280839      0.40493201604857
  H   1.89257768017917      0.49443361598330      1.36101541090818
  H   2.60018907154046      0.24726639030993     -0.24010368669558
  H   1.76979051662854     -1.09061684057198      0.57696216759952
