16
Coordinates from ORCA-job run
  C   -0.95273766599455      0.27865822926902      0.11712304332103
  C   0.58644724247711      0.04661878551894      0.11017913335292
  Br  -1.60947686363404      1.06070365288018     -1.51017108777903
  H   0.77139873025467     -0.48105398291692      1.05728648722730
  N   -1.59798160779429     -1.09834860907874      0.36547965563124
  O   -2.10453769339787     -1.69456855518611     -0.57005381540613
  O   -1.45546311081774     -1.50649526053928      1.51356481833029
  C   -1.30868452186216      1.14140131740374      1.23402376342539
  N   -1.52758159602825      1.86158692005141      2.13725321268922
  N   1.22304104597434      1.34513777993449      0.04861210086739
  H   1.36014024587952      1.73922790470073      0.97029649132728
  H   2.11648069750978      1.29006753603135     -0.42011842498362
  C   1.03017739112162     -0.83206408012255     -1.04710363826984
  H   0.45931058099782     -1.75923429158491     -1.10893145374927
  H   2.08145261599934     -1.09517774698254     -0.90605154793736
  H   0.92701450931471     -0.29545959937881     -1.99138873804679
