16
Coordinates from ORCA-job run
  C   -0.76365673301387      0.39288759559809      0.56919669044248
  C   0.64343312528302      0.49402300120066     -0.12936980364740
  Br  -1.74645418022497      2.05578186458721      0.43924037514222
  H   1.20307992581630      1.17835490033940      0.51805555840272
  N   -1.55113294558955     -0.70834231354225     -0.13413461774738
  O   -1.92229940016435     -0.46638330616959     -1.27519367238716
  O   -1.65433675042708     -1.77453674413971      0.46138062493643
  C   -0.62239199780167      0.05413562221469      1.97496441845045
  N   -0.42734451447166     -0.16982415084781      3.11303881647507
  N   0.65910830821538      1.03076464938922     -1.46103877050885
  H   0.10909981828772      0.46239658181033     -2.09319167957998
  H   0.30075819725046      1.97642288767813     -1.48786362412512
  C   1.31024886303439     -0.87735164475510     -0.11503873497862
  H   0.81299823853925     -1.56084210061323     -0.80907624265983
  H   2.34024159387965     -0.75441523418514     -0.44963216838396
  H   1.30964845138697     -1.33207160856490      0.87666283016891
