16
Coordinates from ORCA-job run
  C   -0.89796981350799      0.15998640400419      0.41281335398034
  C   0.59386660385314      0.18677191972534      0.00011380457489
  Br  -2.04416463149687      0.89997681092362     -0.95360072118508
  H   1.11676596319407     -0.18710657781038      0.88730505972867
  N   -1.25433571183353     -1.31546463338366      0.67871603052054
  O   -0.70507867278782     -1.77033702116590      1.67617072830286
  O   -1.95193762361147     -1.91790071848015     -0.11889709014069
  C   -1.10607917819927      0.89667629859719      1.64969686534011
  N   -1.26875689414252      1.48136187930394      2.65633120279497
  N   0.96196501433604      1.57812868649622     -0.17418951232307
  H   0.78388593848678      1.88340469637539     -1.12309723597025
  H   1.94284277221204      1.71408984925114      0.02992359471744
  C   0.88924158012315     -0.73311490928084     -1.17973443084805
  H   0.32958447631233     -0.42582779693911     -2.06575806516029
  H   0.65582156809233     -1.77893053547998     -0.96844608561676
  H   1.95534860896959     -0.66971435213701     -1.40834749871563
