16
Coordinates from ORCA-job run
  C   -0.98204609967989      0.16030850616188      0.08872145147004
  C   0.57377745001291      0.16694207997515      0.04095456623172
  Br  -1.79495953848081      0.22353293707279     -1.65162340579321
  H   0.86355335176260      0.03800036349957      1.09419147113782
  N   -1.38825308443382     -1.12137985089049      0.83965336222434
  O   -1.15949447984795     -1.07807460113308      2.04407195409079
  O   -1.80889163065051     -2.07369366743899      0.20429790643332
  C   -1.44892270086336      1.29668458265360      0.86949446427080
  N   -1.76296676593171      2.24457121056332      1.49028036949448
  N   0.98798648667680      1.43916916180952     -0.51084182802094
  H   1.07411406354334      2.14842067049141      0.20546010665454
  H   1.87030829053733      1.35501927926262     -0.99609116481248
  C   1.12913581284027     -0.98683719806940     -0.77636758622546
  H   2.21280599436027     -1.02499192515051     -0.64038200121343
  H   0.91435292044800     -0.83801639805647     -1.83560588378136
  H   0.71949992970654     -1.94965515075092     -0.46921378216098
