16
Coordinates from ORCA-job run
  C   -0.72546049977700      0.23742320644519      0.63070858588824
  C   0.47429018854427      0.35879632866323     -0.32618246222810
  Br  -0.65096010157037      1.54044614922145      2.07361982035985
  H   0.52710721393638      1.41546361275255     -0.60646683870485
  N   -2.00187098069585      0.55692435318617     -0.15787925455255
  O   -1.91129288421713      1.47182513638724     -0.96502000725386
  O   -2.99888504110195     -0.09838598922799      0.10415857866868
  C   -0.83813401300348     -1.10027637137613      1.18626428747192
  N   -0.83510631735662     -2.18089092555656      1.64920769048670
  N   0.14056413820175     -0.49559621553040     -1.45366390041999
  H   -0.15117854895285      0.03785809770711     -2.26014843551314
  H   0.90216881295470     -1.10873014764336     -1.70614361486168
  C   1.76948672635423     -0.07497906254072      0.34064729464714
  H   2.59851697596010      0.09735147262505     -0.34933714590608
  H   1.73566167763776     -1.14020918936337      0.58375514971211
  H   1.96609265308606      0.48397954425054      1.25548025220562
