16
Coordinates from ORCA-job run
  C   -0.88971659908129      0.27385311480870      0.12333031557662
  C   0.64988549854363     -0.01987637014500      0.18993305325697
  Br  -1.35860088648945      1.42142279977986     -1.35511192881145
  H   0.74772871587435     -0.65504682531639      1.07778255720491
  N   -1.60126627109275     -1.08284308294232      0.01013418016082
  O   -1.53679918682076     -1.74724270817551      1.03940005414216
  O   -2.07819044501977     -1.42095164538038     -1.05955807686733
  C   -1.32399521213259      0.90499320118373      1.35972694465708
  N   -1.59585810635509      1.44330306988612      2.36938312806445
  N   1.45345014997299      1.15515493613469      0.39798858343805
  H   1.37553802857382      1.80007382837927     -0.37827762986570
  H   1.21813476555537      1.63583540519296      1.25743249866045
  C   1.13083966649273     -0.78585053682791     -1.03151318345984
  H   0.59929374816700     -1.72874053673731     -1.16799204653697
  H   1.01688091823599     -0.19096640110416     -1.94015259421908
  H   2.19067521557580     -1.00111824873634     -0.89250585540110
