16
Coordinates from ORCA-job run
  C   -0.79511949550647      0.36244094418359      0.54633577384580
  C   0.62652289561279      0.51934903363303     -0.11183374546504
  Br  -1.83913350253023      1.98472973279086      0.38565169266326
  H   1.13919610205042      1.22637023730487      0.54991440215296
  N   -1.51746249257485     -0.76964689515097     -0.17742777144576
  O   -1.86481439131639     -0.54316737308839     -1.32915664908670
  O   -1.59575982832441     -1.83873013995791      0.41663599209214
  C   -0.68078010424517      0.03026798797912      1.95616134599495
  N   -0.50964069364220     -0.18541602486947      3.09962804653295
  N   0.65883092135108      1.05492517645650     -1.44345961343136
  H   0.26442737548270      1.98568904810914     -1.48293795088102
  H   0.15060549321745      0.46458909748951     -2.09032021327113
  C   1.34682200770363     -0.82430950467021     -0.07524035420370
  H   0.89740149440117     -1.52782122140583     -0.78169917562755
  H   2.38032521096736     -0.66066136354428     -0.38026806202323
  H   1.33557900735314     -1.27760873525956      0.91701628215344
