16
Coordinates from ORCA-job run
  C   -0.72489469398101      0.19184672165109      0.62318257889112
  C   0.47873419636991      0.29950084005921     -0.35220099490413
  Br  -0.45451052904371      1.22515692659583      2.23770744919679
  H   0.45535713868161      1.33491466777458     -0.73066008552202
  N   -2.01334311461523      0.73243048467824     -0.07775752104606
  O   -2.74683517594652      1.49120272200089      0.52848720505073
  O   -2.18618051636594      0.30806716391352     -1.21429501790272
  C   -0.99925478270839     -1.19194486249933      0.98507600112468
  N   -1.22058561977491     -2.29650957076594      1.32119085691968
  N   0.33996870048187     -0.72486596306043     -1.37131682717728
  H   -0.37248575234187     -0.49536283269877     -2.04833430357196
  H   1.22332184205175     -0.86399027379276     -1.84270732266874
  C   1.80070975182080      0.05051124721881      0.36603701135860
  H   2.60325851159869      0.05375716079185     -0.37621414868476
  H   1.78914130187073     -0.92948565625135      0.84821606656531
  H   2.02759874190224      0.81577122438456      1.10358905237075
