16
Coordinates from ORCA-job run
  C   -0.76304310552625      0.27534386456517      0.56816197809466
  C   0.49518646943305      0.33838307341052     -0.31642267681641
  Br  -0.77492962825512      1.66397994806241      1.93057113554785
  H   0.56986570249919      1.37601292660890     -0.65650011659770
  N   -1.98587891653333      0.54577750584119     -0.31804175892969
  O   -2.99943366590952     -0.09339755987441     -0.08107244809449
  O   -1.84115546714543      1.41036593410025     -1.17137400318984
  C   -0.91561997885781     -1.02605018216841      1.19577502715144
  N   -0.94580561700696     -2.07610889485953      1.72352503199696
  N   0.23041683844362     -0.58307580584686     -1.40902412458431
  H   -0.00791966125381     -0.09958073408414     -2.26317305818146
  H   1.00497262118249     -1.20929146423502     -1.57520974008919
  C   1.74400246862777     -0.05441939230918      0.45614654394902
  H   1.69150516698546     -1.10407999501159      0.75713594732363
  H   2.61579144594542      0.07852324222647     -0.18841504885242
  H   1.88304532737122      0.55661753357426      1.34791731127195
