16
Coordinates from ORCA-job run
  C   -0.88573993042454      0.17598786823945      0.26109781712170
  C   0.66475076677129      0.12892635918032      0.02387326880878
  Br  -1.85447521178206      0.76103174569032     -1.30076962718994
  H   1.05903640292222     -0.18929526201991      0.99581656140971
  N   -1.31822839142495     -1.23865943749433      0.67545987938943
  O   -1.91083510401527     -1.94079287218551     -0.12560842302442
  O   -0.92785290669187     -1.55307266143200      1.79508561065903
  C   -1.18591472639423      1.07649482422861      1.36312243967294
  N   -1.35390222338482      1.84505591958056      2.23753669178566
  N   1.24028529854666      1.41016685790326     -0.28725512353044
  H   1.08246881454229      2.09146796841479      0.44506467879135
  H   0.88624568509763      1.77274234948855     -1.16359825960707
  C   1.04236391189524     -0.89757373840041     -1.03142592054749
  H   2.12969060152992     -0.90467279033673     -1.11282198598853
  H   0.62539542977778     -0.63485217710692     -2.00606528655468
  H   0.70671158303471     -1.90295495375006     -0.77251232119606
