16
Coordinates from ORCA-job run
  C   -0.84474754290810      0.35664893930151      0.58743295983007
  C   0.52762930594385      0.56570952836284     -0.10295155315226
  Br  -1.97212717879638      1.92099849799662      0.50890686208383
  H   1.05398970396708      1.26250052159281      0.55881356747890
  N   -1.56532428402723     -0.79614384906237     -0.12381371774808
  O   -1.82052247140135     -0.61818500333857     -1.30667273733835
  O   -1.76515183878184     -1.81575487944975      0.52428139332638
  C   -0.65725626873013     -0.00690326120163      1.98483812352739
  N   -0.42890796062016     -0.26037484238984      3.11006362697979
  N   0.37918246069737      1.22609460058778     -1.38029479288730
  H   1.26093758408956      1.63712051220032     -1.65615342436995
  H   0.07626264950581      0.58000341398158     -2.09735372322484
  C   1.28698515281953     -0.76560303792682     -0.13418390720235
  H   2.29835866046222     -0.58183842188208     -0.50255006805041
  H   1.36316945286768     -1.23473594624401      0.84958002442223
  H   0.80752257491208     -1.46853677252839     -0.82094263367504
