16
Coordinates from ORCA-job run
  C   -0.97865422481416      0.16918761963246      0.12114530917936
  C   0.56440191257896      0.26035195798077      0.04014567553132
  Br  -1.79741397634046      0.12502767260796     -1.62735390900117
  H   0.87570745298933      0.35097641171741      1.08663005054083
  N   -1.30358764066132     -1.11763611124761      0.90424155599205
  O   -1.75505764391166     -2.08309241026707      0.31291896091763
  O   -0.98441118370753     -1.05374520777762      2.08648234819481
  C   -1.52578543438504      1.29214808727288      0.86636569047084
  N   -1.96452608946685      2.19374597968303      1.47980430063273
  N   0.88240876992124      1.50952016866479     -0.62326302353736
  H   0.92116580421979      1.38635539873423     -1.62762065764499
  H   1.77529900757864      1.86256380522460     -0.30643604170719
  C   1.19164402479333     -0.99245323337353     -0.56204366002734
  H   0.84743320882805     -1.14927017292805     -1.58657973570656
  H   2.27575551407458     -0.86090391629220     -0.58080801569564
  H   0.97562049830309     -1.89277604963205      0.01737115186067
