16
Coordinates from ORCA-job run
  C   -0.75090931894970      0.26736040033586      0.58698064008160
  C   0.48527823379567      0.34343086985578     -0.32690228043654
  Br  -0.74122677371211      1.65005575842504      1.95569130152222
  H   0.54456401671293      1.38290898258079     -0.66426311356171
  N   -1.99680639032303      0.53265503068018     -0.26829523830696
  O   -1.87859751531472      1.40051622857846     -1.12241595008155
  O   -3.00031043443881     -0.11352675539351     -0.00840016454402
  C   -0.87933887542824     -1.03776231338200      1.21227550206826
  N   -0.88985748534478     -2.08992707920195      1.73655414404712
  N   0.20096490352480     -0.57537261839431     -1.41672366234349
  H   0.97539420371598     -1.19572228194221     -1.60428706117243
  H   -0.06230365703115     -0.09053009211044     -2.26267830378245
  C   1.75465404336611     -0.04358966344882      0.41426689988478
  H   1.71675828180497     -1.09441278601319      0.71318841804669
  H   1.91046314187902      0.56513472353296      1.30487368802252
  H   2.61027362574308      0.09778159589736     -0.24986481944402
