16
Coordinates from ORCA-job run
  C   -0.85008314695106      0.27199283928348      0.45524006813886
  C   0.62071607605604      0.00728298689272      0.04998497713284
  Br  -1.65362551013789      1.67622556658230     -0.59819443293392
  H   0.95925729758937     -0.74369139249135      0.77224847414552
  N   -1.60618345621043     -1.05580730823371      0.25508064270620
  O   -2.37713353179001     -1.17255228159263     -0.68178264654007
  O   -1.27355586339384     -1.92381148776578      1.05472707369727
  C   -0.94335599492069      0.62812972531049      1.86232335005957
  N   -1.01751036136928      0.90164452514569      3.00304622221384
  N   1.35842801044829      1.22878480486336      0.30506346913415
  H   1.34228090211105      1.83744497150258     -0.50392591973648
  H   2.32104282299977      1.02158954126546      0.53441954856041
  C   0.74328343515423     -0.56299072645883     -1.35902652070122
  H   0.34473769643426      0.13325413002441     -2.10008079593950
  H   1.80162929403734     -0.72512845338296     -1.57467690423342
  H   0.23007232994283     -1.52036744094523     -1.47244660570407
