16
Coordinates from ORCA-job run
  C   -0.73024432702333      0.28620589818861      0.60294320709236
  C   0.48086483662913      0.33245905753241     -0.34588552747647
  Br  -0.66492206991232      1.69176289801188      1.94713379566013
  H   0.54507795302628      1.36661456852231     -0.69877970107356
  N   -1.99644797483460      0.55261610086063     -0.22107962270707
  O   -3.00019087128848     -0.07602868617269      0.07819273421902
  O   -1.89183627017457      1.40393661054079     -1.09353662279013
  C   -0.85690132593848     -1.00636419809934      1.25425139382994
  N   -0.86619988862198     -2.04882534981903      1.79754474686345
  N   0.15557253226535     -0.59877547764267     -1.41313830688985
  H   -0.13677900454880     -0.12389318927176     -2.25511328199618
  H   0.92114488296300     -1.22376795876837     -1.62028052875784
  C   1.76464977827077     -0.06231694500809      0.36601004762372
  H   2.60393914940954      0.05800650421865     -0.32271782751929
  H   1.71997037893000     -1.10854753906301      0.67985855230363
  H   1.95330222084850      0.55591770596970      1.24359694161815
