16
Coordinates from ORCA-job run
  C   -0.77359840750023      0.40108254841964      0.54962634797103
  C   0.65324748574640      0.48555246981613     -0.11093613822736
  Br  -1.73185856566861      2.07578115773446      0.39670729912335
  H   1.20350908350058      1.16157363384208      0.55297076004879
  N   -1.55531287522870     -0.68939545710100     -0.17735700617384
  O   -1.69110342870434     -1.75425500555877      0.41379886571726
  O   -1.89051253747930     -0.44129703520426     -1.32806555161180
  C   -0.67464896944974      0.05759009677408      1.95786713386760
  N   -0.51336531697117     -0.16974604936627      3.10048757902360
  N   0.71074773911872      1.02488292631114     -1.44012465380971
  H   0.16674271899860      0.46785299591720     -2.08745176149362
  H   0.37040009669845      1.97697226132465     -1.47318573322879
  C   1.30159701735091     -0.89428174167781     -0.08209096478797
  H   2.34088651056814     -0.78380559069048     -0.39133942882163
  H   0.81286270588126     -1.57018311973574     -0.78927001726180
  H   1.27040674313904     -1.35032409080504      0.90836326966488
