16
Coordinates from ORCA-job run
  C   -0.80109711458892      0.37549366870656      0.52810811811539
  C   0.63589101573743      0.51016861058951     -0.10134409663128
  Br  -1.81961486946165      2.01070567588872      0.33740786594677
  H   1.14440415536427      1.21333233623178      0.56768975360698
  N   -1.52327519442297     -0.75074908167369     -0.20491823481206
  O   -1.84410155387400     -0.52581168441133     -1.36459844340789
  O   -1.62717532129624     -1.81576874159064      0.39256769217855
  C   -0.72028004206102      0.04936934885913      1.94161493882462
  N   -0.57681021047832     -0.16217506150620      3.08972110545138
  N   0.70266942059837      1.03884395071812     -1.43438001420879
  H   0.32294399625429      1.97511923024754     -1.48569420906173
  H   0.19878960700109      0.45308520693424     -2.08880146063302
  C   1.33716026812228     -0.84273607019864     -0.04362567312235
  H   1.29988520020581     -1.29073199589486      0.95039330451032
  H   2.37874824605022     -0.69438942814085     -0.32835254604286
  H   0.89286239684935     -1.54375596475939     -0.75578810071403
