16
Coordinates from ORCA-job run
  C   -0.78498491345819      0.40737309402881      0.59042443072614
  C   0.57455234110338      0.45086290953235     -0.15357401049798
  Br  -1.56826284836224      2.18138207372034      0.64961839109850
  H   1.13284880153182      1.24770045983336      0.36146104142533
  N   -1.71989887638369     -0.55154490932878     -0.16847443746098
  O   -1.47392731723853     -1.73421876814987      0.04236225863556
  O   -2.55309012484398     -0.09120348165942     -0.92384688201694
  C   -0.64793570112274     -0.07324649833106      1.95554418069327
  N   -0.49210760088033     -0.43535705899194      3.06335868358831
  N   0.30079373843169      0.71884366470688     -1.55217304944651
  H   1.12778796242760      0.53629189959080     -2.10553368509709
  H   0.02339767528609      1.68123379994369     -1.69889138938433
  C   1.36231957050856     -0.84704182657029     -0.03067099067631
  H   0.87439514250912     -1.65002296106215     -0.58203261949991
  H   2.35754055873684     -0.68497197443315     -0.45389231106342
  H   1.48657159175460     -1.15308042282957      1.00832038897635
