16
Coordinates from ORCA-job run
  C   -0.74724272915907      0.16545296193595      0.56799964328535
  C   0.54983958934432      0.43175137594889     -0.24461780526552
  Br  -0.85799907406208      1.24900082010962      2.17462690146126
  H   0.57720923160495      1.51481335779237     -0.39386064915909
  N   -1.93163005072795      0.56776163937782     -0.31845762883912
  O   -1.88446862884303      1.70015878203854     -0.77739421660705
  O   -2.79534361479806     -0.27542417845080     -0.52385828678331
  C   -0.87289931327121     -1.23968057661719      0.91651626135893
  N   -0.86868194522375     -2.38569367876993      1.18095086289528
  N   0.51405319016945     -0.20099539947837     -1.54153241279040
  H   -0.21080707423669      0.16048894737825     -2.14618277192819
  H   0.45062682058036     -1.20967816278851     -1.48184126352054
  C   1.78232415196059     -0.03056973500567      0.51633510741388
  H   1.77328122874378     -1.11636171327015      0.64606912907373
  H   1.85974391231505      0.43599433121749      1.49819731563323
  H   2.66099430560334      0.23298122858169     -0.07295018622845
