16
Coordinates from ORCA-job run
  C   -0.74408542547922      0.22341464592818      0.61406747140542
  C   0.47468400669439      0.36801760626509     -0.31529142745710
  Br  -0.72800916688188      1.52752969306635      2.05742975574981
  H   0.51308754026745      1.42550659586907     -0.59471372512215
  N   -2.00838243363049      0.51805718733072     -0.20398201597864
  O   -2.99804009882820     -0.15669764588327      0.03513137396805
  O   -1.91676107038438      1.43473785263499     -1.00893500715862
  C   -0.84370340974792     -1.11640727586996      1.16704216656388
  N   -0.83010147453478     -2.19670711881217      1.63049597965771
  N   0.18294770921950     -0.49285916408379     -1.44983717430040
  H   -0.09993069039003      0.03598641338513     -2.26257491000464
  H   0.96308822941690     -1.08932509307985     -1.68537838656739
  C   1.76209264238625     -0.04133525998013      0.38130577512543
  H   1.92667877056757      0.51970148748911      1.30114132953462
  H   2.60351910347677      0.14784308939244     -0.28906764198378
  H   1.74291576784807     -1.10746301365191      0.62216643656778
