16
Coordinates from ORCA-job run
  C   -0.71623578595962      0.25660119969621      0.57378412136001
  C   0.55561888142923      0.37882417244258     -0.30959265429903
  Br  -0.71992481545653      1.50830079957054      2.05736938023192
  H   0.61818601340902      1.43719626095955     -0.57754875276734
  N   -1.91920608393949      0.61266885051149     -0.30754690621327
  O   -1.84816390932660      1.68822863549727     -0.88482493590211
  O   -2.82094153303868     -0.21110822766608     -0.39239145153041
  C   -0.88205984209513     -1.09686129822372      1.07629616838397
  N   -0.91036050298142     -2.20728380897563      1.46293346689375
  N   0.44187812391674     -0.38748512745658     -1.52768689757072
  H   -0.28997629520401     -0.05895751414170     -2.14267350706798
  H   0.33844027979443     -1.38006643270954     -1.35679108754513
  C   1.79986074088954     -0.05053850706333      0.45135709769148
  H   2.66306672805220      0.11056494289574     -0.19487761212762
  H   1.75489418885313     -1.11455335221265      0.69940572102875
  H   1.93492381165719      0.51546940687585      1.37278784943370
