16
Coordinates from ORCA-job run
  C   -0.93329156507299      0.18794234084824      0.30132425570215
  C   0.58493529380302      0.12606946649468     -0.03634718032198
  Br  -2.02878040895666      0.64677452618828     -1.20957154242312
  H   1.04159156931061     -0.23092575789788      0.89845446861466
  N   -1.31231073615842     -1.19830564488694      0.85517875167380
  O   -0.87239245676229     -1.41459717946445      1.97968315139611
  O   -1.92054044750178     -1.97727787416360      0.14052937438589
  C   -1.15658786344693      1.16219308924918      1.35964496690596
  N   -1.27487353663655      1.97699626392043      2.19904503766176
  N   1.00550197481703      1.46208550667524     -0.40114625796265
  H   1.77888397983343      1.43468570599876     -1.05092591540047
  H   1.27753163529250      2.00365095649047      0.40894966973224
  C   0.88604606996105     -0.86227283474475     -1.14988489889432
  H   0.45304119657585     -1.84530470932241     -0.96177486164954
  H   0.50410803016097     -0.48920673637276     -2.10135626579397
  H   1.96913726478117     -0.98350711901250     -1.23080275362653
