16
Coordinates from ORCA-job run
  C   -0.93446100659173      0.08950209606911      0.02939622310677
  C   0.62552715721920      0.25533503121407      0.04531560091899
  Br  -1.61565097865817     -0.31245671546166     -1.73046501212604
  H   0.84330228712518      0.49435768309505      1.09256219510797
  N   -1.27589235195258     -1.03511054637239      1.01867565804447
  O   -1.08826914013939     -0.71961898863044      2.18926836405850
  O   -1.60714090026866     -2.12756586540241      0.59113595162467
  C   -1.56377734717735      1.31143408984074      0.50496583450410
  N   -2.00291701594511      2.34170813799767      0.86381794160223
  N   1.09856512793404      1.34701737271744     -0.76342851698591
  H   0.71610400798520      2.23765927758226     -0.47020317587737
  H   0.89070821734287      1.19998403095466     -1.74317850662394
  C   1.33365540337535     -1.03506973611279     -0.33335611848003
  H   1.11483202214915     -1.31658332392420     -1.36547762796102
  H   2.40667331263131     -0.86313933860920     -0.24447244446784
  H   1.05974120497071     -1.86745320495790      0.31644363355446
