16
Coordinates from ORCA-job run
  C   -0.76148883979681      0.39987293120626      0.56745616352776
  C   0.64627848413802      0.48944394440043     -0.13226807598087
  Br  -1.73453769220952      2.06774356313867      0.42854647449878
  H   1.20961808349207      1.17449595384343      0.51114003079139
  N   -1.55498650768071     -0.70072402319733     -0.13021520643563
  O   -1.66152211105837     -1.76399453243379      0.46996053056690
  O   -1.92661110004468     -0.46216442267197     -1.27182360203775
  C   -0.62183896148073      0.06785470524257      1.97488379708426
  N   -0.42861514434871     -0.15180610284378      3.11412308192881
  N   0.66400138405546      1.01860449742993     -1.46673559642419
  H   0.10799831223408      0.45191484163568     -2.09524863693786
  H   0.31404508675722      1.96728835461141     -1.49811712877283
  C   1.30568553886415     -0.88543829887541     -0.11012263469133
  H   1.30297838021097     -1.33429168007000      0.88420015656070
  H   0.80477559817515     -1.57020782630337     -0.80014178742063
  H   2.33621948869242     -0.76959190511273     -0.44563756625751
