16
Coordinates from ORCA-job run
  C   -0.77302385086463      0.37784341669222      0.56645612009939
  C   0.64224340309097      0.49973623086989     -0.11247932379292
  Br  -1.76370301452959      2.03762174034175      0.45364884190450
  H   1.18901028696556      1.17637944251656      0.55381834827468
  N   -1.54552664192030     -0.71459156914501     -0.16623816458237
  O   -1.90294249804023     -0.45466685551548     -1.30773993747968
  O   -1.65091862836003     -1.79176081305296      0.40882775402548
  C   -0.64760929172702      0.01493913191006      1.96761728367697
  N   -0.46509490142343     -0.22662087178011      3.10418001111701
  N   0.67111719237641      1.05979880255693     -1.43412001214528
  H   0.13214932959113      0.50007610952963     -2.08340385026088
  H   0.30842218606724      2.00408189640032     -1.44897468758661
  C   1.31707075472398     -0.86771640829191     -0.11321882409472
  H   2.35017784141053     -0.73348446958946     -0.43379219323491
  H   1.30788077405149     -1.33924861280750      0.87066075834417
  H   0.83174705858796     -1.54238717063492     -0.82424212426484
