16

C	0.051816	-0.000775	0.03331
C	-0.549068	-0.376674	-1.319618
F	1.449752	-0.138154	-0.050352
H	-1.649924	-0.359648	-1.189751
C	-0.199053	1.425249	0.310873
N	-0.332571	2.548877	0.622096
C	-0.469572	-0.871727	1.155072
H	-1.559302	-0.79219	1.183796
H	-0.187886	-1.909152	0.963424
H	-0.036959	-0.553	2.10519
C	-0.151387	-1.756619	-1.647645
N	0.202812	-2.831558	-1.964606
N	-0.16395	0.583672	-2.341122
H	-0.869388	0.600818	-3.065744
H	0.728764	0.341668	-2.751189
Cl	-3.761114	-0.321457	-0.591838
