16

C	0.04144	0.017868	-0.032553
C	-0.455147	-0.020867	-1.502938
F	1.369397	-0.427004	-0.016075
H	-0.495894	-1.082825	-1.773209
C	0.050266	1.417441	0.433192
N	0.045545	2.535853	0.791678
C	-0.775017	-0.870862	0.876097
H	-0.633984	-1.905052	0.554945
H	-1.842818	-0.654218	0.80926
H	-0.42796	-0.763716	1.905751
C	0.563622	0.617285	-2.358945
N	1.362159	1.135334	-3.04594
N	-1.751895	0.551028	-1.755502
H	-1.808857	1.498003	-1.399352
H	-2.486926	-0.021694	-1.323111
Cl	-4.084735	-1.224357	-0.363192
