15
Coordinates from ORCA-job run
  C   0.89989100356480      0.12738820100800      0.15072388168252
  C   -0.56530866315084     -0.20225166694790      0.53404610997649
  Br  2.04861585094793     -1.39396571196195      0.61903099569407
  H   -0.58996380271888     -0.36627287962545      1.61682840859207
  N   1.00464901622601      0.34449475668692     -1.26948508562541
  H   1.96742869284773      0.52161269441611     -1.53209657814586
  H   0.44460011673543      1.15154438367445     -1.53183620305667
  C   1.37695577057919      1.25231400435493      0.97313233583181
  N   1.74365027965731      2.18979840816751      1.58218031480968
  C   -1.13718202692546     -1.41739180585406     -0.19987236209435
  H   -0.60377706314866     -2.32033946770270      0.09447564144670
  H   -2.19055239519338     -1.53436905048291      0.06042961923301
  H   -1.04607846428995     -1.28737358633542     -1.27719722723258
  C   -1.36448766076260      0.99167383930126      0.23601032870866
  N   -1.98844065436863      1.94313788130120     -0.05737017982015
