15
Coordinates from ORCA-job run
  C   0.94272257209303      0.22775333165130      0.31816641625488
  C   -0.45062250392800     -0.44517932799388      0.47739187074830
  Br  1.84397923740628      0.12679868658642      2.06853891341683
  H   -0.25603153781417     -1.46970406278522      0.81757197503216
  N   1.81288468340080     -0.37496491336746     -0.65072734688507
  H   1.51751294924013     -0.17180804834646     -1.59770784980959
  H   1.89381396223407     -1.37417316545970     -0.50511758600001
  C   0.76554401516989      1.64162116335431     -0.01974740656603
  N   0.58180759758692      2.75656791680190     -0.34340304971568
  C   -1.22077377839836     -0.47081325826883     -0.84699246246379
  H   -1.39635763963311      0.54265533224259     -1.21421086995157
  H   -2.18941701124230     -0.95111964442317     -0.70018143209684
  H   -0.67339261939710     -1.03897360565511     -1.60025095685606
  C   -1.24595796591672      0.22812794685038      1.50432394811862
  N   -1.92471196080137      0.77521164881294      2.29134583677386
