15
Coordinates from ORCA-job run
  C   0.94825359721707      0.25738717549525      0.16372226251082
  C   -0.49720106257133     -0.19171966730479      0.54922072772123
  Br  2.18670560867479     -1.16810385175220      0.72837657327580
  H   -0.51961352715454     -0.34549124867616      1.63372247689597
  N   1.19143296494304      0.53394868362039     -1.22236097852063
  H   0.66407458281375      1.34551042610943     -1.52681919141687
  H   0.97846708207834     -0.26611088661050     -1.80424015398619
  C   1.28906318954912      1.44608488691290      0.95167629119582
  N   1.51649218577305      2.40944155758607      1.58542883228851
  C   -0.97507720987127     -1.45779651637763     -0.16398750902835
  H   -1.99268604272127     -1.68983130176569      0.15424450584575
  H   -0.99204999729121     -1.31725421574741     -1.24625960830732
  H   -0.33388289324881     -2.30352277816819      0.08128016439229
  C   -1.38516910588152      0.92737777978743      0.21949853969284
  N   -2.07780937230921      1.82007995689110     -0.10250293255968
