15
Coordinates from ORCA-job run
  C   0.75211004821608      0.44396476343308      0.09896215903417
  C   -0.44609258218892     -0.52897297033373      0.08815145802964
  Br  0.31464169266091      2.05634996804005      1.12089322046097
  H   -0.09420094746083     -1.41260181279799     -0.46442572051859
  N   1.87211672715248     -0.18839666183751      0.74902355541181
  H   2.65967308804297      0.44689963631664      0.81228622923267
  H   2.15668427311792     -1.01055858037384      0.22474390074050
  C   1.02546912034972      0.88197354419658     -1.27996643595538
  N   1.29328164622131      1.16350037600456     -2.39056197972008
  C   -1.69648366550199      0.01297167884956     -0.60662307613948
  H   -1.46868218686518      0.30398182895046     -1.63370498287615
  H   -2.09235492699573      0.87497215168241     -0.06970170872694
  H   -2.46384913651831     -0.76231238057530     -0.62901632173203
  C   -0.74755940145623     -0.95908417018125      1.45456796503934
  N   -1.06275374877420     -1.32268737137372      2.52537173771957
