15
Coordinates from ORCA-job run
  C   0.93828953755715      0.24666941052997      0.22441409041774
  C   -0.54277293452104     -0.15041537949225      0.51985581776186
  Br  2.09368788811217     -1.16517637589922      0.97225487046490
  H   -0.65194708470446     -0.24398316978869      1.60591421869147
  N   1.29557402599434      0.43176099706420     -1.15199181824980
  H   1.10112237314117     -0.39484694524321     -1.70219271245002
  H   0.82252651943137      1.23955651027247     -1.54277651320517
  C   1.24683471513620      1.47614126202309      0.96150812791196
  N   1.45241842342061      2.47624130024687      1.54343103443505
  C   -0.99416606281992     -1.44432089285534     -0.16009566717777
  H   -2.03589948077434     -1.64330888997009      0.09630209098714
  H   -0.38838235049312     -2.28624499200823      0.17268126504342
  H   -0.93281713954911     -1.35993782594457     -1.24654316740835
  C   -1.37695272398040      0.96542726478063      0.06297714530985
  N   -2.02651570595062      1.85043772628437     -0.35573878253228
