15
Coordinates from ORCA-job run
  C   0.88231255606436      0.22685618503564      0.18255775667077
  C   -0.47129437098889     -0.46109656382430      0.46719935753900
  Br  1.91954376423679      0.24667844898635      1.91522007212928
  H   -0.23701181909678     -1.48028511105369      0.79985016914214
  N   1.56388365618924     -0.45024339771431     -0.86014615990763
  H   1.78006048853104     -1.40360271415015     -0.59176507295051
  H   2.41988447461092      0.02436653200844     -1.12069229498718
  C   0.68718307967045      1.63011703213494     -0.17821786358434
  N   0.52244476660043      2.74840485585592     -0.50056226732796
  C   -1.35380727080103     -0.50462267594321     -0.78675926155607
  H   -1.58831325919055      0.50723282329481     -1.12371303654279
  H   -0.84297247769671     -1.03369637648503     -1.58972578666372
  H   -2.29038988915591     -1.01423020031972     -0.55417407749446
  C   -1.18096127612656      0.21265170400402      1.55502954293357
  N   -1.81256242284679      0.75046945817029      2.38589892259991
