15
Coordinates from ORCA-job run
  C   0.89522860431147      0.12192589372494      0.17925286033990
  C   -0.57880847766062     -0.22349793596550      0.51092930618302
  Br  2.03365920534249     -1.41687287980773      0.61532693515836
  H   -0.63140552782843     -0.43036098345856      1.58533733765357
  N   1.03656169735371      0.39618997667672     -1.22790096842185
  H   2.00573528301777      0.58482399661018     -1.45738591548327
  H   0.48204557448595      1.21289881143136     -1.47189793022382
  C   1.35013991657322      1.21259864620902      1.05814088530861
  N   1.70237217820572      2.12436189824465      1.71318250395640
  C   -1.12949801175903     -1.40876086827042     -0.28550066266315
  H   -1.00917714533172     -1.23628084012010     -1.35398734250263
  H   -2.18948969501541     -1.53555982089890     -0.05886135189329
  H   -0.60358969026710     -2.32276543708546     -0.01252825547892
  C   -1.37201979567985      0.98072399183211      0.23935917363527
  N   -1.99075411574816      1.94157555087770     -0.03346657556822
