15
Coordinates from ORCA-job run
  C   0.87973805046547      0.23397864876258      0.18614019331662
  C   -0.47481113805316     -0.45225707175279      0.47063087941853
  Br  1.89636204148583      0.30055726058597      1.93074486855183
  H   -0.24038558668923     -1.46443012032375      0.82389081753758
  N   1.57665254991494     -0.46605531547632     -0.83063185078358
  H   2.43081308580505      0.00773553649794     -1.09775875090861
  H   1.79713912386880     -1.41047247889700     -0.53530900681635
  C   0.68390635716261      1.62751787824495     -0.21073549445612
  N   0.51332551904438      2.73660674415786     -0.56057879366598
  C   -1.34431572750603     -0.52207687628142     -0.79092490984483
  H   -1.58895965189937      0.48242816757935     -1.14172043545987
  H   -2.27642769814436     -1.04151512118517     -0.56151454842247
  H   -0.81799932222922     -1.05391405389542     -1.58178091318076
  C   -1.19757310977474      0.23735827751372      1.53957990061674
  N   -1.83846449345098      0.78353852446947      2.35796804409725
