15
Coordinates from ORCA-job run
  C   0.77192109242673      0.47747092973293      0.23935074341970
  C   -0.38375382148709     -0.45656522207957     -0.22674099558550
  Br  0.39094944782897      1.10144960584075      2.06455830590581
  H   -0.10984725487233     -0.74120759629993     -1.25276550492115
  N   2.08261419857942     -0.11328642443997      0.25418395657594
  H   2.37636032349773     -0.35586252131800     -0.68623080342633
  H   2.09688759193045     -0.93779712134478      0.84494050907352
  C   0.78967510440421      1.65025706996096     -0.63923437950699
  N   0.78436329744529      2.54875117676673     -1.39688442752597
  C   -1.77543606213445      0.17582190656636     -0.24433004064905
  H   -1.76358129104697      1.09504088664818     -0.83311693829159
  H   -2.11134322834162      0.40432337159054      0.76637528658078
  H   -2.48609106847411     -0.51584160653475     -0.70008089380297
  C   -0.35162298570562     -1.67653439497424      0.58049321716684
  N   -0.31309534405060     -2.65402006011520      1.23048196498697
