15
Coordinates from ORCA-job run
  C   0.80343331319495      0.44563552593635      0.19148719368248
  C   -0.41643708994391     -0.43110694499767     -0.21944834889388
  Br  0.64078586794926      0.91278048995541      2.09497423867450
  H   -0.26363441798303     -0.62803923532467     -1.29015979088332
  N   2.09463039220189     -0.15875978653022      0.00844491836981
  H   2.28059197658878     -0.31688702167802     -0.97619636400800
  H   2.15694476554645     -1.03321837681663      0.51855489495154
  C   0.74765825799652      1.69038119257004     -0.58010685302161
  N   0.67610524871145      2.65110834597090     -1.25321878199902
  C   -1.78794531230798      0.21591243443271     -0.02726170332463
  H   -2.00221600742550      0.36591866701926      1.03016203990823
  H   -2.55962742036949     -0.42884485348411     -0.45162413088951
  H   -1.82412445012158      1.17938662169120     -0.53937435318186
  C   -0.31945577634447     -1.71705756092138      0.47154875730928
  N   -0.22570934769335     -2.74920949782316      1.02421828330599
