15
Coordinates from ORCA-job run
  C   0.94381197068869      0.24819528569858      0.19852668657193
  C   -0.51167337152043     -0.21165290063454      0.52882333537758
  Br  2.16505705672338     -1.20124285778604      0.74094873959319
  H   -0.56249923285257     -0.40792415396248      1.60547361953397
  N   1.22368480132536      0.57666282205072     -1.16905947407937
  H   1.02374195198658     -0.19952995697025     -1.78677632243039
  H   0.70751442273560      1.40179875658432     -1.45564528099796
  C   1.26660148493143      1.40511374450943      1.03951712545869
  N   1.48077205751014      2.34612455726181      1.71042385674948
  C   -0.97295382418467     -1.44749708099026     -0.24578669810922
  H   -0.96341951717842     -1.26386659234079     -1.32165115873662
  H   -1.99817572715303     -1.69038701126891      0.03799759277145
  H   -0.33851312212043     -2.30337677158224     -0.01888613900261
  C   -1.38921428145449      0.92164929104098      0.22038852367566
  N   -2.07473466943714      1.82593286838967     -0.08429440637577
