15
Coordinates from ORCA-job run
  C   0.86688161725816      0.27412198559316      0.15781963894067
  C   -0.55812912458453     -0.19658859704429      0.53440942839588
  Br  2.13377691688999     -1.20948037754225      0.76274822624501
  H   -0.53140344283767     -0.49033453988003      1.58829459843757
  N   0.96850345143455      0.58599696152448     -1.20992203330996
  H   1.84948277639315      1.02228922166937     -1.44921176806234
  H   0.80605634694530     -0.21716417095022     -1.80303161877165
  C   1.25958727909442      1.42490659913416      0.96995247285136
  N   1.56648365746379      2.35754695790422      1.61625961259938
  C   -1.06122827125679     -1.36625639849757     -0.31552019414313
  H   -2.02089497157889     -1.70760326911912      0.07535538451974
  H   -1.22061141884983     -1.05778277967450     -1.35023056277819
  H   -0.35780844876996     -2.19851142447610     -0.27850333238637
  C   -1.47026907855551      0.94464879937814      0.40332098340669
  N   -2.23042728904616      1.83321103198056      0.29525916405533
