15
Coordinates from ORCA-job run
  C   0.79876223149519      0.35835545170284     -0.00327169093391
  C   -0.46244513522346     -0.53466499502560     -0.05928724479964
  Br  0.47973632222626      1.82879201125754      1.35255166491409
  H   -0.22886091918269     -1.27682907783658     -0.83364633025822
  N   1.94400772747136     -0.42169325878452      0.27510568921159
  H   1.86588952516795     -0.89280286232165      1.16966664693488
  H   2.79550055724661      0.12553317721683      0.25109407319298
  C   0.96533791127275      1.05139640112716     -1.28056516279173
  N   1.09425319037106      1.58096842643511     -2.32191440314753
  C   -1.75691954479485      0.19041952901747     -0.42435226922280
  H   -2.04928140371094      0.89101105503333      0.35654674471958
  H   -2.55526519941765     -0.54225906160848     -0.55383767855338
  H   -1.63199744968250      0.73274683625054     -1.36358386146239
  C   -0.58662404609567     -1.25503396739797      1.20883872051406
  N   -0.67209376714341     -1.83493966506602      2.22665510168244
