15
Coordinates from ORCA-job run
  C   0.93107545263296      0.22851642847917      0.26954531674151
  C   -0.56428198710930     -0.16440602226005      0.49030055225553
  Br  2.04401652558458     -1.22653142658703      0.99703095804313
  H   -0.71815397619717     -0.29668449065452      1.56692181915387
  N   1.34349150483808      0.46976952980849     -1.08273526535012
  H   1.17056818429112     -0.33357854389471     -1.67327553832282
  H   0.88460984013296      1.29278673254706     -1.45888616726794
  C   1.22039672222807      1.42027317204794      1.07331721854624
  N   1.40720153878588      2.38772873077010      1.71402799488114
  C   -1.00057556645944     -1.42720723769653     -0.25486137031535
  H   -0.42203796201360     -2.28902123070727      0.07544294226382
  H   -0.88753517530472     -1.30626602756192     -1.33372423153276
  H   -2.05562362028175     -1.61938668246576     -0.05352880470583
  C   -1.36781964732974      0.97706495408031      0.04196743817277
  N   -1.98633183379793      1.88594211409471     -0.37254286256318
