15
Coordinates from ORCA-job run
  C   0.89873874934795      0.12099475166110      0.15977399664045
  C   -0.56842023369985     -0.22293488295436      0.52250144268661
  Br  2.04423891338624     -1.41944248317652      0.56857109984550
  H   -0.59879030641315     -0.42931195131332      1.59787235387535
  N   1.01001050961118      0.39731365206306     -1.24991960189887
  H   0.45693435728960      1.21916315251460     -1.47928515119793
  H   1.97509692267066      0.57912289437171     -1.50094700360265
  C   1.37270774998467      1.21021539535417      1.03037755224534
  N   1.73528594091224      2.12060455782408      1.68152630043116
  C   -1.13698632444131     -1.40781847260067     -0.26173981751665
  H   -0.60942380923880     -2.32303173642240      0.00375998455438
  H   -2.19322073759010     -1.53083275759168     -0.01630915740849
  H   -1.03477292988458     -1.23749001112350     -1.33243113709084
  C   -1.36523613137248      0.98240237204154      0.26715802242949
  N   -1.98716267056227      1.94504551935219      0.00809111600714
