15
Coordinates from ORCA-job run
  C   0.88871270543658      0.22894447900497      0.14664733709369
  C   -0.44973315590965     -0.46637456456011      0.48115201236181
  Br  1.99707168328064      0.24204095045413      1.83490334664596
  H   -0.19822278939746     -1.48902779390357      0.78961268002596
  N   1.52938588852682     -0.43925871190570     -0.92744895496746
  H   2.37053999460398      0.04163156532333     -1.22231973704613
  H   1.76251686523569     -1.39269250754122     -0.67329800187969
  C   0.67305254280699      1.63378129908429     -0.19704188226118
  N   0.48443010432944      2.75166043027923     -0.50699208412102
  C   -1.38510241844926     -0.49705227172197     -0.73388436478038
  H   -0.90367877070772     -1.00667517196110     -1.56678731569098
  H   -2.30581615887815     -1.02069114450599     -0.47074132127801
  H   -1.64386732953449      0.51780330821593     -1.04194121698906
  C   -1.11322307132522      0.18852735869593      1.60871594876033
  N   -1.70706609001819      0.70638277504188      2.47942355412617
