15
Coordinates from ORCA-job run
  C   0.88353644231144      0.11187000765808      0.23235515795616
  C   -0.62279111570624     -0.14950026805859      0.48612409707918
  Br  1.92655620734947     -1.40754841018177      0.90821033518914
  H   -0.75922507727944     -0.24310915653969      1.56896642180696
  N   1.13525152970207      0.23150473049269     -1.18109153025963
  H   0.63205443422102      1.03499835345703     -1.54887219966633
  H   2.12485933047681      0.36459551349906     -1.35568277568495
  C   1.31792978255039      1.27416704961094      1.02610604497951
  N   1.68065899854056      2.22789837704433      1.61183154623687
  C   -1.16270062257774     -1.39215926945397     -0.22572641237522
  H   -0.69216682551515     -2.28929485324900      0.17458795740111
  H   -2.23984068187481     -1.46183646912328     -0.06468451065377
  H   -0.96261744067635     -1.33420343415241     -1.29456364382603
  C   -1.34678973467625      1.04515471922293      0.03720109123045
  N   -1.91571522684579      1.98746310977364     -0.37376157941346
