15
Coordinates from ORCA-job run
  C   0.77438304879245      0.48220161193077      0.21878273680295
  C   -0.38964045548096     -0.47386539372500     -0.17635030847522
  Br  0.28675947707136      1.43141967552884      1.87102345174833
  H   -0.05351303813940     -0.94224156469497     -1.11245069707881
  N   2.04678162535003     -0.14642481240239      0.44629275367390
  H   1.97186869722799     -0.85855532641179      1.16465729107675
  H   2.40405885359203     -0.55442382859415     -0.41102012725776
  C   0.92201190755075      1.48139021918315     -0.84308394923239
  N   1.02619814468326      2.23353323116165     -1.74016105063700
  C   -1.74132361724462      0.19791458168256     -0.41851514917971
  H   -2.45034918315679     -0.53591706929646     -0.80583718391168
  H   -1.63706887811231      0.99781077586848     -1.15417318628969
  H   -2.14028220644396      0.61372911073667      0.50585536929754
  C   -0.48089498011524     -1.53591176425904      0.82575966548722
  N   -0.53798939557461     -2.39165944670830      1.62822038397556
