15
Coordinates from ORCA-job run
  C   0.75633356660299      0.43520966565863      0.09934527294212
  C   -0.45609397130950     -0.51993158862273      0.09385411478042
  Br  0.32799464500195      2.07834585333456      1.07429493035973
  H   -0.10906122751989     -1.42175643280710     -0.43157666967628
  N   1.85688178923138     -0.19765207248688      0.78238904351644
  H   2.14356696083236     -1.03075081723096      0.27674151044494
  H   2.64942061133629      0.43080224442062      0.84988982620681
  C   1.05803705653104      0.83382766178643     -1.28567907491168
  N   1.34729496752202      1.08213272754591     -2.39875449326592
  C   -1.68768227826831      0.02280246893071     -0.63278441277249
  H   -2.46573801675060     -0.74188263303156     -0.64919435902724
  H   -1.43992137252954      0.28616855199062     -1.66263006711397
  H   -2.07930739495187      0.90271851724806     -0.12263355610011
  C   -0.78335971238346     -0.91255175526680      1.46548485961010
  N   -1.11736562334486     -1.24648239146951      2.54025307500714
