15
Coordinates from ORCA-job run
  C   0.87972295333142      0.24384734494950      0.14774752370020
  C   -0.45568713557606     -0.45090573683291      0.49784617875956
  Br  1.96935677891298      0.34305661254708      1.84491292803149
  H   -0.19762038984800     -1.45348546075784      0.86167983247863
  N   1.53925279359870     -0.46485362305494     -0.88854489318110
  H   1.78325769102873     -1.40206065425978     -0.58854896796902
  H   2.37597759301559      0.01389851046996     -1.19895509283169
  C   0.65370950216740      1.62924312594858     -0.26111805677237
  N   0.46168954929442      2.73116759813828     -0.62227241030119
  C   -1.37128121422478     -0.55549708274420     -0.72837373985095
  H   -1.63125704492213      0.43887989188346     -1.09656115687287
  H   -0.87395126860661     -1.10693563981794     -1.52435480150878
  H   -2.29313691833284     -1.06997354284198     -0.45133924818762
  C   -1.14130438502949      0.25570516645872      1.57972285701676
  N   -1.69972850480933      0.84791348991401      2.42615904748897
