15
Coordinates from ORCA-job run
  C   0.78972906509662      0.38450682681288     -0.00368637314352
  C   -0.48296436224250     -0.46712240350933      0.18958134182998
  Br  0.54095566380011      2.16950482641173      0.76286049739209
  H   -0.23443809182233     -1.45427252537506     -0.22741030944694
  N   1.88740582103241     -0.23571781680888      0.69436014177052
  H   2.72537836943917      0.33071347855776      0.62701534108632
  H   2.07811843837605     -1.15000417005920      0.29537309875091
  C   1.02378560837108      0.57585458132132     -1.44488167734751
  N   1.25213494526256      0.65767834784514     -2.59613863492237
  C   -1.72007638921667      0.06828917048262     -0.53321601588422
  H   -2.54847379933362     -0.62905382589908     -0.40001798317196
  H   -2.01487993673415      1.03584318563387     -0.12737696105886
  H   -1.52431793537936      0.17241774912057     -1.60189345810566
  C   -0.74435789035284     -0.64927058024687      1.61843563868748
  N   -1.02899950629653     -0.81036684428748      2.74599535356375
