15
Coordinates from ORCA-job run
  C   0.87520645799041      0.19315082085267      0.22195664373751
  C   -0.59949645747696     -0.19160159688482      0.48995512154774
  Br  1.99391063047215     -1.42340204622252      0.77237001524983
  H   -0.65265389683985     -0.56387296316341      1.51765782370021
  N   1.07446835541560      0.59584212874830     -1.11130484740161
  H   1.99734225655411      0.97842730035397     -1.27198770355960
  H   0.88691401276844     -0.14709489290672     -1.77163812309094
  C   1.30512093389606      1.24844077108048      1.13837077651107
  N   1.64238331936861      2.10478327575243      1.86956995282187
  C   -1.13987203522657     -1.25207355924620     -0.47292964570901
  H   -0.50251842609990     -2.13664835086478     -0.46776206397937
  H   -2.14186103130573     -1.54668552888678     -0.15755116366077
  H   -1.21971504718634     -0.85517509802141     -1.48639970055573
  C   -1.41605544492584      1.02359328449901      0.40301057341387
  N   -2.10117362740420      1.97431645490979      0.32568234097495
