15
Coordinates from ORCA-job run
  C   0.80862340639690      0.44799194447151      0.16198020960967
  C   -0.42021740287718     -0.45584966977599     -0.15252428169749
  Br  0.50091040098633      1.37042230144833      1.87166480988899
  H   -0.18220053595684     -0.91321885231618     -1.12350443501657
  N   2.07128521872767     -0.23110411709698      0.26365989697814
  H   2.33766141171340     -0.62941530525702     -0.63038259055530
  H   2.03187854503459     -0.95814429342471      0.96972369018295
  C   0.90092843350749      1.46878569586235     -0.88541764597555
  N   0.95094477433083      2.24033692997119     -1.77054242512258
  C   -1.76095349189892      0.27009803526660     -0.26433799945320
  H   -2.52884101389368     -0.42895308491047     -0.60022801681135
  H   -2.06161019401425      0.68152715971525      0.69831959947032
  H   -1.69020137096480      1.08008791600610     -0.99278898191881
  C   -0.46738367693748     -1.53670714931914      0.83226110466539
  N   -0.48982450415407     -2.40485751064083      1.62311706575536
