15
Coordinates from ORCA-job run
  C   0.90271965715490      0.13430688746842      0.30081814944752
  C   -0.50447512170404     -0.46431439515073      0.50895019097840
  Br  1.89565330532532      0.01600364993429      1.98241683296780
  H   -0.33707887813891     -1.48366844780028      0.87269718263922
  N   1.61636482136138     -0.65757409982662     -0.68098422061110
  H   2.60093987953208     -0.41501887547270     -0.66824108968500
  H   1.25938942425773     -0.44699388743439     -1.60808566249589
  C   0.80195196654646      1.56080394580865     -0.04453916363587
  N   0.69512678574039      2.67527468608547     -0.40629390672852
  C   -1.30623125237141     -0.50357827557775     -0.79757956488703
  H   -2.31082248507658     -0.87965337325206     -0.59859995072023
  H   -1.39962795503256      0.49468697283031     -1.23178856871898
  H   -0.83367602987769     -1.17757304860085     -1.51301197855087
  C   -1.23683327340874      0.28310524111436      1.53203832562506
  N   -1.84340084430832      0.86219301987386      2.35420342437550
