15
Coordinates from ORCA-job run
  C   0.79557773376566      0.36532866299938     -0.00064564057988
  C   -0.45651575094681     -0.54151662531153     -0.03370895041795
  Br  0.41050480499111      1.94125736549025      1.21253459705507
  H   -0.18703324009281     -1.34098749711042     -0.73594198244302
  N   1.93307191686004     -0.37711547420126      0.38921843236153
  H   2.78171371126319      0.17371099795051      0.35168093109012
  H   1.82181590276380     -0.77076769340548      1.31715069952958
  C   1.01068362291286      0.95070583496189     -1.32385067341670
  N   1.17865363088526      1.39157573264916     -2.40035421952214
  C   -1.74033532496399      0.13855129811604     -0.50701978840778
  H   -2.07166633095474      0.89342855401702      0.20455665923736
  H   -2.52623427249155     -0.61114852748845     -0.61328298502212
  H   -1.58008002324716      0.60891658501626     -1.47908566526177
  C   -0.62529090875581     -1.15989600678179      1.28207673225089
  N   -0.74386547198906     -1.66304320690159      2.33667185354681
