15
Coordinates from ORCA-job run
  C   0.87563866083948      0.19331812794831      0.21705794828149
  C   -0.59675848134070     -0.19452652877853      0.49230634119032
  Br  1.99961477843664     -1.42349671320361      0.75553829183984
  H   -0.64312874939593     -0.57191617109189      1.51855195765463
  N   1.06662768425517      0.60003346897464     -1.11637031799672
  H   0.87923183892529     -0.14267604645713     -1.77717057399197
  H   1.98763327547999      0.98553174156754     -1.28070565779582
  C   1.30972126711253      1.24658607347863      1.13374107582577
  N   1.65183003327845      2.10186080182924      1.86391933490987
  C   -1.14157201709877     -1.25128783150832     -0.47185108390000
  H   -0.50487591194591     -2.13647056138461     -0.47110063713547
  H   -1.22422827848048     -0.85155729254310     -1.48403153369610
  H   -2.14275987838719     -1.54588532317222     -0.15374609566288
  C   -1.41546938359221      1.02010591855776      0.41848721282460
  N   -2.10250483808635      1.97038033578329      0.35437373765245
