15
Coordinates from ORCA-job run
  C   0.95662853346107      0.25225926260203      0.25240263050177
  C   -0.40768811915156     -0.44856434215737      0.51073116645178
  Br  1.97597219872016      0.18787577489556      1.93772176416853
  H   -0.16800339372328     -1.46426827432801      0.84849577633466
  N   1.77305830954875     -0.34159754547566     -0.76800799384491
  H   1.40267207538058     -0.16354148516822     -1.69358954870915
  H   1.89066038879686     -1.33602327727597     -0.61409397053079
  C   0.72608193659428      1.65861231116025     -0.08467880199156
  N   0.49422199851168      2.76605785343946     -0.40318944235900
  C   -1.26220025115207     -0.50805230491351     -0.75981341869015
  H   -0.75851801782062     -1.08592995411224     -1.53617235412086
  H   -2.21379605098473     -0.99494144161904     -0.54071745724722
  H   -1.47291807514848      0.49622817444456     -1.13446075447927
  C   -1.14846441831689      0.22012631996202      1.58068301455686
  N   -1.78670711471575      0.76175892854614      2.40468938995931
