15
Coordinates from ORCA-job run
  C   0.89653051348851      0.10014403840355      0.19696797297008
  C   -0.59260967235113     -0.20676081413447      0.49770125640189
  Br  1.98646122864963     -1.46517329137186      0.66022428552262
  H   -0.67429643268612     -0.40813313837571      1.57133859279362
  N   1.07427286001427      0.36657061378743     -1.20776383614671
  H   2.05299714762555      0.52530128352060     -1.41833363659283
  H   0.54979283603637      1.19899786436606     -1.46469256414296
  C   1.35755994121029      1.18135171577423      1.08421978211582
  N   1.69685032561738      2.08262663091801      1.76006694635868
  C   -1.15621349433642     -1.37965782493632     -0.30762630065315
  H   -1.01116304826095     -1.21192388335438     -1.37375505079059
  H   -0.65791894501190     -2.30565070475670     -0.02341970428088
  H   -2.22313326390370     -1.48060673093069     -0.10138139273364
  C   -1.34967381636541      1.01616040669401      0.20641060896559
  N   -1.94845617972636      1.98575383439626     -0.07995695978754
