15
Coordinates from ORCA-job run
  C   0.88608005916195      0.23245397711600      0.15621307256701
  C   -0.45663942463170     -0.45860404036017      0.48240127814187
  Br  1.96706299288749      0.27699152754850      1.86276157578905
  H   -0.20899450295885     -1.47439524220734      0.81549683738599
  N   1.54501926259697     -0.45328439740953     -0.89486959223548
  H   1.77529814215649     -1.40181514827052     -0.62106239370803
  H   2.38919180303540      0.02414591552293     -1.18623846373711
  C   0.67405941233522      1.63106659740940     -0.21380860604517
  N   0.48808915489265      2.74460579715315     -0.54078791967818
  C   -1.37175299863037     -0.51496144154777     -0.74718938012404
  H   -2.29423971923778     -1.03846467497052     -0.48998108213523
  H   -1.63032837636002      0.49313039728188     -1.07687033552900
  H   -0.87416332762843     -1.03657574227314     -1.56290118156423
  C   -1.13988509982186      0.21865333520124      1.58466785665845
  N   -1.75079737779716      0.75505313980589      2.43216833421409
