15
Coordinates from ORCA-job run
  C   0.95249654918240      0.26638564147068      0.25304820266297
  C   -0.41222911691074     -0.42828669214183      0.52322833933220
  Br  1.94871368634759      0.28166712426003      1.95432968277789
  H   -0.17289976925689     -1.42956675066356      0.90209026970407
  N   1.78449644027083     -0.36911154895497     -0.72853302518882
  H   1.43399835417880     -0.22426148992706     -1.66735835465868
  H   1.89653600274059     -1.35714530737769     -0.53471571920450
  C   0.72226397266862      1.65547720490518     -0.14959015522053
  N   0.49101854184035      2.74516158453650     -0.52453968850451
  C   -1.25286565051769     -0.53944320878291     -0.75296228779509
  H   -1.47166758931329      0.44936569087984     -1.16181404368626
  H   -2.20064130308999     -1.03083507674495     -0.52771186620558
  H   -0.73439614828492     -1.13539967410349     -1.50524187050613
  C   -1.16774612904784      0.27549443834341      1.55997472761950
  N   -1.81707784080782      0.83949806430083      2.35979578887346
