15
Coordinates from ORCA-job run
  C   0.90559761019245      0.16187365475347      0.27951728999849
  C   -0.48402721969864     -0.45650824922367      0.53857241213128
  Br  1.93156008711019      0.13064380507666      1.94506330847510
  H   -0.28811279154380     -1.45833193510209      0.93520903256023
  N   1.61774760320209     -0.65302013902278     -0.68417529136735
  H   2.59670138300045     -0.38887242472155     -0.70061415964346
  H   1.23871121922834     -0.48720742924444     -1.61152875643532
  C   0.76993701572658      1.57151058691395     -0.12016762416618
  N   0.65522160058407      2.66778221856658     -0.53177268142976
  C   -1.31247393342012     -0.55896890066275     -0.74759946131175
  H   -0.83969885819423     -1.24600949597135     -1.45038590745442
  H   -1.43876540730488      0.42146336506543     -1.21280762572314
  H   -2.30318290511308     -0.95111014230213     -0.51343049000472
  C   -1.21198666873598      0.31538472964818      1.54696378720446
  N   -1.83722873503345      0.93137035622650      2.32715616716655
