15
Coordinates from ORCA-job run
  C   0.80453142160398      0.35243614626630      0.03042887040113
  C   -0.48921289776806     -0.48640571665783      0.10352373279410
  Br  0.69150481460947      1.88971262269910      1.23852170763526
  H   -0.31590024571093     -1.34043330981862     -0.56767973061851
  N   1.91879398639505     -0.45384374967510      0.46096645581495
  H   2.03886252207123     -1.24167149883552     -0.16879014046271
  H   2.77514996383432      0.08852613059016      0.47160211981508
  C   0.94507079015862      0.89691127148119     -1.33039145713890
  N   1.09359315922246      1.25972919704174     -2.43976705294662
  C   -1.74844484299998      0.24828573744393     -0.35966880689198
  H   -1.62319386750518      0.61881217986081     -1.37871023739412
  H   -2.59576261930251     -0.43884809527047     -0.34330310403780
  H   -1.97062748831880      1.08621078565278      0.30098546900055
  C   -0.65790298424459     -1.02005718162248      1.45606150435492
  N   -0.86846171204509     -1.45936451915600      2.52422066967465
