15
Coordinates from ORCA-job run
  C   0.81901644525144      0.29827742235017     -0.08551511943791
  C   -0.50458655457922     -0.49824901133573     -0.01090108504871
  Br  0.75119460806079      1.77967152975249      1.29408022572971
  H   -0.40750277567023     -1.24914478017052     -0.80551614380546
  N   1.92535320913662     -0.56655228688193      0.07472966381528
  H   1.90583649198605     -1.03372127995201      0.97467657101129
  H   2.80815365307596     -0.08435858604113     -0.04004587884641
  C   0.90338502462004      0.98511190942613     -1.37428149320617
  N   0.95835707719695      1.50870598883195     -2.42505946607969
  C   -1.77207453825400      0.32365788133411     -0.24031958022475
  H   -2.63150751473694     -0.34706965059999     -0.28999260587633
  H   -1.70314203729747      0.86502259515856     -1.18575471829648
  H   -1.93111513042363      1.03574448850232      0.56812376426144
  C   -0.55012598563449     -1.21743625717652      1.26292279763133
  N   -0.57124197273186     -1.79965996319792      2.28285306837286
