15
Coordinates from ORCA-job run
  C   0.90383062692904      0.14866885646884      0.29119299462407
  C   -0.49211046825419     -0.46664272098640      0.52271660856173
  Br  1.91499195722220      0.06758187742450      1.96404984724871
  H   -0.30621858977885     -1.47921638958112      0.89606755408468
  N   1.61881956743066     -0.64624092670774     -0.68732005075205
  H   2.60040201105735     -0.39177079488052     -0.68526305149038
  H   1.25233391668380     -0.44999231047963     -1.61382818131171
  C   0.78074118764542      1.56886172034091     -0.07358903930393
  N   0.67631205247951      2.67679274427374     -0.45583430643773
  C   -1.30941954573646     -0.53190054289798     -0.77295053541337
  H   -2.30364150506317     -0.92615550219151     -0.55767701257930
  H   -1.42795521280410      0.46091295984810     -1.21340668520306
  H   -0.83277583379847     -1.20217898412545     -1.48916782030393
  C   -1.22399253188483      0.28558938908866      1.54293816015770
  N   -1.85131763212791      0.88769062440562      2.33207151811857
