15
Coordinates from ORCA-job run
  C   0.95256264887430      0.25198673248649      0.26764391572449
  C   -0.41907276529483     -0.44037274401444      0.50912264751622
  Br  1.93735708307087      0.21058663259714      1.97476295886476
  H   -0.18986784150294     -1.45262711720276      0.86422065788032
  N   1.78662496761258     -0.36034402711874     -0.72698158549733
  H   1.89093386695213     -1.35428613417162     -0.56131102249197
  H   1.44208429219314     -0.18622414326642     -1.66305413179581
  C   0.73416281415774      1.65368004987104     -0.09587325595127
  N   0.51324426169276      2.75584191842717     -0.43921072664186
  C   -1.25012882041821     -0.51233102856165     -0.77620301133799
  H   -2.20359356868300     -1.00150469141300     -0.57109839971819
  H   -1.45780631457926      0.48839633557568     -1.16123620764724
  H   -0.73043144799414     -1.09310814311785     -1.53943448263751
  C   -1.17757771849148      0.24384628133980      1.55654928350630
  N   -1.82849145758965      0.79646007856917      2.36310336022708
