15

C	-0.536502	-0.025745	-1.407138
C	0.0	0.0	0.0
F	0.193374	-0.815128	-2.24917
H	1.085835	0.0	0.0
H	-0.405374	0.872288	0.510904
N	-1.889927	-0.39341	-1.509821
H	-2.274029	-0.087491	-2.393097
H	-2.428971	-0.048994	-0.727285
N	-0.309532	1.396382	-2.022602
O	0.525514	2.136951	-1.521201
O	-0.993044	1.659819	-3.01425
N	-0.538398	-1.1807	0.69399
O	-1.519242	-1.018389	1.437546
O	-0.000507	-2.264467	0.49575
F	2.531172	0.0	0.0
