15

C	-0.522134	0.010153	-1.423782
C	0.0	0.0	0.0
F	-0.131433	-1.133459	-2.040302
H	1.089105	0.0	0.0
H	-0.414009	0.855227	0.536903
N	-1.914176	0.206878	-1.703964
H	-2.152277	1.149771	-1.420347
H	-2.418372	-0.431549	-1.09809
N	0.184195	1.175715	-2.114944
O	-0.149653	2.288884	-1.706741
O	0.980567	0.936645	-3.005349
N	-0.533555	-1.215094	0.675657
O	-1.766177	-1.374936	0.701502
O	0.257975	-1.997118	1.188371
F	2.546398	0.0	0.0
