15

C	-0.463109	0.181703	-1.421309
C	0.0	0.0	0.0
F	-0.019493	-0.884128	-2.172658
H	1.08491	0.0	0.0
H	-0.355484	0.816159	0.627243
N	-1.839487	0.445525	-1.636655
H	-2.029691	0.40098	-2.632353
H	-2.360471	-0.277153	-1.155084
N	0.246058	1.412238	-2.004863
O	0.43503	2.355273	-1.243022
O	0.467669	1.394201	-3.216487
N	-0.537086	-1.248419	0.595022
O	0.104567	-1.737997	1.518215
O	-1.613655	-1.717696	0.185664
F	2.534654	0.0	0.0
