15

C	-0.143304	-0.008949	-1.511968
C	0.0	0.0	0.0
F	-0.07897	1.268072	-1.974531
H	1.08899	0.0	0.0
H	-0.393969	-0.924996	0.421134
N	0.899719	-0.778677	-2.106478
H	1.751264	-0.560982	-1.543247
H	0.6874	-1.760404	-1.974993
N	-1.478467	-0.576148	-1.995296
O	-1.704881	-1.737765	-1.653718
O	-2.213194	0.123674	-2.675125
N	-0.695176	1.125047	0.648796
O	-0.122114	1.728642	1.551058
O	-1.84338	1.366219	0.26227
F	2.630087	0.0	0.0
