15

C	-0.448645	0.05114	-1.432864
C	0.0	0.0	0.0
F	0.256602	-0.847594	-2.193422
H	1.084934	0.0	0.0
H	-0.338334	0.87435	0.547005
N	-1.845446	-0.040529	-1.672041
H	-2.160225	-0.910777	-1.26028
H	-1.994188	-0.082066	-2.675085
N	-0.0637	1.423118	-2.012824
O	0.049488	2.373781	-1.251147
O	0.025442	1.469821	-3.236756
N	-0.502813	-1.172874	0.707927
O	-0.942516	-2.140692	0.06809
O	-0.422952	-1.153843	1.935687
F	2.498967	0.0	0.0
