15

C	-0.151524	-0.017651	-1.510253
C	0.0	0.0	0.0
F	-0.084363	1.255047	-1.982834
H	1.089021	0.0	0.0
H	-0.392268	-0.922364	0.428531
N	0.883399	-0.796234	-2.105297
H	1.737623	-0.581095	-1.547443
H	0.665234	-1.775988	-1.967507
N	-1.492019	-0.582525	-1.981448
O	-1.719722	-1.741335	-1.632246
O	-2.229391	0.115558	-2.660801
N	-0.693388	1.128255	0.645174
O	-1.843977	1.36582	0.263898
O	-0.117027	1.736959	1.542895
F	2.626516	0.0	0.0
