15

C	-0.526505	0.006172	-1.423393
C	0.0	0.0	0.0
F	-0.120615	-1.132402	-2.040269
H	1.089126	0.0	0.0
H	-0.41861	0.854009	0.535607
N	-1.921821	0.183484	-1.702261
H	-2.173687	1.125326	-1.426131
H	-2.419849	-0.458289	-1.094902
N	0.164475	1.182518	-2.110866
O	0.977899	0.955612	-2.98987
O	-0.197175	2.290373	-1.7118
N	-0.528018	-1.216384	0.6814
O	0.2662	-1.997863	1.190306
O	-1.760064	-1.376544	0.717452
F	2.546408	0.0	0.0
