15

C	-0.142798	-0.054794	-1.515278
C	0.0	0.0	0.0
F	-0.233794	1.267407	-1.918157
H	1.088536	0.0	0.0
H	-0.482061	0.857143	0.456248
N	0.920469	-0.677268	-2.186765
H	1.754535	-0.539609	-1.586062
H	0.728124	-1.663046	-2.284356
N	-1.491933	-0.647329	-1.949666
O	-1.517423	-1.540051	-2.789011
O	-2.475886	-0.136416	-1.419405
N	-0.481255	-1.215514	0.650233
O	-0.879363	-1.128051	1.813207
O	-0.442209	-2.271622	0.009754
F	2.589019	0.0	0.0
