15

C	-0.182481	0.191432	-1.493796
C	0.0	0.0	0.0
F	-1.345311	0.870766	-1.852248
H	1.08869	0.0	0.0
H	-0.482403	-0.889411	0.381778
N	0.944899	0.744808	-2.048594
H	1.788609	0.528519	-1.477127
H	1.025917	0.58268	-3.04098
N	-0.5304	-1.218143	-2.147453
O	-1.171485	-2.043612	-1.504799
O	-0.179411	-1.36283	-3.315859
N	-0.497307	1.150167	0.767803
O	-1.163725	0.904043	1.77839
O	-0.192231	2.280274	0.396776
F	2.623839	0.0	0.0
