18
Coordinates from ORCA-job run
  C   -0.64157931171943      0.26003894275736      0.40495190908395
  C   0.55027217530761     -0.13924220496974     -0.48603257940373
  Br  -0.20554798285070      1.82816066226762      1.46597509217386
  H   0.17117623061159     -0.98229331839368     -1.07407779771711
  C   -1.90816437857306      0.53002435658597     -0.38207017264157
  H   -2.73259247868198      0.77558851018023      0.28972083293489
  H   -2.16622075758502     -0.35806312806138     -0.96108691004053
  H   -1.72283451579705      1.36103247029057     -1.05921066793752
  N   -0.89720660977662     -0.92766714215480      1.33145036151989
  O   -0.72541980026844     -0.83243943080290      2.53782993369515
  O   -1.24222670702459     -1.94584905855321      0.73329788434204
  C   1.76731843035269     -0.60771068285208      0.30757152232697
  H   2.55592229072770     -0.89687899806111     -0.39148953271858
  H   2.15026958100266      0.19367752349120      0.94324830568078
  H   1.54881251051825     -1.47403123549573      0.93641777437173
  N   0.80471854189207      0.95207600156405     -1.41784442236869
  H   1.36931646867246      1.66373805258531     -0.96757801298094
  H   1.32698631319188      0.60083867962233     -2.21107352032058
