18
Coordinates from ORCA-job run
  C   -0.79084006145879      0.36145601313670      0.20894020702029
  C   0.63817290629584      0.51329591316117     -0.34393222654640
  Br  -1.53983680539118      2.10848104650313      0.63971599253270
  H   0.48067144905359      1.00547833333719     -1.31105609046988
  C   -1.72989317276334     -0.33766058016331     -0.75544288299377
  H   -1.69656342450874      0.17764081567000     -1.71674580592646
  H   -2.74938956854537     -0.32028427093405     -0.37849135435062
  H   -1.43561374055684     -1.37943382567194     -0.89157994135771
  N   -0.78894832479572     -0.40990738714040      1.52646922134902
  O   -1.79009252889082     -1.06289419035781      1.79848228897192
  O   0.20734129816608     -0.31378604963369      2.23924662743462
  C   1.28413043157710     -0.85537180263216     -0.60673843507771
  H   2.26112914737902     -0.69116054981215     -1.06733567273680
  H   0.70449820815171     -1.48356149741636     -1.28594706453403
  H   1.44608813509904     -1.39641883473292      0.32772225016852
  N   1.45776805568609      1.42017276185269      0.44004072071043
  H   1.77756181601104      0.96356638009226      1.28331021828753
  H   2.26181617949130      1.70038772474167     -0.10665805248165
