18
Coordinates from ORCA-job run
  C   -0.73158700166848      0.40247793704388      0.02713216446591
  C   0.80437415501243      0.43638146803112     -0.17636007395711
  Br  -1.60155085072193      1.66421741865108     -1.18298072758524
  H   1.08414763726940      1.49250916160989     -0.18102776639641
  C   -1.37581767097178     -0.95458978199843     -0.12322577153018
  H   -1.27773392992922     -1.28810825241148     -1.15580716849402
  H   -0.89699279187936     -1.67755601708027      0.54022095741130
  H   -2.43275272482765     -0.91145054497952      0.13322441648158
  N   -0.97703124941810      0.94794150068546      1.43133692331556
  O   -0.46173936639919      2.02777872027786      1.69969190468903
  O   -1.61902671749550      0.24980110648433      2.21115600210987
  C   1.21402493923427     -0.20857534641821     -1.49213278043724
  H   1.06513411602057     -1.29122631746211     -1.45923088261746
  H   0.65864541856680      0.19531952533688     -2.33925450916032
  H   2.27794326556736     -0.02639997435667     -1.64647443951855
  N   1.53972343368791     -0.18941480735696      0.90660150438077
  H   1.30455226226135     -1.16643563157737      1.02255622042218
  H   1.42568707569112      0.29732983552051      1.78557402642034
