18
Coordinates from ORCA-job run
  C   -0.76343034311281      0.39475603739233      0.09651018965939
  C   0.75578126771978      0.40541702636948     -0.13579482586490
  Br  -1.61407736117886      1.78232859059213     -0.98714334419287
  H   1.08136343866215      1.44821554789577     -0.06321661576494
  C   -1.43517286597286     -0.93316396486898     -0.14290457713672
  H   -1.35826702933089     -1.19619538793911     -1.19780311469052
  H   -2.48660108496569     -0.88760988752968      0.13121732157443
  H   -0.93280223986887     -1.68792334392085      0.46422041509397
  N   -0.99959855220625      0.84074753434696      1.54197540151122
  O   -0.23344136893802      1.68971672946829      1.98961621215912
  O   -1.94098414486304      0.34359135867357      2.14730259138797
  C   1.12680676606170     -0.14508643297304     -1.50431652151197
  H   0.94133322559445     -1.22050544094946     -1.55028077121128
  H   2.19225882752046      0.02330909302392     -1.68074929220543
  H   0.57278275150170      0.34520113817682     -2.30500791040443
  N   1.33676536940598     -0.43366549705037      0.91148703685943
  H   2.16905342730478     -0.89848829793088      0.57319158781334
  H   1.58922991666627      0.13035519722308      1.71269621692417
