18
Coordinates from ORCA-job run
  C   -0.72733999630728      0.18049741613240      0.28665447350355
  C   0.62972541711172     -0.08623740302119     -0.39281723467343
  Br  -0.70995910344455      1.89731715467739      1.19579257936060
  H   0.48121790774881     -1.03644170245550     -0.91742447963253
  C   -1.89354766293915      0.14265976287574     -0.68032022495340
  H   -1.91817760140782     -0.83016758801508     -1.17386055501471
  H   -1.74874989427837      0.92184763442639     -1.42555072511059
  H   -2.83530403797356      0.30423273101587     -0.15277887495148
  N   -0.91755059637595     -0.93715207970996      1.31088768932338
  O   -1.00093504321763     -2.05407977986462      0.80189022036998
  O   -0.94040378690840     -0.69491787320572      2.50868175667082
  C   1.77887236935777     -0.25179881856850      0.59839978304931
  H   2.69717961447908     -0.46135140684735      0.04431692568768
  H   1.61595885330721     -1.07890165693182      1.29346888004593
  H   1.92938995917085      0.66223273004012      1.17706567392281
  N   0.83558989401213      0.93669533774858     -1.41010530169240
  H   1.20397315910596      1.77856320458182     -0.98176602594813
  H   1.51806054855917      0.60900233712142     -2.08253455995738
