18
Coordinates from ORCA-job run
  C   -0.64016146084400      0.17814316409238      0.32775686271636
  C   0.68637700287673     -0.13167492361708     -0.42338015036020
  Br  -0.54051344541168      1.89043334107770      1.23752033643356
  H   0.49556370588796     -1.09914684802668     -0.90209011497161
  C   -1.85913351411858      0.17272959734747     -0.57646134248380
  H   -1.80231882143109      1.00568897748445     -1.27660862669763
  H   -2.77186423305662      0.28692107176432      0.01088034365040
  H   -1.90327586928258     -0.76904856932235     -1.12557309563000
  N   -0.81735123434324     -0.93718674839876      1.35257034742781
  O   -0.70901135936273     -0.71367985769520      2.54945493426626
  O   -1.01473954077866     -2.03914089830022      0.84078449443465
  C   1.87328747394175     -0.28349951282904      0.51638651716467
  H   2.08959274837021      0.65537753039645      1.03061512054049
  H   1.70978340273837     -1.05665399605165      1.26894027088130
  H   2.74414024488399     -0.55785321539953     -0.07966027574542
  N   1.01547467716711      0.81127963471057     -1.47079977289420
  H   0.30473627519410      0.84426963276797     -2.18967161592919
  H   1.13941394756896      1.74204161999921     -1.09066423280345
