18
Coordinates from ORCA-job run
  C   -0.74686166043836      0.37062041616059      0.06155973493038
  C   0.77220660126547      0.46826046196400     -0.22936738293441
  Br  -1.73904273048989      1.56989168995177     -1.11759906213596
  H   1.00318176176126      1.53552142631448     -0.26757333230108
  C   -1.33727798611651     -1.01588836229166     -0.03088128577788
  H   -2.37954694269068     -1.01394848119650      0.28306732759656
  H   -0.79165133775755     -1.70569409806622      0.61597471936724
  H   -1.28134783812851     -1.36310981899046     -1.06209884758518
  N   -0.93511217436876      0.92987824319296      1.46848127907890
  O   -1.48511769486933      0.21172873715978      2.29890769393178
  O   -0.46469132135633      2.04099940777674      1.68653878537972
  C   1.13679579426472     -0.18462601220498     -1.55426892314606
  H   0.51412265399278      0.17283793477037     -2.37508233561913
  H   2.17973698663680      0.04499210337086     -1.77440269154264
  H   1.04402736516904     -1.27219593080002     -1.49118751642537
  N   1.59441924159573     -0.10223853711349      0.82155063225540
  H   1.51024439164969      0.39971220435577      1.69540653760573
  H   1.40591488988042     -1.08474138435399      0.97197466732199
