18
Coordinates from ORCA-job run
  C   -0.73936534547543      0.37234302543255      0.17186940637460
  C   0.70812394721196      0.43024213147779     -0.41016049395781
  Br  -1.35478622456773      2.15534864348947      0.66733773907343
  H   0.57150807035858      0.84509511227985     -1.41600434051219
  C   -1.75342523458779     -0.21970910947555     -0.78439299684798
  H   -1.81017916766160      0.41762375543790     -1.66822941401173
  H   -2.73919807613308     -0.26664936456306     -0.32263362138716
  H   -1.46805535689397     -1.22708426005039     -1.08245474252837
  N   -0.67370061061913     -0.44931240223837      1.44643833568479
  O   -1.20810805204743     -1.55549624312941      1.42740336773427
  O   -0.00799563081796      0.00232754059647      2.37394422261064
  C   1.28707096773138     -0.97967206148377     -0.52648201644039
  H   0.63084474259698     -1.67502243946717     -1.04963889985111
  H   1.50433132186425     -1.38990563078332      0.46383188337342
  H   2.22981413390175     -0.91043595775675     -1.06900125707720
  N   1.67653037413201      1.26063234842261      0.26854800805408
  H   1.37524447197349      2.22661107960026      0.27742443377679
  H   1.77434566903369      0.96306383221090      1.23220038593191
