12

C	-0.399999	-0.127345	-1.452547
C	0.0	0.0	0.0
Br	-2.324326	-0.213011	-1.74265
H	1.095852	0.0	0.0
H	0.03909	-0.997195	-1.934553
H	-0.359834	0.945181	0.409939
N	0.092657	1.067563	-2.229993
O	0.573772	0.835473	-3.333125
O	-0.06029	2.169801	-1.720114
C	-0.497705	-1.122178	0.78074
N	-0.905369	-2.022961	1.41425
Br	3.420183	0.0	0.0
