12

C	-0.470148	-0.078304	-1.440862
C	0.0	0.0	0.0
Br	-2.364247	-0.443128	-1.598334
H	1.09353	0.0	0.0
H	0.064285	-0.864418	-1.968631
H	-0.302054	-0.920976	0.507478
N	-0.120242	1.199018	-2.169622
O	-0.918754	2.129265	-2.154068
O	0.994026	1.193298	-2.680246
C	-0.553471	1.137837	0.721025
N	-1.007356	2.042067	1.316215
Br	3.510028	0.0	0.0
