12

C	-0.450804	-0.275093	-1.417297
C	0.0	0.0	0.0
Br	0.101987	-2.02961	-1.999011
H	1.092485	0.0	0.0
H	-0.05608	0.445998	-2.12927
H	-0.360372	-0.78209	0.669924
N	-1.952059	-0.211327	-1.547057
O	-2.617329	-0.745078	-0.666143
O	-2.394202	0.368535	-2.536306
C	-0.508981	1.297048	0.435199
N	-0.941725	2.337902	0.76433
Br	3.445802	0.0	0.0
