12

C	-0.424525	0.033146	-1.445005
C	0.0	0.0	0.0
Br	-2.349569	-0.138628	-1.690228
H	1.101005	0.0	0.0
H	0.036196	-0.783676	-1.996852
H	-0.294768	-0.976245	0.397443
N	-2.3e-05	1.285001	-2.170651
O	0.162374	2.30241	-1.508956
O	0.120053	1.177455	-3.387751
C	-0.573545	1.030776	0.852301
N	-1.056484	1.803651	1.5915
Br	3.423724	0.0	0.0
