12

C	-0.408096	-0.044341	-1.453907
C	0.0	0.0	0.0
Br	-2.335096	-0.101401	-1.72999
H	1.095019	0.0	0.0
H	0.017786	-0.891781	-1.985582
H	-0.356213	0.920705	0.464218
N	0.092371	1.184217	-2.168684
O	0.528051	1.008939	-3.301979
O	-0.00692	2.255603	-1.582996
C	-0.497282	-1.16277	0.719622
N	-0.907366	-2.098491	1.297902
Br	3.415483	0.0	0.0
