12

C	-0.602901	0.036991	-1.389626
C	0.0	0.0	0.0
Br	0.135174	1.486385	-2.431608
H	1.091234	0.0	0.0
H	-1.683309	0.170098	-1.385294
H	-0.298371	0.926209	0.503225
N	-0.383447	-1.249292	-2.147517
O	-1.22643	-1.505557	-3.006935
O	0.59754	-1.92217	-1.861527
C	-0.548206	-1.12778	0.746955
N	-1.011929	-2.042479	1.318759
Br	3.482046	0.0	0.0
