12

C	-0.450378	0.033217	-1.443797
C	0.0	0.0	0.0
Br	0.076747	-1.569774	-2.378254
H	1.092445	0.0	0.0
H	-0.042104	0.881228	-1.988963
H	-0.363358	-0.904529	0.489626
N	-1.950004	0.148697	-1.554075
O	-2.625513	-0.560371	-0.815387
O	-2.380257	0.948609	-2.38308
C	-0.50528	1.178283	0.69838
N	-0.940296	2.129559	1.23216
Br	3.444699	0.0	0.0
