12

C	-0.400116	-0.235459	-1.437084
C	0.0	0.0	0.0
Br	-2.324749	-0.34371	-1.715065
H	1.097954	0.0	0.0
H	0.036367	-1.140131	-1.851535
H	-0.362191	0.970583	0.341289
N	0.097627	0.894752	-2.300969
O	-0.048194	2.033693	-1.873518
O	0.579686	0.575664	-3.383003
C	-0.487705	-1.065836	0.862301
N	-0.883655	-1.925517	1.557479
Br	3.413075	0.0	0.0
