14
Coordinates from ORCA-job run
  C   0.60989162698391      0.35564660826429     -0.61086061867884
  C   -0.80738507009611     -0.13074093886004     -0.24199332121475
  F   0.91378000053317     -0.01631212938847     -1.87760509360213
  H   -1.48449988264554      0.43055594632823     -0.89683458002703
  C   0.70484690960678      1.80632209403977     -0.45877075140092
  N   0.73181265209816      2.97246274567985     -0.32021701128288
  N   1.61768258825773     -0.31792116174450      0.32176060914664
  O   2.09029569131487      0.35535665699593      1.22602207278146
  O   1.82092254791263     -1.49942599879446      0.07499099738282
  N   -1.04898090362672      0.18007450289998      1.15087575274394
  H   -1.87505483953550      0.74542044420395      1.27592171668586
  H   -1.11189298777492     -0.64579997784424      1.72870595989560
  C   -0.97260807694606     -1.55220897068785     -0.57205848473883
  N   -1.18981025608240     -2.68342982109244     -0.80093724769092
