14
Coordinates from ORCA-job run
  C   0.55182887612467      0.40782251553586     -0.56497711101389
  C   -0.82096737360116     -0.19482348131269     -0.24926558474840
  F   0.90178753739260      0.11941913524630     -1.84400789287483
  H   -1.49405021095973      0.29354709352647     -0.96364239894500
  C   0.55804858684565      1.85605979032856     -0.35106775995033
  N   0.53699224321803      3.02226261555591     -0.21250917234676
  N   1.65842681872085     -0.19190905237836      0.31469285678889
  O   1.32436731132315     -0.99580571276006      1.17742925809075
  O   2.78797578925513      0.18477553129303      0.04232352074027
  N   -1.22315175366088      0.17705582432591      1.08629434453967
  H   -0.84510216744295     -0.46435141257898      1.76987002610522
  H   -2.22995165287788      0.20659839739076      1.16671620717097
  C   -0.82541791543675     -1.63512333938229     -0.56517122267817
  N   -0.88278608890072     -2.78252790479041     -0.80868507087838
