14
Coordinates from ORCA-job run
  C   0.58141257687078      0.26924435778622     -0.47176072509105
  C   -0.70612309627547     -0.10241785385104      0.27239159426529
  F   0.86036804549866     -0.66965818690786     -1.40146008928841
  H   -0.86384137652106      0.66569572818481      1.03438050705935
  C   0.53677299405393      1.60007953019588     -1.07585128058351
  N   0.47702286020910      2.66626550940082     -1.56616685140287
  N   1.70211743143492      0.25812989393451      0.57683281987997
  O   2.60306721874806     -0.54311842418787      0.42096272266934
  O   1.54804805951730      1.07248565184212      1.47537658210132
  N   -0.47844959002519     -1.37249490643838      0.92495103264755
  H   -1.16727693107531     -1.53346353675278      1.64734301630435
  H   -0.51573567482686     -2.13552046952081      0.26054217837252
  C   -1.83167977643774     -0.07059656306590     -0.68001474126198
  N   -2.74570274117113     -0.10463073061972     -1.41752676567187
