13
Coordinates from ORCA-job run
  C   0.55816203844977      0.33612923729903      0.16602042452574
  C   -0.55288776089459     -0.37366778677418     -0.62021649237106
  Br  1.02757848141582      2.02860843300574     -0.64553644877412
  H   -0.22525537956699     -0.43701780419067     -1.65748597874851
  H   -0.60979912131316     -1.39768590639701     -0.22297423047614
  C   0.15244319287291      0.55414372795788      1.54547150129849
  N   -0.26683439072000      0.69943636348894      2.63407507228948
  N   1.81780528743282     -0.53386862526056      0.14435622915700
  O   2.45549432332568     -0.63244202963606      1.18399144979476
  O   2.07926663525501     -1.04982940057738     -0.93427361344665
  N   -1.77457534943381      0.38956756984947     -0.50815558179014
  H   -2.32169245934536      0.33645958815983     -1.35405634770597
  H   -2.33970549747809      0.07916663307495      0.26978401624713
