13
Coordinates from ORCA-job run
  C   0.62128112851051      0.50610055762616      0.05128972510804
  C   -0.60164433502925      0.18668167016581     -0.80873859743198
  Br  1.87944544365423      1.62348524427485     -0.91807121927783
  H   -0.24376434706863     -0.22638998270959     -1.75323080202790
  H   -1.10680099412632      1.13300964823931     -1.01925814660634
  C   0.24514565727868      1.15503230484725      1.29628686109135
  N   -0.12393874601653      1.72144099680847      2.25766014423788
  N   1.34643033349226     -0.80525103097615      0.37368183949551
  O   1.34840547857625     -1.64391183522194     -0.51649692971838
  O   1.88501371833538     -0.88767301237234      1.46724708960679
  N   -1.42550139183482     -0.73282922072626     -0.05421644603154
  H   -2.35762740958658     -0.38342088266718      0.10478553752637
  H   -1.46644453618517     -1.64627445728839     -0.47993905597196
