13
Coordinates from ORCA-job run
  C   0.54968553738345      0.36269227394410      0.19414898024112
  C   -0.57504482765320     -0.39372277780405     -0.53745352922016
  Br  0.81829705689649      2.10574650657056     -0.59100059085062
  H   -0.25537401327349     -0.50423280803283     -1.58110411142316
  H   -0.61646394260460     -1.38735804202255     -0.08024268122400
  C   0.26669005026827      0.51314219960528      1.61108081666528
  N   0.01189690919605      0.63272304641750      2.75213750730070
  N   1.81221007854666     -0.49674495052796      0.02027632182219
  O   1.98832577325134     -1.33644515056100      0.89581268525262
  O   2.45485253543564     -0.35514490562793     -1.00747864783752
  N   -1.82800801489593      0.29439300668428     -0.34383481756200
  H   -2.03647905308925      0.91849289041496     -1.10931383598629
  H   -2.59258808946143     -0.35254128906036     -0.22202809717815
