13
Coordinates from ORCA-job run
  C   0.62266254353538      0.51043340116176      0.04873895822584
  C   -0.59520359056368      0.17001932506157     -0.81135780466759
  Br  1.84090925771909      1.68179867452340     -0.90431383706736
  H   -0.22377169173961     -0.26542423792851     -1.73925293416704
  H   -1.10460131016603      1.10891399577022     -1.05134678616490
  C   0.22591708907113      1.12955503434819      1.30291255575130
  N   -0.17276930723755      1.67055331300410      2.26725432646291
  N   1.37548954766280     -0.79151710495884      0.34505103889080
  O   1.77177744867181     -0.95918791172612      1.48851167880930
  O   1.52601325605813     -1.54105132112489     -0.60788998422884
  N   -1.39501207950091     -0.77374831417997     -0.06024286342065
  H   -1.64230477556573     -1.58582253413174     -0.60538173940171
  H   -2.22810638794483     -0.35552231981916      0.32631739097793
