13
Coordinates from ORCA-job run
  C   0.63597982636468      0.48179163589090      0.08266657928938
  C   -0.56962880333108      0.22654399761815     -0.82161133494274
  Br  1.96265584124751      1.57576623107984     -0.82026858712735
  H   -0.19776968153562     -0.17631775287705     -1.76513914744279
  H   -1.03472670577306      1.19508629220163     -1.02269945726485
  C   0.24412211295423      1.11469908240719      1.33113602079444
  N   -0.13163408363518      1.67611169135035      2.29284893155396
  N   1.30528833031442     -0.86102724549267      0.39526073101129
  O   1.30005073368706     -1.68164168446817     -0.51166841907695
  O   1.81204780969068     -0.98501813019429      1.50008648379443
  N   -1.44841244535158     -0.68010395585526     -0.11384976810241
  H   -1.50149147970971     -1.58326844024197     -0.55989086740985
  H   -2.37548145492234     -0.30462172141865      0.01312883492345
