13
Coordinates from ORCA-job run
  C   0.54384826231025      0.49539243319033      0.14998553227355
  C   -0.93486879481521      0.14008324730098     -0.06197605638523
  Br  1.23379319879120      1.49205116931982     -1.35104883965713
  H   -1.26751682355827     -0.34243283110984      0.85935027371461
  H   -1.48307833589683      1.08348610005437     -0.17451124013796
  C   0.74264875924570      1.26124898858334      1.37065476889080
  N   0.85274076319390      1.89035122384120      2.35777135047657
  N   1.29223688995296     -0.84697537682258      0.30949414696290
  O   0.92278832380443     -1.47581343760011      1.29305180826090
  O   2.12073927860900     -1.17539294753959     -0.51549603638207
  N   -1.04477268907077     -0.79008278019557     -1.16279766222833
  H   -1.15759663114938     -0.31384100213885     -2.04653614197235
  H   -1.82196220141697     -1.42007478688349     -1.02794190381625
