13
Coordinates from ORCA-job run
  C   0.52079173995995      0.49953502126561      0.20738043425402
  C   -0.94003123652968      0.10872287220726     -0.05848461121992
  Br  1.17912916056419      1.67713710629734     -1.17121850910570
  H   -1.25895129157291     -0.48372280838527      0.80137830753929
  H   -1.52723920878398      1.03484943386476     -0.07489857997741
  C   0.68053233378900      1.13775989614876      1.50489523011865
  N   0.75865259264510      1.65956108091761      2.55562960168761
  N   1.32462948719188     -0.82010228170823      0.23309557216067
  O   0.96514308319129     -1.57087807335937      1.13128858482930
  O   2.18618394434451     -1.01671582970942     -0.60030182404016
  N   -1.00283980677859     -0.69810655603509     -1.25572811259571
  H   -1.73406485580518     -1.39022604121035     -1.19035729245711
  H   -1.15293594221555     -0.13681382029361     -2.08167880119355
