13
Coordinates from ORCA-job run
  C   0.56190604892888      0.30532292659108      0.07073031826105
  C   -0.66254604940742     -0.48621362996900     -0.40251017159463
  Br  0.91156500225363      1.79075486555183     -1.13299471139280
  H   -0.45665347817383     -0.84346730881525     -1.41471167159939
  H   -0.73913037858057     -1.35961366997323      0.25312360544157
  C   0.38401760033015      0.80957288067795      1.42213624100411
  N   0.20959335639776      1.18303602913774      2.52273237110215
  N   1.81138944692526     -0.58201916114197      0.03287876076897
  O   1.84755786205869     -1.41127876401394     -0.86771669256407
  O   2.66933384552247     -0.37655042917868      0.87955539257958
  N   -1.83971429842610      0.34530414803604     -0.25956133880643
  H   -2.05494634130898      0.82756748113854     -1.12033594233059
  H   -2.64137261651996     -0.20241536804112      0.01567383913048
