13
Coordinates from ORCA-job run
  C   0.54141066838401      0.33089665171592      0.22370123315020
  C   -0.53201584905727     -0.29475981253545     -0.67816389921683
  Br  0.93437610721060      2.15064789422547     -0.30317462193551
  H   -0.19700364150398     -0.17791162012326     -1.70840974023979
  H   -0.54212041697785     -1.37029357071922     -0.44828133187501
  C   0.11953361537510      0.30790340411516      1.61529822169278
  N   -0.31130406873952      0.25848248902427      2.70795366326918
  N   1.84013360693283     -0.46622485925024      0.07887651897010
  O   2.47634522980434     -0.70128479871196      1.09736216823540
  O   2.13078572531624     -0.79093585447263     -1.06484210131244
  N   -1.78845381628800      0.38444336107386     -0.46108861613360
  H   -2.34209580315062     -0.07096789289227      0.25092752063086
  H   -2.32859135730588      0.44200460855033     -1.31115901523535
