13
Coordinates from ORCA-job run
  C   0.55829334910497      0.32045522539399      0.19487051093963
  C   -0.56708126430188     -0.29353713391415     -0.64980881892953
  Br  0.97462156762160      2.11948659460635     -0.38287827704194
  H   -0.59468500622450     -1.36407892471385     -0.39887264310594
  H   -0.27216689701065     -0.20447999003678     -1.69498086372090
  C   0.19426660153008      0.33406970490673      1.60286044851208
  N   -0.19235476291498      0.31584331262809      2.71285889439999
  N   1.82944940853781     -0.51251510652653      0.01240351374006
  O   2.06364545779754     -0.86642448559342     -1.13561038947924
  O   2.50191858046026     -0.74426916357208      1.00810179649300
  N   -1.79587304818882      0.42181718889453     -0.39482727279350
  H   -2.36946779717631      0.47764029360707     -1.22277611623821
  H   -2.33056618923513     -0.00500751567995      0.34865921722450
