13
Coordinates from ORCA-job run
  C   0.42560609710691      0.51094908757199      0.34959944251414
  C   -0.93774154347304     -0.00416172894051     -0.13383281565167
  Br  1.00993470220753      2.01194897838026     -0.71222584571810
  H   -1.64969627851531      0.82529715711988     -0.04312413812739
  H   -1.23320532441671     -0.78856192099915      0.56597431368150
  C   0.38802134471426      0.89634920648948      1.75176184628399
  N   0.30430709771431      1.20961067739526      2.88188330346192
  N   1.40787287488103     -0.67434209810004      0.21368782785215
  O   1.10122974162342     -1.62139251562923      0.92664335551921
  O   2.33882847899538     -0.59795699300752     -0.56235425242596
  N   -0.78884586802541     -0.56627592379948     -1.45712288925268
  H   -0.93332309804091      0.12677925867113     -2.17774106474800
  H   -1.43398822477148     -1.32924318515204     -1.60114908338912
