13
Coordinates from ORCA-job run
  C   0.44738576448658      0.53306050486670      0.20117192057757
  C   -1.02415011325063      0.08900102059325     -0.04940447256360
  Br  1.07164111902571      1.69441250858234     -1.20550062762582
  H   -1.61898672345157      1.00444891001148     -0.09147680003092
  H   -1.32557772233950     -0.47351696807353      0.83859356404805
  C   0.58659777197452      1.20377328082146      1.48172446912661
  N   0.63093597760171      1.76428055006961      2.51454604036812
  N   1.26934324253382     -0.76371379268368      0.24246095041900
  O   1.09957895670852     -1.41539049104933      1.26691435651440
  O   1.91344882064874     -1.08747904240741     -0.74111830796991
  N   -1.25865681344240     -0.70332499340980     -1.21961821693397
  H   -0.82197090645140     -1.61341195238728     -1.17130381343330
  H   -0.96858937404409     -0.23313953493377     -2.06598906249622
