13
Coordinates from ORCA-job run
  C   0.53318801193814      0.31220440275075      0.23279298275757
  C   -0.56818992670132     -0.35133507294843     -0.60893749277305
  Br  0.84934028853296      2.12684956964834     -0.37613982812850
  H   -0.23448157522770     -0.33892263837462     -1.64932256166061
  H   -0.61715190618488     -1.39602108802738     -0.28289436967752
  C   0.18643586609431      0.33154115761207      1.64363066295592
  N   -0.12678985389495      0.32128361479922      2.77633378402680
  N   1.84053588698478     -0.46191540992340      0.03779056746241
  O   2.48528130994183     -0.74797808558138      1.03783581241702
  O   2.11979878394683     -0.73491335032934     -1.12233183793334
  N   -1.82369569753610      0.32099327177345     -0.36131152015658
  H   -2.57775604359616     -0.33280517406695     -0.21739382080952
  H   -2.06651514429772      0.95101880266761     -1.11105237848066
