13
Coordinates from ORCA-job run
  C   0.65553200259036      0.45385871650819     -0.06876966545315
  C   -0.67852304239985      0.15996497047071     -0.75418125281600
  Br  1.87575354355649      1.35405778263921     -1.28295481198780
  H   -0.46452273789694     -0.36832032488604     -1.68508966915813
  H   -1.13269494926259      1.12199768416471     -1.00406299884457
  C   0.48005652923095      1.25291240915154      1.13260039524622
  N   0.28362990072069      1.94637606492167      2.06092238182227
  N   1.31369285316454     -0.87673142677884      0.31379307104119
  O   1.13309590414870     -1.80317151336228     -0.46436785663040
  O   1.98581133341309     -0.89043683688426      1.33393824319640
  N   -1.47871364356102     -0.60387959612797      0.17851730232207
  H   -1.59472247903971     -1.56153160404072     -0.11585907488540
  H   -2.37839521466469     -0.18509632577592      0.35551393614730
