13
Coordinates from ORCA-job run
  C   0.55828637134141      0.32265079568729      0.19294623613449
  C   -0.56033775768752     -0.30810737493814     -0.64872039326163
  Br  0.99422371345858      2.10173708315017     -0.42995043201449
  H   -0.59783979943444     -1.37085686363526     -0.36783263823654
  H   -0.25167724747519     -0.25054393678642     -1.69219714619675
  C   0.17509834164418      0.37832140212523      1.59486512839558
  N   -0.22766021034940      0.39336094421797      2.69927652206069
  N   1.82576212681404     -0.52350747051737      0.05092545222973
  O   2.48161572864865     -0.73365044692365      1.06250615130442
  O   2.07423951523065     -0.90914220140230     -1.08367482412488
  N   -1.78748209210207      0.42192535602319     -0.43001491288663
  H   -2.34965142220027      0.45895249588998     -1.26683931900461
  H   -2.33457726788860      0.01886021710927      0.31771017560062
