13
Coordinates from ORCA-job run
  C   0.60397733393974      0.51628968792887      0.08029184874478
  C   -0.57623200398456      0.18249341214357     -0.83102728656556
  Br  1.88495171628332      1.65557985363728     -0.83234570599541
  H   -0.17476299724000     -0.21192570080811     -1.76651398474995
  H   -1.09141861043517      1.12128275095666     -1.04893456159019
  C   0.16987408352036      1.15401075415452      1.31241269907955
  N   -0.21255220182787      1.72968841227755      2.26290811923617
  N   1.33797040604826     -0.78374699485126      0.42903674103412
  O   1.35938351621778     -1.63487004741203     -0.44950171001236
  O   1.86390839888993     -0.84614164787445      1.52983353623449
  N   -1.41747906951480     -0.75246400335548     -0.11419480343638
  H   -2.37815407525508     -0.45058194206748     -0.06390119613839
  H   -1.36946649664192     -1.68061453472965     -0.50706369584087
