13
Coordinates from ORCA-job run
  C   0.47979519511802      0.50083157119404      0.21059650333981
  C   -1.00671095397417      0.17665461330075     -0.12333923358716
  Br  1.29545921254302      1.54109250232549     -1.19303765326506
  H   -1.51225898761520      1.13786495832168     -0.24224002167537
  H   -1.41446551556568     -0.31643496807109      0.76347587413887
  C   0.59523609057968      1.21232253793261      1.47150454691431
  N   0.62335203955694      1.81278323653576      2.48224937621305
  N   1.17674277077660     -0.85940379118149      0.35670656428812
  O   1.85346183762430     -1.28006871693137     -0.56646872091160
  O   0.88016338109077     -1.44991158831854      1.38946809362675
  N   -1.23467113732712     -0.64477231480824     -1.27441178412256
  H   -0.89021206812986     -1.58762712850561     -1.15794320014357
  H   -0.84589186467733     -0.24333091179400     -2.11656034481558
