13
Coordinates from ORCA-job run
  C   0.43156186272907      0.48984397416922      0.37096345929481
  C   -0.92635836007157      0.04746017276912     -0.19286912814427
  Br  1.16625414989204      1.94268456519126     -0.66446171946710
  H   -1.59397675899096      0.91694804429828     -0.15248981910260
  H   -1.30870861945052     -0.71089755840123      0.49343178740476
  C   0.32852645133634      0.89423704592603      1.76454969157240
  N   0.19650161721542      1.21988121273607      2.88651862245224
  N   1.35077437142697     -0.75050161539455      0.30781033009659
  O   0.94677568510798     -1.67001012277613      1.00812697932729
  O   2.33139052782653     -0.73631148356808     -0.40852807347506
  N   -0.72805265871665     -0.53707389900824     -1.49976825036611
  H   -1.40844683131997     -1.26098229874488     -1.67936393565007
  H   -0.78524143698467      0.15572196280313     -2.23291994394289
