13
Coordinates from ORCA-job run
  C   0.48276029136079      0.50578159153217      0.18782577806930
  C   -1.01138897938299      0.16734277900894     -0.09361061060807
  Br  1.24712300514739      1.52880180550236     -1.25665456860001
  H   -1.38643358832292     -0.31744347784534      0.81206288674257
  H   -1.52752870581896      1.12351150688828     -0.20750821419877
  C   0.63350249016018      1.23798197593082      1.43301518947832
  N   0.69037798940710      1.85395411791734      2.43309048643107
  N   1.19340017020389     -0.84755829819943      0.33341952777652
  O   1.83965512404353     -1.28055223172290     -0.60578186649289
  O   0.93791223897565     -1.42129991487169      1.38647007267686
  N   -1.27113839238858     -0.66966467557093     -1.22676388756034
  H   -0.91276299385176     -1.60757542607492     -1.11169155219552
  H   -0.91447864953335     -0.27427975249473     -2.08587324151904
