13
Coordinates from ORCA-job run
  C   0.50270365024986      0.31105598711900      0.19629819735391
  C   -0.54813632189957     -0.39119258847679     -0.70618200453583
  Br  0.72710990522956      2.16309760676848     -0.32100638369948
  H   -0.50991774901198     -1.45402441956291     -0.44189352680999
  H   -0.19915995378400     -0.28154904527918     -1.73503487390825
  C   0.11216379771654      0.25142946350296      1.59418290716716
  N   -0.31366706864542      0.19665295764727      2.68890961566009
  N   1.82720317364755     -0.42587396786781     -0.00598455277986
  O   2.31667306696688     -0.34250856686257     -1.12250004687427
  O   2.23134823098195     -1.09970442730799      0.93431465051296
  N   -1.89689578424844      0.07869108871255     -0.58556284189941
  H   -2.26721440287914     -0.05706639800970      0.34591156602377
  H   -1.98221054432381      1.05199230961669     -0.84445270621079
