13
Coordinates from ORCA-job run
  C   0.59598021699975      0.47524571620241      0.05572737462400
  C   -0.55873002713162      0.22904690927825     -0.93188943881472
  Br  1.96939616941251      1.58329246012877     -0.75144509684069
  H   -0.97129140869033      1.20915752432232     -1.18431754071967
  H   -0.12848522563096     -0.19978859147996     -1.83730768002358
  C   0.11915572679372      1.09434577968895      1.28180248950974
  N   -0.36391896674939      1.61326180416925      2.21986505244151
  N   1.25977015561588     -0.86124057830987      0.41191258828397
  O   1.33973238305968     -1.67522338664346     -0.49839975467221
  O   1.66742171867650     -0.99433432372488      1.55762921489964
  N   -1.59908557573013     -0.62824417505448     -0.43402616578402
  H   -2.04663989009527     -0.27006641003713      0.39842475764779
  H   -1.28430527653035     -1.57645272854018     -0.28797580055177
