12

C	0.0	0.0	0.0
C	-0.645612	-0.159784	-1.360646
F	1.374069	0.0	0.0
H	-1.661466	-0.540332	-1.085355
H	-0.331715	-0.822053	0.640375
H	-0.35993	0.934755	0.42913
C	0.069206	-1.109909	-2.201821
N	0.604283	-1.901328	-2.88817
N	-0.79754	1.152814	-2.019922
H	-1.018907	0.994184	-2.998628
H	-1.663972	1.501789	-1.599321
H	-3.047673	0.0	0.0
