12

C	0.0	0.0	0.0
C	-0.387524	-0.003494	-1.494907
F	1.380979	0.0	0.0
H	0.313145	-0.721303	-1.93931
H	-0.370483	0.873187	0.535044
H	-0.362272	-0.91041	0.478608
C	0.000923	1.301344	-2.076237
N	0.298745	2.334268	-2.548304
N	-1.734526	-0.348201	-1.892785
H	-2.439046	-0.062337	-1.150857
H	-1.798478	-1.361091	-1.89103
H	-3.453407	0.0	0.0
