12

C	0.0	0.0	0.0
C	-0.600033	-0.057415	-1.385013
F	1.374064	0.0	0.0
H	-1.676169	-0.274997	-1.150498
H	-0.349348	-0.863205	0.571153
H	-0.362324	0.902844	0.494501
C	-0.007412	-1.127117	-2.179007
N	0.429346	-2.00623	-2.825683
N	-0.44142	1.239523	-2.074081
H	-1.113127	1.850738	-1.610496
H	-0.793518	1.129569	-3.020522
H	-3.05657	0.0	0.0
