12

C	0.0	0.0	0.0
C	-0.57761	-0.002837	-1.386227
F	1.386603	0.0	0.0
H	-1.683684	0.005404	-1.132876
H	-0.352194	0.904068	0.497142
H	-0.352569	-0.872595	0.551766
C	-0.234071	-1.230064	-2.118066
N	0.046504	-2.174442	-2.761598
N	-0.192222	1.208816	-2.107819
H	-0.751886	1.29071	-2.947817
H	0.780759	1.141868	-2.385661
H	-3.036956	0.0	0.0
