12

C	0.0	0.0	0.0
C	-0.612042	-0.162971	-1.37014
F	1.38508	0.0	0.0
H	-1.693916	-0.328009	-1.073087
H	-0.357909	0.939673	0.424185
H	-0.335145	-0.816079	0.645569
C	-0.065636	-1.324728	-2.066165
N	0.380507	-2.26591	-2.611696
N	-0.576903	1.01992	-2.226833
H	-1.359018	1.5966	-1.927814
H	0.279535	1.537155	-2.061639
H	-2.994932	0.0	0.0
