12

C	0.0	0.0	0.0
C	-0.379523	0.03059	-1.500336
F	1.381018	0.0	0.0
H	0.31359	-0.697247	-1.956632
H	-0.367844	-0.921475	0.456816
H	-0.378328	0.86186	0.549635
C	0.035898	1.345726	-2.045053
N	0.351744	2.390483	-2.480061
N	-1.73423	-0.286922	-1.904055
H	-2.438667	-0.001396	-1.157479
H	-1.821984	-1.303967	-1.888576
H	-3.443387	0.0	0.0
