17

C	-0.497546	-0.044947	-1.431775
C	0.0	0.0	0.0
F	0.119819	0.905112	-2.239776
H	1.09432	0.0	0.0
H	-0.1726	-1.017475	-1.82108
C	-1.997384	0.111405	-1.60466
H	-2.261241	0.002477	-2.660493
H	-2.539083	-0.64536	-1.02961
H	-2.300534	1.10536	-1.27234
C	-0.371431	-1.251043	0.776701
H	0.187622	-1.264993	1.711247
H	-0.070234	-2.127979	0.196816
H	-1.439526	-1.314861	1.004416
N	-0.425868	1.193442	0.722231
O	-0.498308	1.13308	1.959333
O	-0.596053	2.244815	0.08547
H	2.618514	0.0	0.0
