17

C	-0.395151	-0.06805	-1.452366
C	0.0	0.0	0.0
F	-1.802055	-0.16833	-1.583039
H	1.093719	0.0	0.0
H	-0.114414	0.871414	-1.92886
C	0.250471	-1.236427	-2.159054
H	1.325552	-1.21359	-1.953276
H	0.075307	-1.170741	-3.235679
H	-0.165017	-2.181538	-1.802983
C	-0.48118	-1.151987	0.853008
H	-0.097182	-1.042803	1.86649
H	-1.571583	-1.210429	0.888359
H	-0.080905	-2.08272	0.445873
N	-0.409928	1.298058	0.574403
O	-0.780133	1.335027	1.754314
O	-0.282092	2.307748	-0.125919
H	2.701966	0.0	0.0
