17

C	-0.48179	0.042103	-1.441563
C	0.0	0.0	0.0
F	-0.017644	1.164885	-2.116077
H	1.091264	0.0	0.0
H	-0.020283	-0.822553	-1.933106
C	-1.990362	0.01194	-1.608786
H	-2.451199	0.835651	-1.058204
H	-2.240186	0.122201	-2.667438
H	-2.41053	-0.929476	-1.24935
C	-0.413337	-1.287871	0.685458
H	-0.029866	-2.126627	0.096992
H	-1.491217	-1.389735	0.820734
H	0.063383	-1.333941	1.665634
N	-0.484022	1.172471	0.748648
O	-0.119814	2.285546	0.359716
O	-1.208653	0.99758	1.743584
H	2.72555	0.0	0.0
