10
Coordinates from ORCA-job run
  C   -0.42771061420200      0.34245567666167     -0.58969269961895
  C   0.70884760277776     -0.00476640678306      0.08887044131768
  H   -0.33533102041032      0.88348604512567     -1.52699050371364
  N   -1.68456156170956      0.10920350525158     -0.16564909750702
  H   -2.45352563979044      0.23658919057650     -0.79848691926418
  H   -1.84320103004678     -0.48040372162032      0.63732399142465
  C   1.99487682095966      0.33435937529602     -0.42272473245772
  N   3.05207025948027      0.61679259285476     -0.85312856773977
  C   0.59323005237030     -0.72289065839841      1.31537621443905
  N   0.39630513057111     -1.31382559896443      2.31410187311989
