10
Coordinates from ORCA-job run
  C   -0.42127748826911      0.06064069991671     -0.68186801332176
  C   0.71076365094604     -0.00236824486624      0.08501297581367
  H   -0.32156841444760      0.20814574473029     -1.75330831140075
  N   -1.67731874560367     -0.08749676407937     -0.22109821165698
  H   -2.45635227089643      0.12741340841813     -0.81636844812340
  H   -1.84964375932851     -0.12269832782475      0.77203924308362
  C   2.00015466376211      0.11979597347619     -0.50885939874118
  N   3.05913257196799      0.22297122854305     -1.00965149756290
  C   0.58390261009420     -0.18790780303139      1.49298005591217
  N   0.37220718177496     -0.33849591528260      2.64112160599750
