10
Coordinates from ORCA-job run
  C   -0.47855014877986      0.18621412949490     -0.61902614139578
  C   0.71425684460295      0.00046967410068      0.02606402493465
  H   -0.46979733892231      0.54884568790789     -1.64272531650614
  N   -1.69021164612610     -0.08922087333139     -0.10103931467853
  H   -2.51718335397716      0.22844873410064     -0.57297246637945
  H   -1.77876838880266     -0.32875555004174      0.87463412515002
  C   1.94793676849549      0.27425623933413     -0.63252938951762
  N   2.96094385356500      0.50440981371206     -1.18354795586583
  C   0.70978556851014     -0.46989271323222      1.37216850390816
  N   0.60158784143452     -0.85577514204496      2.47897393035053
