10
Coordinates from ORCA-job run
  C   -0.72573561924945     -0.33546247321874     -0.08848444744301
  C   0.58858340657732     -0.28342848728157      0.29003405233658
  H   -1.30065017461769     -1.22919329141909      0.13561468622564
  N   -1.37405333408589      0.62762394758688     -0.76998578179870
  H   -0.93415209241126      1.52280601466865     -0.91928646743143
  H   -2.37256836395531      0.58519231312711     -0.86318141921251
  C   1.34760097592195      0.88929635870362      0.00392305161275
  N   1.88672829181856      1.89854516807797     -0.27246667048857
  C   1.19566190933301     -1.38254607992877      0.96387338623618
  N   1.68758500066876     -2.29383347031605      1.52095960996308
