10
Coordinates from ORCA-job run
  C   -0.38620073503879      0.24378365626655     -0.66181877647942
  C   0.70455927232122     -0.02220020539313      0.12115515497559
  H   -0.22937685397640      0.59891598494375     -1.67613225495320
  N   -1.66798894656051      0.14297198198634     -0.26352633551982
  H   -2.40740221701507      0.20131812314564     -0.93956774033349
  H   -1.88805725658935     -0.27505867559116      0.62745698908965
  C   2.02438229977101      0.16364321348204     -0.38296223420795
  N   3.11006947608832      0.31848810657606     -0.80755890246175
  C   0.50524029564703     -0.49356402034534      1.45198395808513
  N   0.23577466535253     -0.87929816507074      2.53097014180527
