10
Coordinates from ORCA-job run
  C   -0.49394843920425      0.20678792715221     -0.59950979813803
  C   0.71464115766728     -0.00299892401194      0.00739564074005
  H   -0.51086618803883      0.52091946706101     -1.63907211538498
  N   -1.69285160347566      0.09721307211138      0.00291291371101
  H   -2.53111770485450      0.10731056525131     -0.54903244487131
  H   -1.75641043483108     -0.28747160635267      0.93310921976596
  C   0.74465497519170     -0.42033010841028      1.37044131259827
  N   0.66649486909825     -0.76440836205636      2.49337109910208
  C   1.93101821418819      0.19067340022561     -0.70934307387282
  N   2.92838515425891      0.35130456902974     -1.31127275365023
