10
Coordinates from ORCA-job run
  C   -0.66580489710458     -0.37637994436717     -0.24782024141765
  C   0.56807753760933     -0.27476999429907      0.33561989113837
  H   -1.17117567987821     -1.33774581711561     -0.24085590726562
  N   -1.30790253707550      0.62249622497382     -0.88192599069374
  H   -0.94640803320680      1.56293964782311     -0.83749292074173
  H   -2.27204150109089      0.51177152894523     -1.13777937840909
  C   1.18269540455660     -1.40995720864286      0.93901264303689
  N   1.68022019067020     -2.35280587327599      1.43522436725669
  C   1.23316842361904      0.98648374816773      0.33919760483923
  N   1.69817109190081      2.06696768779079      0.29581993225664
