10
Coordinates from ORCA-job run
  C   -0.68214468351226     -0.39639249880372     -0.15443152827030
  C   0.58721781679704     -0.23649584350188      0.33172847052361
  H   -1.15668664240292     -1.36979686431939     -0.07091431837093
  N   -1.43058250753581      0.57996311461282     -0.70154216655270
  H   -2.27985412109778      0.34580954463025     -1.18265612462038
  H   -1.01547688679154      1.47578996973857     -0.90797161304065
  C   1.21794709866012      1.03738707815235      0.22114727721918
  N   1.65194878566533      2.12259039439848      0.08135402868945
  C   1.27446479348329     -1.32563870176172      0.94176682932270
  N   1.83316634673454     -2.23221619314576      1.44051914510003
