10
Coordinates from ORCA-job run
  C   -0.68708121500620     -0.33852282728002     -0.24234766227900
  C   0.54519536589549     -0.30001668810826      0.35195506587992
  H   -1.25594058019357     -1.26324759396789     -0.20859634540871
  N   -1.25415589365513      0.67830834372261     -0.91784848706953
  H   -2.21958084789403      0.62189506220011     -1.18621004488112
  H   -0.83112051475369      1.59377594763422     -0.90288463746904
  C   1.07312571461050     -1.45141807285172      1.00488021338351
  N   1.49830282055322     -2.40688584322325      1.54269046380561
  C   1.29589748692126      0.91162981212876      0.31820157970042
  N   1.83635766352214      1.95448185974544      0.24115985433793
