10
Coordinates from ORCA-job run
  C   -0.70634566891491     -0.36239692206148     -0.13045980494828
  C   0.58217930305384     -0.26316664430249      0.32014449879084
  H   -1.25997856243313     -1.27717244269186      0.06012527059526
  N   -1.35251323557799      0.58010784104871     -0.84170654597553
  H   -0.93757582920599      1.49041792521950     -0.96914243921702
  H   -2.34028292612952      0.49776172217179     -0.99890269515294
  C   1.31147437479640      0.93827071111150      0.07995513602166
  N   1.82800959055568      1.96845342363051     -0.15998366638579
  C   1.19111679914358     -1.34018326264887      1.02707131723306
  N   1.68391615471204     -2.23209235147730      1.61389892903875
