10
Coordinates from ORCA-job run
  C   -0.70216451441902     -0.38073961995543     -0.09350905697370
  C   0.59121006416539     -0.23157145550422      0.32859706820283
  H   -1.23913185051067     -1.28692885276022      0.17170414700654
  N   -1.37243556902337      0.49851733604349     -0.86186000253319
  H   -2.36287071540102      0.39579889725443     -0.98811927038926
  H   -0.97365190163590      1.40420776623288     -1.05660040608313
  C   1.29835080300778      0.95956110222596     -0.00915016532102
  N   1.79355558731045      1.97721607852759     -0.33257724015753
  C   1.22598967198131     -1.24706746961243      1.10075109349838
  N   1.74014842452503     -2.08899378245205      1.74076383275008
