10
Coordinates from ORCA-job run
  C   -0.46674738829927      0.20339954953215     -0.62280969582000
  C   0.71350675419272     -0.02213705450923      0.03209069663736
  H   -0.43698605133241      0.57829946663782     -1.64205782700452
  N   -1.69118437481852     -0.05019108712102     -0.12282207472569
  H   -2.50342432505510      0.30381447244033     -0.59453715175074
  H   -1.79560242338854     -0.29766841137565      0.84928418869497
  C   1.96103635917054      0.23510649493357     -0.60664861696099
  N   2.98552480771441      0.45272477041136     -1.14106259023808
  C   0.68263220896183     -0.50598166186525      1.37305714013411
  N   0.55324443285431     -0.89736653908408      2.47550593103359
