10
Coordinates from ORCA-job run
  C   -0.69608768164304     -0.37141327759345     -0.15487759507221
  C   0.58757166744938     -0.26619449379536      0.30848842432474
  H   -1.22789477889669     -1.30867620733556     -0.01828526354458
  N   -1.36296347885248      0.59388832551627     -0.81414439326379
  H   -0.96968496249610      1.51903884392384     -0.89261057140272
  H   -2.34631069187297      0.49401156081272     -0.98824586067484
  C   1.28778987738900      0.96453982173105      0.14201843087888
  N   1.78041380513363      2.01846146196439     -0.03745596247953
  C   1.21825873668925     -1.36617792474431      0.95900532158363
  N   1.72890750710002     -2.27847811047959      1.49710746965042
