10
Coordinates from ORCA-job run
  C   -0.66702288358560     -0.40622186091197     -0.18933888266761
  C   0.59188544166616     -0.24040200886237      0.32152237045590
  H   -1.14334925744278     -1.37871245668428     -0.10465398916716
  N   -1.36876403417900      0.53915905713544     -0.84191414259130
  H   -2.34064414967412      0.38965117742611     -1.04306810171942
  H   -1.03121119640344      1.48904585057692     -0.87124982797410
  C   1.26999171464196     -1.32487263870299      0.94934241295648
  N   1.81903804776274     -2.22643485865296      1.46764227244425
  C   1.21996395088677      1.03554370988673      0.22003344023907
  N   1.65111236632732      2.12324402878938      0.09068444802388
