10
Coordinates from ORCA-job run
  C   -0.70448854236513     -0.34022819324644     -0.19096811842211
  C   0.56798772936660     -0.30094198442079      0.31144233073561
  H   -1.27047134959444     -1.26409454919849     -0.11431280490410
  N   -1.31808800745997      0.67703839286694     -0.82396814364374
  H   -2.30100301866905      0.62412704279535     -1.01948028954604
  H   -0.89111396428463      1.59055903720100     -0.84151700131747
  C   1.31310083243409      0.91144856626452      0.22135327740794
  N   1.84461005080302      1.95500834325695      0.10312327295099
  C   1.14585475820385     -1.45042614285218      0.92390760451320
  N   1.61461151156566     -2.40249051266686      1.43041987222572
