10
Coordinates from ORCA-job run
  C   -0.46326106699722      0.08641052984477     -0.65141590139781
  C   0.71173828084318     -0.06295869880512      0.03442702431146
  H   -0.42870260430842      0.21073815980583     -1.72982055563932
  N   -1.69111273663027      0.05217344318010     -0.10077473840735
  H   -1.79452700874804      0.04488829419970      0.90251434052022
  H   -2.48881108266592      0.32951031510082     -0.64316526558051
  C   1.96065679959426     -0.05876946914871     -0.65161048355497
  N   2.98664517495425     -0.04912753506248     -1.22607325360086
  C   0.67345453130608     -0.21861854568463      1.45132554819431
  N   0.53491971265211     -0.33424649343028      2.61459328515483
