10
Coordinates from ORCA-job run
  C   -0.72029443991259     -0.34459284312158     -0.09381407609319
  C   0.59973800897487     -0.28721957580925      0.26333046733393
  H   -1.27553256000785     -1.25855143722412      0.09594703670723
  N   -1.39907134035053      0.64041783078013     -0.71107065828011
  H   -2.39781203423301      0.58274679310685     -0.79236778567708
  H   -0.97818061831405      1.55012934423956     -0.82335220072390
  C   1.33203045293932      0.91270435245575      0.02403811053770
  N   1.84456058105856      1.94629428186893     -0.20999373416170
  C   1.23868784749086     -1.40639598789913      0.87131596834123
  N   1.75587410235444     -2.33353275839716      1.37696687201588
