10
Coordinates from ORCA-job run
  C   -0.40088902491904     -0.03274075642580     -0.69807784902197
  C   0.70285585736896      0.06434225382800      0.10535236275705
  H   -0.26480338889096     -0.05469648475110     -1.77547953212223
  N   -1.67470653837161     -0.06072437165656     -0.26332321313572
  H   -2.41386059709215     -0.29873408654499     -0.89933649370820
  H   -1.86846308122379     -0.14806934079604      0.72256437596430
  C   2.00985106229140      0.14099817168907     -0.45709811212551
  N   3.08549305294441      0.20293707980463     -0.92835462457247
  C   0.53247727276814      0.08854122943235      1.52074385516009
  N   0.29204538512462      0.09714630542043      2.67300923080465
