10
Coordinates from ORCA-job run
  C   -0.70922792689047     -0.36699206989469     -0.09261262020599
  C   0.57665892317148     -0.22893252808489      0.35576722153291
  H   -1.24493070187669     -1.28617904993509      0.12643473176839
  N   -1.40096482622658      0.57371306533602     -0.76205646646477
  H   -2.27944694977553      0.34087180037676     -1.18793664094029
  H   -0.93702427932057      1.40882076068692     -1.08489258164249
  C   1.20356340001028     -1.27069753262715      1.09858005775526
  N   1.71215411570459     -2.13705930983412      1.70980954810897
  C   1.28777854713894      0.97205882350461      0.06480538260532
  N   1.79043969806455      1.99539604047161     -0.22789863251731
