10
Coordinates from ORCA-job run
  C   -0.40951448458387      0.15354884285078     -0.67473151562949
  C   0.70815016185565     -0.01086899855114      0.09796788029415
  H   -0.29017090375438      0.44758604712593     -1.71345074665510
  N   -1.67326517873863     -0.06182870073520     -0.26414979489538
  H   -2.44180808829806      0.23227141096652     -0.83881700599759
  H   -1.86506660862520     -0.23742500150977      0.71025693574566
  C   2.00745329024690      0.19674131480363     -0.44891647243399
  N   3.07510310096909      0.37210721790185     -0.90960710640759
  C   0.55825799661318     -0.39115187008854      1.46397774440067
  N   0.33186071431531     -0.70198026276405      2.57647008157866
