10
Coordinates from ORCA-job run
  C   -0.72991248888259     -0.33410020522126     -0.04933939616896
  C   0.60476597097538     -0.28750813596184      0.25018005815892
  H   -1.27291490433869     -1.25971863900844      0.11845196396848
  N   -1.45794696117661      0.70277584720904     -0.50444438263061
  H   -1.00017553355026      1.55853370749766     -0.77877721318009
  H   -2.38601618092392      0.54550299708363     -0.85282775214235
  C   1.32486270203635      0.92249075641121      0.02569582339772
  N   1.83071764548042      1.96169927248666     -0.19735550956610
  C   1.27229840772062     -1.43069358325521      0.77750979234546
  N   1.81432134265929     -2.37998201724144      1.21090661581753
