10
Coordinates from ORCA-job run
  C   -0.66548516331710     -0.40292264640520     -0.20525599571086
  C   0.58750040915198     -0.24723583168737      0.32319956811655
  H   -1.14305870054618     -1.37651289928706     -0.14409439843011
  N   -1.35922697662851      0.55546362510739     -0.84717433898742
  H   -2.32847218028290      0.41136846910975     -1.06409111259730
  H   -1.02066794709436      1.50541975158852     -0.85285628396704
  C   1.21787427994006      1.02961781926515      0.25138018887591
  N   1.65201039650151      2.11865790064174      0.14622580902564
  C   1.25764570407421     -1.34237728128766      0.94130451317721
  N   1.80188017820130     -2.25147890704525      1.45136205049743
