10
Coordinates from ORCA-job run
  C   -0.68449114189294     -0.38038322646351     -0.18230364455358
  C   0.60280704974662     -0.27331534912055      0.27029277795933
  H   -1.17733202259115     -1.34733412836906     -0.13694189155209
  N   -1.39907625536335      0.62076732382777     -0.72866168305906
  H   -2.38260130386736      0.50265280157071     -0.88962241605343
  H   -1.04272634630987      1.56393452046034     -0.71123855913769
  C   1.25206051774843      0.99508790318051      0.22329333292018
  N   1.69932356760480      2.08117724904803      0.14593568078819
  C   1.28807280736960     -1.40975823889922      0.78941939903548
  N   1.84396312755522     -2.35282885523503      1.21882700365267
