10
Coordinates from ORCA-job run
  C   -0.38810568450850      0.01000489054219     -0.70518347137463
  C   0.70206094573133      0.05160964130185      0.12134938678632
  H   -0.23346097609626      0.04704937972015     -1.77963857762744
  N   -1.66931833918089     -0.03263287919263     -0.29459968463746
  H   -2.39979569499464     -0.22375874769842     -0.95585733369747
  H   -1.88156864756897     -0.17053524021080      0.68160416498065
  C   2.01912379751708      0.14689665656991     -0.41430099921013
  N   3.10269159872741      0.22535988111809     -0.86446211040817
  C   0.50571764944704     -0.00188383114093      1.53267041552293
  N   0.24065535092641     -0.05210975100941      2.67841820966541
