10
Coordinates from ORCA-job run
  C   -0.61694505190399     -0.41970163233410     -0.30096200038651
  C   0.54694286834255     -0.23593046896477      0.39537617693929
  H   -1.02038269960492     -1.42410013612563     -0.39300982508328
  N   -1.34632119600998      0.56241823505047     -0.86264771039024
  H   -2.09653034436945      0.33222472801914     -1.48840390157025
  H   -0.98181504833557      1.50186222982349     -0.90301489837805
  C   1.08408079548646      1.07956204502238      0.51408447063943
  N   1.44545696399574      2.19909009263157      0.55500616810423
  C   1.21876244739297     -1.33986554757674      0.99570933373682
  N   1.76675126500620     -2.25655954554580      1.48786218638855
