10
Coordinates from ORCA-job run
  C   -0.73952438802904     -0.30680257447250     -0.07028934928638
  C   0.58359630882886     -0.30374199203541      0.27975214976662
  H   -1.34520231510102     -1.17347042367489      0.17807366253037
  N   -1.36383254344632      0.67415290176207     -0.74872045413223
  H   -0.89114889633573      1.54844055153095     -0.91998613265618
  H   -2.36487787062750      0.67046608669891     -0.82187432437045
  C   1.38287761577832      0.83431440430350     -0.03488982241024
  N   1.95636952338982      1.81800557125616     -0.33311661337423
  C   1.15927151863784     -1.41845053456449      0.95543082844902
  N   1.62347104690478     -2.34291399080430      1.51462005548371
