10
Coordinates from ORCA-job run
  C   -0.74396653049969     -0.29936180852543     -0.05554622791928
  C   0.56546702896367     -0.27266717034548      0.34195155997261
  H   -1.35468501839889     -1.15759366490328      0.20932924336508
  N   -1.37030460708887      0.68593556577744     -0.72564246925559
  H   -2.27849517392680      0.52142560902483     -1.12013254154838
  H   -0.84091959962655      1.46211691554447     -1.09224549926070
  C   1.11936600865085     -1.34963330634211      1.09284392118762
  N   1.56672806584049     -2.24500374443433      1.71015683587803
  C   1.37527196745712      0.84704464856383     -0.00941817465018
  N   1.96153785862866      1.80873695564006     -0.35129664776922
