10
Coordinates from ORCA-job run
  C   -0.73830320320493     -0.30409652969441     -0.09249844454501
  C   0.57617886764992     -0.30879720868205      0.28882385465567
  H   -1.35045533318084     -1.17433949179638      0.12531671620296
  N   -1.34586559245512      0.68980967912213     -0.76752953806473
  H   -2.34510504919177      0.68882083831603     -0.86253440009663
  H   -0.86959352465959      1.56726228057933     -0.90995955463822
  C   1.13621736758726     -1.43773928285374      0.95367751922395
  N   1.58645093157966     -2.37506301774391      1.50277650941390
  C   1.38357841848002      0.83370359370480      0.01362253393441
  N   1.96589711739539      1.82143913904820     -0.25269519608629
