10
Coordinates from ORCA-job run
  C   -0.70474217974957     -0.36499544478382     -0.12868642941916
  C   0.58585533045996     -0.26126276084405      0.31475169434606
  H   -1.25086206751428     -1.28509583375337      0.05774619901298
  N   -1.36101645785659      0.57841857722959     -0.83049384368219
  H   -0.95615165429654      1.49563760001302     -0.94060112756247
  H   -2.35204056596600      0.49541088619482     -0.96700296892107
  C   1.20711900692242     -1.34343891407930      1.00293210606176
  N   1.70840279238180     -2.24244333046416      1.57142295722829
  C   1.30645725191495      0.94642210981179      0.07949621704737
  N   1.81597854370384      1.98034711067548     -0.15956480411157
