10
Coordinates from ORCA-job run
  C   -0.72633539489744     -0.32163036483953     -0.12324086762899
  C   0.56587603451914     -0.29037676958238      0.32701692229058
  H   -1.33141427283410     -1.20040270523866      0.08030677509254
  N   -1.31713357327745      0.64593824360962     -0.84921846134007
  H   -0.85082759680701      1.52932687611733     -0.98826114719258
  H   -2.30905019364790      0.62029164081382     -1.00077969856791
  C   1.11290757227480     -1.39322654915635      1.04429999627381
  N   1.55318256753661     -2.30823059612971      1.63745537581947
  C   1.36373080005775      0.86253679112310      0.06759515878805
  N   1.93906405707560      1.85577343328276     -0.19317405353490
