14

C	-0.453811	-0.029963	-1.416527
C	0.0	0.0	0.0
F	-0.058742	1.071565	-2.062723
H	1.092637	0.0	0.0
H	-0.292578	0.978046	0.395889
N	0.05441	-1.231031	-2.202692
O	0.474792	-2.186947	-1.567497
O	-0.022553	-1.117853	-3.422845
N	-1.974742	-0.107346	-1.559909
O	-2.572411	0.96324	-1.564739
O	-2.469579	-1.231639	-1.577953
C	-0.549832	-1.047968	0.832123
N	-0.952334	-1.871898	1.567231
H	2.572025	0.0	0.0
