14

C	-0.42068	-0.036921	-1.42432
C	0.0	0.0	0.0
F	-0.159191	1.082253	-2.092326
H	1.094766	0.0	0.0
H	-0.318338	-0.915902	0.497031
N	0.263261	-1.201146	-2.145538
O	0.069776	-2.299048	-1.636197
O	0.899918	-0.945463	-3.153412
N	-1.917119	-0.342213	-1.658438
O	-2.542411	-0.853701	-0.73876
O	-2.34707	-0.061399	-2.77295
C	-0.541051	1.165901	0.663773
N	-0.945914	2.121744	1.215513
H	2.606005	0.0	0.0
