14

C	-0.528798	-0.032271	-1.387612
C	0.0	0.0	0.0
F	-1.882156	-0.106524	-1.488911
H	1.090384	0.0	0.0
H	-0.2766	-0.930912	0.499647
N	-0.082332	1.195375	-2.163682
O	1.084103	1.18463	-2.531358
O	-0.906363	2.092965	-2.292075
N	-0.006308	-1.215143	-2.174987
O	0.564964	-2.105409	-1.558201
O	-0.256155	-1.192387	-3.376662
C	-0.525864	1.139152	0.723485
N	-0.898375	2.074385	1.331141
H	2.57837	0.0	0.0
