19

C	-0.546188	-0.016034	-1.43103
C	0.0	0.0	0.0
F	0.211422	-0.817021	-2.221523
H	1.091319	0.0	0.0
C	-1.9937	-0.432184	-1.569959
H	-2.074054	-1.489279	-1.316287
H	-2.639274	0.151916	-0.9185
H	-2.309576	-0.297849	-2.60596
N	-0.407332	1.395411	-2.006096
O	0.552495	1.626275	-2.725796
O	-1.292624	2.192573	-1.698961
N	-0.440391	-1.302231	0.603977
O	0.081532	-2.325843	0.16973
O	-1.327836	-1.277689	1.460673
C	-0.45472	1.159699	0.863673
H	-1.534751	1.302061	0.877065
H	-0.109334	0.976629	1.881352
H	0.029809	2.070878	0.512684
Cl	3.288263	0.0	0.0
