19

C	-0.509311	-0.005629	-1.444546
C	0.0	0.0	0.0
F	0.113042	-0.996012	-2.136293
H	1.091217	0.0	0.0
C	-2.001553	-0.156811	-1.639736
H	-2.311858	-1.135549	-1.274531
H	-2.221797	-0.093773	-2.707804
H	-2.55106	0.61856	-1.111881
N	-0.09528	1.307115	-2.113336
O	-0.734399	2.302094	-1.772591
O	0.790749	1.269638	-2.952053
N	-0.463291	-1.307649	0.576023
O	-1.52644	-1.306237	1.208294
O	0.215291	-2.304736	0.352662
C	-0.476363	1.14235	0.875776
H	-0.172304	0.928615	1.901495
H	0.023014	2.058686	0.566717
H	-1.555467	1.286905	0.854528
Cl	3.306889	0.0	0.0
