19

C	-0.540661	0.001186	-1.433112
C	0.0	0.0	0.0
F	0.179146	-0.845619	-2.211598
H	1.091273	0.0	0.0
C	-2.007028	-0.341337	-1.578361
H	-2.303575	-0.212678	-2.621133
H	-2.148393	-1.387264	-1.303511
H	-2.628088	0.290548	-0.947765
N	-0.326378	1.397867	-2.024013
O	-1.156999	2.249756	-1.709205
O	0.628082	1.561284	-2.768888
N	-0.452223	-1.307037	0.585499
O	-1.366474	-1.286643	1.415742
O	0.082184	-2.327885	0.161905
C	-0.455066	1.150995	0.875323
H	-1.534066	1.299942	0.881399
H	0.038188	2.0635	0.541693
H	-0.121604	0.951163	1.893892
Cl	3.289989	0.0	0.0
