18

C	-0.130414	-0.016313	-1.514748
C	0.0	0.0	0.0
Cl	0.134113	1.660605	-2.246461
H	1.094287	0.0	0.0
N	0.82628	-0.937143	-1.960491
H	0.928122	-0.910636	-2.966808
H	1.711006	-0.723919	-1.454756
N	-1.497252	-0.420813	-2.072637
O	-2.45441	-0.439089	-1.303999
O	-1.540986	-0.715206	-3.264696
C	-0.444147	-1.283966	0.69261
H	-1.521344	-1.303009	0.876477
H	-0.163672	-2.135439	0.071336
H	0.093654	-1.354579	1.639762
N	-0.575985	1.143236	0.738265
O	-0.228691	1.234956	1.916353
O	-1.396542	1.889379	0.202228
F	2.612844	0.0	0.0
