18

C	-0.130621	-0.074352	-1.534802
C	0.0	0.0	0.0
Cl	-0.441299	1.57065	-2.362039
H	1.092347	0.0	0.0
N	0.990805	-0.732651	-1.977535
H	1.842994	-0.472345	-1.418407
H	1.090208	-0.792273	-2.97713
N	-1.415624	-0.811136	-1.973371
O	-1.312793	-1.652776	-2.86103
O	-2.455679	-0.488906	-1.407742
C	-0.498346	-1.253462	0.687686
H	-0.062044	-2.112973	0.174333
H	-0.130535	-1.25517	1.715515
H	-1.584479	-1.329379	0.700934
N	-0.53382	1.22491	0.629955
O	-1.54488	1.129691	1.334571
O	0.088939	2.27151	0.451226
F	2.652704	0.0	0.0
