18

C	-0.109675	-0.036016	-1.540914
C	0.0	0.0	0.0
Cl	0.005832	1.618701	-2.186277
H	1.091965	0.0	0.0
N	0.95543	-0.812881	-2.087783
H	1.791758	-0.573333	-1.508723
H	0.734102	-1.791105	-1.949699
N	-1.447361	-0.632618	-2.001041
O	-2.396665	0.104672	-2.224306
O	-1.487418	-1.862321	-2.029909
C	-0.518687	-1.240169	0.697297
H	-0.268578	-1.164868	1.758865
H	-0.006181	-2.11731	0.302936
H	-1.597752	-1.369281	0.59281
N	-0.639755	1.188658	0.604377
O	-1.874639	1.232057	0.571205
O	0.073951	2.045056	1.120348
F	2.633843	0.0	0.0
