18

C	-0.137284	0.054813	-1.543129
C	0.0	0.0	0.0
Cl	-1.673335	0.772963	-2.11056
H	1.092422	0.0	0.0
N	0.976832	0.66392	-2.195008
H	0.85695	1.663724	-2.079121
H	1.796318	0.415873	-1.601045
N	-0.146298	-1.430962	-1.973033
O	0.96543	-1.936107	-2.081786
O	-1.21737	-2.01915	-2.093689
C	-0.64302	-1.152512	0.727231
H	-0.179137	-2.081884	0.395653
H	-0.4519	-1.051841	1.795473
H	-1.72333	-1.207294	0.566443
N	-0.403188	1.307955	0.561211
O	-0.000123	2.326641	-0.003356
O	-1.084048	1.3262	1.590651
F	2.587114	0.0	0.0
