18

C	-0.505518	-0.015106	-1.429942
C	0.0	0.0	0.0
Cl	0.291175	1.160657	-2.480389
H	1.090174	0.0	0.0
N	-0.364387	-1.301316	-2.005331
H	-0.591889	-1.266055	-2.992055
H	-0.988421	-1.949364	-1.541002
N	-2.042711	0.394188	-1.402746
O	-2.355014	1.57663	-1.386412
O	-2.832028	-0.549495	-1.317861
C	-0.421608	-1.221655	0.792107
H	0.11671	-2.077218	0.383097
H	-0.078255	-1.089909	1.817972
H	-1.499462	-1.406156	0.809823
N	-0.44691	1.241956	0.682454
O	-1.290256	1.147599	1.583994
O	0.061712	2.304267	0.329398
F	2.511757	0.0	0.0
