18

C	-0.633956	-0.024983	-1.373653
C	0.0	0.0	0.0
Cl	0.052032	-1.479709	-2.285716
H	1.090426	0.0	0.0
N	-2.038599	-0.015715	-1.338627
H	-2.429621	0.060661	-2.268017
H	-2.379987	-0.83939	-0.864024
N	-0.179183	1.125077	-2.285773
O	-1.019345	1.545901	-3.079794
O	0.982623	1.472512	-2.21123
C	-0.373485	-1.204078	0.848909
H	0.230052	-1.167559	1.753567
H	-0.112789	-2.115866	0.313208
H	-1.429857	-1.224966	1.141811
N	-0.430961	1.237478	0.686943
O	-0.511448	1.21672	1.917963
O	-0.626757	2.249882	0.00941
F	2.498335	0.0	0.0
