18

C	-0.562672	-0.033084	-1.40384
C	0.0	0.0	0.0
Cl	0.276149	-1.31627	-2.32863
H	1.088035	0.0	0.0
N	-1.957759	-0.257784	-1.496202
H	-2.236707	-0.208347	-2.469343
H	-2.410779	0.497601	-0.992875
N	-0.148009	1.260639	-2.18413
O	0.839468	1.872459	-1.819745
O	-0.855806	1.535727	-3.152167
C	-0.364401	-1.236275	0.809327
H	-0.00918	-2.117377	0.27689
H	0.172251	-1.178702	1.755098
H	-1.439944	-1.332925	0.984384
N	-0.492617	1.184862	0.721154
O	-1.248419	1.984703	0.141443
O	-0.131436	1.32794	1.88608
F	2.504228	0.0	0.0
