18

C	-0.564302	0.005879	-1.424326
C	0.0	0.0	0.0
Cl	0.148569	-1.354426	-2.300271
H	1.09157	0.0	0.0
N	-1.992476	-0.036019	-1.615927
H	-2.307505	-0.974061	-1.403376
H	-2.414198	0.59814	-0.944414
N	-0.104538	1.313998	-2.096066
O	-0.817449	2.277384	-1.820928
O	0.89202	1.3302	-2.797459
C	-0.450614	-1.213118	0.791842
H	-1.532909	-1.363984	0.803426
H	-0.106368	-1.090028	1.820813
H	0.052977	-2.091457	0.388776
N	-0.505411	1.223649	0.694152
O	-1.680158	1.219775	1.0973
O	0.26287	2.169208	0.841003
F	2.540859	0.0	0.0
