15

C	0.0	0.0	0.0
C	-0.529304	-0.009076	-1.419789
Br	1.965922	0.0	0.0
H	-1.6172	-0.114375	-1.242552
H	-0.283117	0.935145	0.48172
H	-0.13447	-0.886573	-1.940618
C	-0.528789	-1.164848	0.805215
H	-1.624383	-1.020942	0.738801
H	-0.174415	-1.134906	1.839273
H	-0.220026	-2.114008	0.355504
C	-0.239856	1.265884	-2.201452
H	-0.605014	1.183064	-3.230298
H	0.829237	1.500132	-2.240763
H	-0.762838	2.106756	-1.735797
F	-2.961105	0.0	0.0
