17

C	-0.406507	-0.04053	-1.477275
C	0.0	0.0	0.0
F	-0.104611	1.285437	-1.932736
H	1.086438	0.0	0.0
N	0.421144	-0.97837	-2.136884
H	0.40928	-0.783875	-3.132071
H	1.379852	-0.886727	-1.802285
N	-1.780963	-0.323867	-1.678179
H	-1.955339	-0.55043	-2.649561
H	-2.329477	0.475765	-1.39273
N	-0.505721	-1.208206	0.716716
O	-1.4768	-1.068031	1.459062
O	0.088355	-2.253024	0.491965
N	-0.528945	1.182566	0.72899
O	-1.56804	1.708745	0.331749
O	0.100978	1.518954	1.725825
Cl	3.233089	0.0	0.0
