17

C	-0.41029	0.093248	-1.487405
C	0.0	0.0	0.0
F	-0.160509	-1.212774	-1.952012
H	1.095853	0.0	0.0
N	-1.755956	0.486161	-1.656819
H	-1.946439	0.543584	-2.648981
H	-2.367486	-0.183153	-1.207686
N	0.439374	0.944514	-2.252181
H	0.332999	1.887963	-1.899317
H	1.405898	0.66899	-2.082947
N	-0.549662	-1.199672	0.685195
O	0.176535	-1.764039	1.495151
O	-1.706427	-1.528395	0.413415
N	-0.463753	1.19416	0.762833
O	-0.106916	2.281738	0.32431
O	-1.142621	1.018092	1.771702
Cl	3.217074	0.0	0.0
