17

C	-0.421111	-0.067049	-1.474708
C	0.0	0.0	0.0
F	-0.218288	1.279384	-1.929924
H	1.090761	0.0	0.0
N	0.452438	-0.940571	-2.15956
H	0.429138	-0.714715	-3.147677
H	1.405907	-0.827255	-1.819172
N	-1.77781	-0.43926	-1.653127
H	-2.379896	0.327597	-1.386764
H	-1.94393	-0.720626	-2.609812
N	-0.483194	-1.20284	0.744536
O	0.024656	-2.266234	0.418259
O	-1.340817	-1.041391	1.610933
N	-0.546154	1.194065	0.694792
O	-1.665996	1.591862	0.371751
O	0.149803	1.67454	1.582318
Cl	3.234102	0.0	0.0
