15
Coordinates from ORCA-job run
  C   0.79222216180239     -0.71301445371002     -0.04379739673690
  C   -0.45194581860330      0.12946104848726     -0.31239415364871
  F   0.78492635719995     -1.10308156845557      1.28268354880266
  H   -0.43355724748974      0.44147150966089     -1.36087593854392
  H   0.74609914359770     -1.63912841100523     -0.62837950486591
  N   1.97138730218720      0.08471639776697     -0.24772742429068
  H   2.78742470376369     -0.46512980928542     -0.00618169038776
  H   2.04898970612958      0.34917088604293     -1.22259814943307
  C   -0.60189845380228      1.29996859674044      0.62979229787734
  H   -0.65961092061689      0.95212219925698      1.65887890735809
  H   -1.50573804485805      1.86507054760251      0.40184594487653
  H   0.26886758785102      1.94648615178851      0.52487910039702
  N   -1.62979810201986     -0.80804597174971     -0.23763520471840
  O   -2.44374981821149     -0.66132736089873      0.66805498385957
  O   -1.67361855692994     -1.67873976224180     -1.10554532054587
