15
Coordinates from ORCA-job run
  C   0.82515570519306     -0.40472037622176     -0.71806204327728
  C   -0.56168323665671      0.14759658505560     -0.41035512834783
  F   0.61690576132428     -1.68338024886822     -1.28138484037455
  H   -1.12009904924166      0.19968045483780     -1.34513735204729
  H   1.26072298896868      0.19889383050770     -1.51943146944125
  N   1.70016913766853     -0.41394855413833      0.38438344690271
  H   2.61833390610152     -0.74110665218352      0.11799726585993
  H   1.33088200311970     -0.97528093426978      1.14020035688160
  C   -0.53392777524621      1.48077950732948      0.31044306446243
  H   0.01834545099978      2.20759883255998     -0.28884044735245
  H   -0.03258657902794      1.38023625348333      1.27123507549973
  H   -1.54913970986933      1.85430035320774      0.45855949189299
  N   -1.32919172291693     -0.84318207219203      0.41404685992519
  O   -2.40888967741561     -1.22733382775395     -0.02330710632476
  O   -0.83599720300116     -1.18113315135403      1.49065282574084
