15
Coordinates from ORCA-job run
  C   1.06492778465947     -0.06528759750942     -0.08747280344870
  C   -0.42943190611234      0.08156200293444     -0.33571559723435
  F   1.68731437087136      0.66476924892657     -1.08906339832918
  H   -0.63462920846154     -0.31173725517462     -1.33221661019569
  H   1.35387512167278      0.40360665810557      0.86071541370343
  N   1.47744942120601     -1.43539972206132     -0.24363211784485
  H   2.48448322056601     -1.45406646017048     -0.35468377983716
  H   1.24735087459487     -1.95026758322269      0.59754702350074
  C   -0.93219316752304      1.50435182988186     -0.17019421654858
  H   -0.77438547248948      1.84868275758767      0.85464996467584
  H   -1.99599470841154      1.56036717427767     -0.40444119920214
  H   -0.38634669257490      2.15850601745985     -0.85012227635498
  N   -1.18880508393335     -0.79619566275653      0.60651795256856
  O   -0.67744123734425     -1.02943541853561      1.70440220581442
  O   -2.29617331672006     -1.17745598974296      0.24370943873264
