15
Coordinates from ORCA-job run
  C   0.85933385522037     -0.65141458031847      0.05299556841513
  C   -0.42087970268820      0.10072028394627     -0.30002859917057
  F   1.00519659742377     -0.75221627119883      1.41963462723479
  H   -0.34403159339141      0.47799894421562     -1.32171442235280
  H   0.81806728762951     -1.68410843127316     -0.31745729813657
  N   1.97669627269783      0.12875208304690     -0.42072852805076
  H   2.01540546694817      0.10955540599800     -1.43260053741259
  H   2.83403771109518     -0.27689913586364     -0.06461058929401
  C   -0.72330635977275      1.22818775580715      0.66984679915250
  H   -1.59731201547461      1.78862357361301      0.33399758431227
  H   0.13897714370930      1.89359735742708      0.71220838876788
  H   -0.90829687805427      0.82507197272896      1.66475348932059
  N   -1.58638907494742     -0.83711423740533     -0.33092965083135
  O   -1.66198494767980     -1.66886071288756      0.57084563617146
  O   -2.40451376271567     -0.68189400783599     -1.23621246812596
