15
Coordinates from ORCA-job run
  C   1.10377001728313     -0.09639531696307     -0.02461837535318
  C   -0.36974365456151      0.17372758422150     -0.32647168111376
  F   1.80291425785579      0.80658379801319     -0.84121251711434
  H   -0.56708347030570     -0.11978592620045     -1.35963455508363
  H   1.33768819548955      0.18876814257191      1.00427039616598
  N   1.48663622355498     -1.42252154163852     -0.28641872573459
  H   1.90378886586897     -1.91593967478616      0.48234849196458
  H   0.83219555944027     -1.98595477649554     -0.80431865822177
  C   -0.80076424565324      1.59878884461171     -0.05410113545591
  H   -1.86696115450974      1.72508591652343     -0.25209518976171
  H   -0.60394036896269      1.86553392313755      0.98445856549949
  H   -0.24102282825660      2.26778344699933     -0.70666583025459
  N   -1.15502718181396     -0.78082316079673      0.51342757466848
  O   -1.19168922120970     -0.55734806407625      1.72161426085774
  O   -1.67176099421955     -1.74450319512189     -0.05158262106280
