15
Coordinates from ORCA-job run
  C   1.03409015666335     -0.17530999157428      0.09456317258756
  C   -0.39883429562900      0.15908373128480     -0.29812705553370
  F   1.84509815752190      0.72105447983099     -0.63550788706487
  H   -0.54744431146498     -0.08697512786364     -1.35174201291236
  H   1.20533427207129      0.04724161021876      1.14904580264638
  N   1.32453112937133     -1.52834011622982     -0.15951327900225
  H   2.24107517572836     -1.79287830611803      0.17277297155634
  H   1.23147347847635     -1.76136877890004     -1.13942556809376
  C   -0.78443043331079      1.59371905048351     -0.00002540338106
  H   -1.82662087355399      1.77424100574973     -0.27016991569525
  H   -0.15040059011682      2.26433124901074     -0.57916302537006
  H   -0.65504024045967      1.80710017626322      1.06149478693028
  N   -1.28750414652062     -0.77551420217592      0.45848921180826
  O   -1.29195058265777     -0.65501745970080      1.68150962111612
  O   -1.94037689611893     -1.59036732027923     -0.18720141959164
