15
Coordinates from ORCA-job run
  C   0.86760017346600     -0.57455159431126     -0.60573279112970
  C   -0.52651818184689      0.04443693096338     -0.47816712690203
  F   0.64569321134475     -1.86030020635911     -1.13957688550886
  H   -1.02579947005549     -0.04108203510609     -1.44305727456735
  H   1.40566795691151     -0.02351507468217     -1.38297653221933
  N   1.62391061971513     -0.61977742597583      0.56255455403399
  H   2.54579821148604     -0.23068705132831      0.55888577360756
  H   1.14648101570920     -0.66467358563242      1.44412845422291
  C   -0.50019418874491      1.47305524035198      0.02423903065713
  H   -1.51201389321509      1.87846144218005      0.08426350228432
  H   -0.03736662226950      1.52579250866625      1.00819605215512
  H   0.07464114101689      2.09275486793508     -0.66795912323491
  N   -1.35997720834583     -0.79459910953173      0.44228217622855
  O   -2.32089902122808     -1.38695730970058     -0.03675261082293
  O   -1.02802374394373     -0.81935759746925      1.62967280119552
