15
Coordinates from ORCA-job run
  C   0.80896903061006     -0.75204566283155     -0.20847296335086
  C   -0.43576523367504      0.13287939041940     -0.28290792890035
  F   0.73218304952642     -1.41155962146918      1.02313279215205
  H   -0.46389327690709      0.59006792769819     -1.27512837060898
  H   0.74727367186188     -1.52793058151441     -0.97290869670321
  N   2.02926675477945     -0.05422332500069     -0.32517858400085
  H   2.54297961706106     -0.23772684846527     -1.16888133573410
  H   2.01369015169777      0.92185875987993     -0.08442453801534
  C   -0.53698488541200      1.16044475692367      0.82317996276775
  H   -0.47345486642696      0.67958179736670      1.79684134079891
  H   0.26674697081842      1.89466683707068      0.73238427562234
  H   -1.48323289635636      1.69684252199767      0.76134872833958
  N   -1.62678436560895     -0.79354702152969     -0.26799358543915
  O   -1.71583923220387     -1.55750042685573     -1.22728601964773
  O   -2.40515448976480     -0.74180850368973      0.67829492271994
