15
Coordinates from ORCA-job run
  C   1.04229032257225     -0.14580277719459     -0.19835608047856
  C   -0.44907050396292      0.14558696382810     -0.28329086857595
  F   1.63308049581386      0.61862227969901     -1.19364198179477
  H   -0.78095626066890     -0.13976700415483     -1.28242474375534
  H   1.45910462317853      0.21020538178195      0.75136279054901
  N   1.31314069999321     -1.52511974955552     -0.50724997222107
  H   1.10698935040627     -2.09412901886224      0.30477644126173
  H   2.30164545393313     -1.61835370957190     -0.70969599333942
  C   -0.80238402299223      1.58533746928936      0.04410273818306
  H   -0.26199521448966      2.24913804022416     -0.63076334480185
  H   -1.87325516901113      1.75074685428082     -0.08017530068357
  H   -0.52212120812289      1.82297775979971      1.07308045201742
  N   -1.19585139970587     -0.74476065086150      0.65747408423033
  O   -2.36512282241111     -0.99037556509879      0.38216038109451
  O   -0.60649434453253     -1.12330627360374      1.67264139831447
