15
Coordinates from ORCA-job run
  C   0.82744008652731     -0.74002603965126     -0.17549952435308
  C   -0.44202657682042      0.10527972578583     -0.28460512767584
  F   0.78171940437548     -1.33124053192057      1.09172188848662
  H   -0.49313319601901      0.50557153951611     -1.30022939144795
  H   0.77918224967787     -1.55901163837568     -0.89458167495304
  N   2.02649646030212     -0.01615070886043     -0.34503652503338
  H   1.98268179336324      0.97253887547308     -0.16728912779723
  H   2.53843610601325     -0.23679805769140     -1.18097062140636
  C   -0.56050879104927      1.18943565689545      0.76419396707276
  H   -0.47465313798653      0.76498146717401      1.76206978309956
  H   -1.52152195120018      1.69630095157634      0.68370801791810
  H   0.22221668615179      1.93853661928336      0.62462602121891
  N   -1.60665342229104     -0.85116660515716     -0.20454631764483
  O   -1.68322479187196     -1.67043015933262     -1.11810599374160
  O   -2.37745091917266     -0.76682109471506      0.74554462625736
