15
Coordinates from ORCA-job run
  C   1.09661727601002     -0.14800698083412     -0.06455223965382
  C   -0.37262094223319      0.19114233081906     -0.31247494995607
  F   1.80728192590190      0.72294710131011     -0.90504287286934
  H   -0.62167663869050     -0.09232077043987     -1.33726132823981
  H   1.38049500806527      0.12267033817461      0.95563785868401
  N   1.40668525778891     -1.49010889138998     -0.34050892889465
  H   1.82864771834896     -2.00484135767540      0.41138394570829
  H   0.70934855608352     -2.02101522033954     -0.83620425733609
  C   -0.72676914772464      1.63450830962575     -0.02611773616404
  H   -0.16173576486612      2.27701551847054     -0.70039041668591
  H   -1.79264065857458      1.81000168853830     -0.18424311216307
  H   -0.47852036762992      1.89162188414992      1.00381384705495
  N   -1.17026027338750     -0.72614697005414      0.55687784782687
  O   -1.14851900962481     -0.50437306017797      1.76577236235927
  O   -1.75533293946730     -1.66209392017727      0.01230998032941
