15
Coordinates from ORCA-job run
  C   1.10334060151839     -0.09437948049398     -0.04905362284475
  C   -0.37883946107371      0.15536575742329     -0.32496612444233
  F   1.77731996753469      0.76738263866405     -0.92817543016161
  H   -0.60291611093222     -0.19353284350629     -1.33519958783414
  H   1.36271536583444      0.24340091320474      0.95760557012902
  N   1.48446021008330     -1.43139907118867     -0.25352670880431
  H   0.81520316275906     -2.02273617112059     -0.71881166875191
  H   1.92547467881452     -1.88273311359675      0.52773973113111
  C   -0.80911686826933      1.59129389583621     -0.11698140374339
  H   -0.58768426714029      1.91289574781935      0.90086205404035
  H   -0.26857895259893      2.22663411650537     -0.81759460837797
  H   -1.88036733031154      1.70343093904876     -0.29503716370312
  N   -1.13670788580404     -0.75596285623568      0.58581536315248
  O   -1.66395206252461     -1.75017630490403      0.08709836610473
  O   -1.14135104788972     -0.46948416745577      1.78122523410581
