15
Coordinates from ORCA-job run
  C   0.89863271101456     -0.51671246872232     -0.64088718314211
  C   -0.52373188276401      0.03443372818415     -0.47964256543458
  F   0.73417763719372     -1.78673515005405     -1.20004072822481
  H   -1.01934023467468     -0.00719164184747     -1.44979673312745
  H   1.40379045128805      0.09433915046510     -1.39545851085266
  N   1.70275544434674     -0.59345040191401      0.51362571434416
  H   1.19013555273836     -0.73960164957304      1.36917067971772
  H   2.39913667634943      0.12734061705120      0.58881015637979
  C   -0.55302123174397      1.42757178344465      0.11440604962242
  H   0.00001606046403      2.11318043346156     -0.53221525148369
  H   -1.57902851437580      1.79111377686360      0.19557381636373
  H   -0.09884784961207      1.43306629329322      1.10436304345083
  N   -1.31918727873458     -0.89583760468890      0.38229356212550
  O   -2.26243865399824     -1.48708011006922     -0.13198739287022
  O   -0.97304888749155     -0.99543675589446      1.56178534313139
