12

C	0.0	0.0	0.0
C	-0.441494	0.095945	-1.457909
F	1.388813	0.0	0.0
H	-1.527272	0.195383	-1.476331
H	-0.360872	0.845921	0.587894
H	0.007268	1.014573	-1.852738
C	-0.408174	-1.267005	0.628204
N	-0.583848	-2.318671	1.117525
N	-0.026907	-1.03372	-2.278035
H	-0.619382	-1.827102	-2.065294
H	0.925932	-1.29029	-2.050392
Br	-3.656314	0.0	0.0
