12

C	0.0	0.0	0.0
C	-0.465565	-0.179214	-1.428736
F	1.390422	0.0	0.0
H	-0.189703	0.732946	-1.979956
H	-0.362997	0.936369	0.426129
H	-1.553881	-0.251154	-1.396778
C	-0.406648	-1.131106	0.851601
N	-0.596124	-2.038197	1.571141
N	0.120186	-1.402156	-1.967398
H	1.081831	-1.242093	-2.234496
H	-0.395983	-1.700389	-2.782698
Br	-3.708891	0.0	0.0
