16

C	0.00819	-0.025668	0.002617
C	-0.513934	0.018524	-1.436522
F	1.415638	0.0428	-0.004959
H	-1.613699	0.108406	-1.277347
N	-0.536278	1.056531	0.727245
H	-1.584468	0.942634	0.561527
H	-0.32944	0.939167	1.713576
C	-0.279549	-1.362803	0.602466
N	-0.473862	-2.392894	1.13324
C	-0.136507	-1.216374	-2.254671
H	0.944115	-1.381175	-2.242591
H	-0.455632	-1.09094	-3.291589
H	-0.63474	-2.098975	-1.849351
C	-0.001978	1.224709	-2.081562
N	0.407637	2.14488	-2.686497
F	-2.843058	0.284863	-0.053609
