12

C	-0.49755	0.022028	-1.41769
C	0.0	0.0	0.0
Cl	-2.294001	0.161893	-1.48562
H	1.091887	0.0	0.0
H	-0.368675	-0.902032	0.490617
H	-0.370825	0.883584	0.51814
N	0.025014	1.273617	-2.142646
O	-0.079288	2.322617	-1.525547
O	0.463245	1.123515	-3.27509
C	-0.12504	-1.159836	-2.187387
N	0.139111	-2.151869	-2.758685
Cl	3.374939	0.0	0.0
