12

C	-0.525915	0.012311	-1.41783
C	0.0	0.0	0.0
Cl	0.035801	-1.393246	-2.323642
H	1.089773	0.0	0.0
H	-0.370006	0.885968	0.521628
H	-0.361446	-0.905351	0.492289
N	-2.072162	-0.0339	-1.326424
O	-2.611599	-1.127814	-1.273567
O	-2.622511	1.055698	-1.211672
C	-0.188124	1.225419	-2.157351
N	0.076761	2.200995	-2.755304
Cl	3.402147	0.0	0.0
