12

C	-0.53695	-0.031266	-1.407278
C	0.0	0.0	0.0
Cl	0.155758	1.274898	-2.38367
H	1.088202	0.0	0.0
H	-0.35039	0.920573	0.471711
H	-0.377957	-0.858757	0.555301
N	-0.208142	-1.372066	-2.114223
O	-0.50979	-1.441661	-3.298287
O	0.269989	-2.25858	-1.423763
C	-1.998205	0.065194	-1.464418
N	-3.170668	0.145174	-1.453524
Cl	3.43763	0.0	0.0
