12

C	-0.523406	0.024234	-1.420121
C	0.0	0.0	0.0
Cl	0.037258	-1.374739	-2.336165
H	1.090028	0.0	0.0
H	-0.370425	0.882411	0.527161
H	-0.363042	-0.909019	0.484515
N	-2.069534	-0.011447	-1.328236
O	-2.624383	-1.0988	-1.329313
O	-2.603725	1.078782	-1.158491
C	-0.180254	1.243173	-2.148222
N	0.084166	2.224074	-2.738596
Cl	3.408871	0.0	0.0
