12

C	-0.493022	-0.026976	-1.419393
C	0.0	0.0	0.0
Cl	-2.287303	0.113605	-1.500481
H	1.091705	0.0	0.0
H	-0.369302	-0.884745	0.520651
H	-0.371279	0.901048	0.486569
N	0.036108	1.199614	-2.183744
O	-0.061323	2.266796	-1.599537
O	0.473598	1.01164	-3.311649
C	-0.1176	-1.234295	-2.147755
N	0.11578	-2.247034	-2.695787
Cl	3.389229	0.0	0.0
