12

C	-0.524702	0.029427	-1.418567
C	0.0	0.0	0.0
Cl	0.04436	-1.359748	-2.344241
H	1.089775	0.0	0.0
H	-0.36097	-0.911713	0.481311
H	-0.370954	0.879258	0.532035
N	-2.071096	-0.024571	-1.327753
O	-2.61924	1.058259	-1.153016
O	-2.612536	-1.118717	-1.335349
C	-0.194017	1.255724	-2.140148
N	0.06171	2.241874	-2.724648
Cl	3.402711	0.0	0.0
