12

C	-0.492343	0.032313	-1.41997
C	0.0	0.0	0.0
Cl	-2.288617	0.174452	-1.494572
H	1.092044	0.0	0.0
H	-0.371658	0.879257	0.524818
H	-0.36968	-0.906558	0.481696
N	0.030196	1.287819	-2.139046
O	0.431476	1.148834	-3.287278
O	-0.043725	2.329251	-1.506847
C	-0.113487	-1.142434	-2.196526
N	0.139033	-2.134378	-2.773649
Cl	3.390779	0.0	0.0
