12

C	-0.520006	0.031013	-1.421147
C	0.0	0.0	0.0
Cl	0.032072	1.467692	-2.276665
H	1.091183	0.0	0.0
H	-0.360841	0.884072	0.525651
H	-0.378252	-0.897781	0.486479
N	-0.02485	-1.244339	-2.147906
O	-0.482923	-2.27996	-1.67694
O	0.741236	-1.132158	-3.084316
C	-1.980924	-0.032621	-1.495397
N	-3.154921	-0.068883	-1.537993
Cl	3.405257	0.0	0.0
