16

C	0.0	0.0	0.0
C	-0.609419	0.09878	-1.39604
Cl	1.794593	0.0	0.0
H	-1.719184	0.143082	-1.206679
C	-0.406432	1.112859	0.866331
N	-0.609835	1.942506	1.673311
C	-0.445679	-1.31474	0.647093
H	-0.051575	-2.157809	0.078152
H	-0.04789	-1.356027	1.662318
H	-1.535924	-1.335377	0.673872
C	-0.282411	-1.055654	-2.217746
N	-0.021185	-2.016713	-2.840947
N	-0.245224	1.34848	-2.149078
O	-0.382668	1.307705	-3.368744
O	0.101463	2.325212	-1.494533
Cl	-3.503891	0.0	0.0
