16

C	0.0	0.0	0.0
C	-0.330802	0.143507	-1.525178
Cl	1.789526	0.0	0.0
H	0.037096	1.126378	-1.82911
C	-0.432262	1.224117	0.674667
N	-0.633228	2.238533	1.233286
C	-0.488383	-1.255344	0.700781
H	-0.090433	-2.133998	0.197058
H	-0.139019	-1.233437	1.734833
H	-1.579477	-1.250506	0.674244
C	-1.668742	-0.039649	-2.104398
N	-2.366807	-0.167246	-3.050046
N	0.52794	-0.820519	-2.337182
O	0.380165	-2.018763	-2.130051
O	1.278754	-0.31662	-3.165994
Cl	-3.444538	0.0	0.0
