16

C	0.0	0.0	0.0
C	-0.615692	0.051599	-1.395675
Cl	1.79156	0.0	0.0
H	-1.725553	0.064951	-1.208955
C	-0.411452	1.149226	0.8167
N	-0.631917	2.015347	1.579443
C	-0.453428	-1.288505	0.688927
H	-1.545218	-1.304842	0.700491
H	-0.073465	-1.292334	1.711766
H	-0.055217	-2.15312	0.155413
C	-0.240791	-1.09817	-2.204051
N	0.084761	-2.035327	-2.832942
N	-0.307608	1.300384	-2.180518
O	0.198468	2.246517	-1.5882
O	-0.650217	1.282634	-3.358174
Cl	-3.518186	0.0	0.0
