16

C	0.0	0.0	0.0
C	-0.621347	-0.256014	-1.369847
Cl	1.787354	0.0	0.0
H	-1.730206	-0.169684	-1.190652
C	-0.409175	1.298064	0.551851
N	-0.640012	2.303631	1.11391
C	-0.451445	-1.105414	0.960615
H	-0.061511	-2.067073	0.623106
H	-1.542775	-1.11541	0.987894
H	-0.055129	-0.889843	1.953658
C	-0.290658	-1.576435	-1.8828
N	-0.020683	-2.654947	-2.262233
N	-0.271615	0.766854	-2.418754
O	0.140811	1.856078	-2.038776
O	-0.48616	0.441364	-3.582003
Cl	-3.526824	0.0	0.0
