16

C	0.0	0.0	0.0
C	-0.470069	-0.361447	-1.454402
Cl	1.789897	0.0	0.0
H	0.441738	-0.42866	-2.058776
C	-0.381191	1.388392	0.285827
N	-0.529542	2.521716	0.560518
C	-0.420971	-0.902863	1.163247
H	-1.505361	-0.993299	1.15764
H	0.065766	-1.869994	1.07817
H	-0.094442	-0.412715	2.082691
C	-1.305949	0.633906	-2.118157
N	-1.708144	1.47457	-2.836291
N	-1.042358	-1.753406	-1.632855
O	-0.468	-2.64644	-1.01809
O	-1.912175	-1.901595	-2.475321
Cl	-3.262295	0.0	0.0
