15
Coordinates from ORCA-job run
  C   0.61437115451662     -0.49226227243600      0.16490812926490
  C   -0.47241568315826     -0.32480526614206     -0.87624086873512
  Cl  1.77953657948551     -1.78062916573030     -0.43538585580335
  H   0.00403604531660     -0.13926063929239     -1.83835301425591
  H   -0.97948166759330     -1.29234087416827     -0.95369023026639
  N   1.50422249627626      0.75227446092215      0.24448538402846
  O   2.08240351712677      0.94201579087137      1.30769888198691
  O   1.60139411906030      1.43626784142522     -0.76575944921045
  N   0.11506431084645     -0.72440312055079      1.45261449991989
  H   0.85333564800984     -0.78921850176316      2.14100491611774
  H   -0.47231406728191     -1.54694139408513      1.47324876430175
  C   -1.46719066825615      0.77960527854628     -0.53483337299096
  H   -0.97681964887794      1.75327105840453     -0.50235973728079
  H   -2.24115251914498      0.82420134698467     -1.30411316024198
  H   -1.94598961632581      0.60222545701389      0.42777511316529
