15
Coordinates from ORCA-job run
  C   0.54696158203098     -0.41166200198443      0.17832937865310
  C   -0.92450817882253     -0.04922631931693      0.10068243240818
  Cl  1.11451578114696     -1.05331163687280     -1.43510315034497
  H   -1.46531577882991     -1.00170779172888      0.12502962801594
  H   -1.15333949691532      0.47360487585377      1.03231072207742
  N   1.43819574816699      0.80888700709235      0.43825230475226
  O   0.90732628864583      1.91193500199587      0.48492423174795
  O   2.62492252407526      0.56892782729305      0.61948178706702
  N   0.81437868193084     -1.27584548120974      1.25789965204257
  H   0.24547326479902     -2.11006620365851      1.21001880501350
  H   1.79638078580826     -1.52065837587678      1.29777556526557
  C   -1.38735936607210      0.76072339234004     -1.10429362023895
  H   -2.44124667993737      1.01664091169123     -0.97541551787738
  H   -0.82588595424049      1.68783207464665     -1.19993910374344
  H   -1.29049920178643      0.19292671973511     -2.02895311483877
