15
Coordinates from ORCA-job run
  C   0.58933746059564     -0.56057418699330      0.11778042385765
  C   -0.87828283659071     -0.14473772166040      0.04762967996486
  Cl  1.04618792434851     -1.45705747343119     -1.33236025098072
  H   -1.45711289999493     -1.06580019392020     -0.06903967658646
  H   -1.12543284014848      0.27995355596289      1.02579145432206
  N   1.39107061588800      0.74774651999116      0.19265777225819
  O   2.00839990838251      1.15439900750447     -0.77799478169228
  O   1.26941871478177      1.32001768867799      1.27323021849802
  N   0.99535927133900     -1.32129791836059      1.26341159655074
  H   0.62585258451413     -2.26093389175767      1.20365503346262
  H   0.66304312777279     -0.87052211529509      2.10716145366195
  C   -1.21218605669932      0.85242935001870     -1.05528367740501
  H   -0.72242184962807      1.81282317428356     -0.88264128586785
  H   -0.90544065753226      0.48328044051022     -2.03450953076985
  H   -2.28879246702859      1.03127376446945     -1.08048842927393
