15
Coordinates from ORCA-job run
  C   0.52679048047893     -0.41260568001722      0.10028992551188
  C   -0.33691511110380      0.65698154381063     -0.54186612450068
  Cl  0.76056053151435     -1.81036639772981     -0.98186986496152
  H   0.12377302955728      0.93525167074056     -1.48956058886086
  H   -0.28475987955084      1.54047724179600      0.10786002776569
  N   1.97054431839666      0.18989241823396      0.24268190159595
  O   2.43818743590821      0.76347955715089     -0.73130788412879
  O   2.51746447523248      0.04561046032638      1.33147413334069
  N   0.01583804813822     -0.86135713754534      1.32944751331417
  H   -0.14581472525421     -0.08018998068784      1.95359101316533
  H   0.64267706186187     -1.51871817036869      1.77551182894034
  C   -1.78313475056060      0.21900461213406     -0.73269392297511
  H   -1.84121788080362     -0.65877519324809     -1.37727175660989
  H   -2.35335658418787      1.02292780545977     -1.20272582114462
  H   -2.25263644962705     -0.03061275005527      0.21843961954741
