15
Coordinates from ORCA-job run
  C   0.63625410680180     -0.49038220200937      0.04801861714185
  C   -0.55441782953857     -0.24168176804066     -0.85384505755343
  Cl  1.75095340550304     -1.67926179132756     -0.80160512285990
  H   -0.18221378874833      0.05896871890636     -1.83269714567486
  H   -1.05078833548279     -1.20886903022317     -0.98585041401580
  N   1.51301548134560      0.76022573287390      0.17005759348193
  O   2.20076220666056      0.84666289901360      1.18008049526419
  O   1.48918111303876      1.55446513985108     -0.76096268153577
  N   0.27618472515943     -0.86793659551721      1.34742174730460
  H   -0.30439034784574     -1.69548006409272      1.33981462279674
  H   1.08218363753608     -0.99585664435442      1.94491800293327
  C   -1.52691639344838      0.79228517148760     -0.29616202189121
  H   -1.05106899610801      1.76940303955807     -0.20510504714680
  H   -1.90347136014333      0.49959044308476      0.68359560371076
  H   -2.37526762473017      0.89886695078975     -0.97567919195552
