15
Coordinates from ORCA-job run
  C   0.59371533143420     -0.25525624275536      0.17146910306905
  C   -0.33482557536851      0.61665743033874     -0.64692001170206
  Cl  0.96029904860282     -1.78713098126635     -0.78213699034001
  H   -0.32289813256022      1.60646727402496     -0.18210510056488
  H   0.08270537005875      0.71827396294133     -1.64776407431552
  N   1.97432496037194      0.39789689304334      0.29982612633591
  O   2.68047175645174     -0.00265062588280      1.21716735875941
  O   2.28156517338485      1.23430078342802     -0.53900020920957
  N   0.13976918889826     -0.48627841628708      1.47655380208515
  H   0.82960930489269     -0.98718218286191      2.02239694253273
  H   -0.74115525980359     -0.98085983143556      1.48022543617033
  C   -1.75928591483166      0.07561415159402     -0.70069900753242
  H   -1.78376383884839     -0.95272768893753     -1.06554627873856
  H   -2.35768220935194      0.68389523042177     -1.38095924679792
  H   -2.24284920333091      0.11898024363441      0.27749215024835
