15
Coordinates from ORCA-job run
  C   0.71137061137724     -0.59713896689282      0.12445137632361
  C   -0.42859513223812     -0.34393531684594     -0.86094753603259
  Cl  1.79227166900901     -1.83012724137992     -0.56609880128135
  H   -0.98121938325497     -1.28469762916008     -0.94729041802173
  H   0.00651788834392     -0.13037984531679     -1.83975501281857
  N   1.48388483518828      0.72861817914393      0.20545906517167
  O   2.08490800379953      1.07991586162367     -0.79954488936058
  O   1.34691515220230      1.38191327365567      1.23506374042227
  N   0.38932484028389     -0.98077453131813      1.45661073519734
  H   -0.06318105249971     -0.22855545000965      1.95730826846628
  H   -0.18368421679575     -1.81402986694460      1.45214460916727
  C   -1.35455188219607      0.78776342417640     -0.42965198664241
  H   -2.18574702593935      0.87011866129227     -1.13238993256509
  H   -1.77850874408588      0.61184848348839      0.56115127435960
  H   -0.83970556319429      1.75046096448761     -0.41651049238573
