13

C	-0.433094	-0.162822	-1.440977
C	0.0	0.0	0.0
Cl	-0.065188	1.411772	-2.348901
H	1.098141	0.0	0.0
H	0.204518	-0.898115	-1.934458
H	-0.434036	0.91915	0.414437
N	-1.809263	-0.531467	-1.594313
H	-2.393606	0.183078	-1.172831
H	-2.056808	-0.607711	-2.573143
N	-0.383469	-1.175339	0.800546
H	-1.136928	-1.682633	0.353034
H	0.435562	-1.769886	0.829433
F	2.700335	0.0	0.0
