13

C	-0.150998	0.130654	-1.515091
C	0.0	0.0	0.0
Cl	-0.243574	-1.68662	-2.286693
H	1.101786	0.0	0.0
H	-1.098154	0.497109	-1.913764
H	-0.357974	0.94893	0.417762
N	0.960997	0.826976	-1.953332
H	1.824379	0.554309	-1.43147
H	1.062882	0.898331	-2.953565
N	-0.729578	-1.098196	0.636422
H	-0.351677	-1.959025	0.256025
H	-0.45069	-1.087162	1.612839
F	2.802931	0.0	0.0
