13

C	-0.211839	0.18233	-1.507728
C	0.0	0.0	0.0
Cl	-0.373234	-1.466908	-2.320176
H	1.10218	0.0	0.0
H	-1.145534	0.676853	-1.787679
H	-0.335472	0.9451	0.450798
N	0.920206	0.863798	-2.067789
H	0.754417	1.861328	-2.040854
H	1.750085	0.636993	-1.486667
N	-0.727372	-1.100142	0.642749
H	-0.464208	-1.074282	1.623108
H	-0.325623	-1.959505	0.283825
F	2.790331	0.0	0.0
