13

C	-0.594455	-0.032245	-1.386099
C	0.0	0.0	0.0
Cl	0.034109	1.451828	-2.334921
H	1.096224	0.0	0.0
H	-0.194581	-0.863711	-1.965285
H	-0.363562	-0.917341	0.481947
N	-2.01509	-0.052334	-1.341818
H	-2.420561	0.15217	-2.24562
H	-2.287645	0.660231	-0.671767
N	-0.575141	1.158573	0.729987
H	-0.470454	0.965197	1.719289
H	0.057428	1.930208	0.544262
F	2.733405	0.0	0.0
