13

C	-0.58944	0.001866	-1.388071
C	0.0	0.0	0.0
Cl	0.039636	1.509123	-2.30787
H	1.096191	0.0	0.0
H	-0.185921	-0.814435	-1.986067
H	-0.365944	-0.925932	0.462357
N	-2.010301	-0.020331	-1.349439
H	-2.411391	0.200004	-2.251624
H	-2.286163	0.682041	-0.66918
N	-0.574554	1.144128	0.754524
H	-0.469281	0.928568	1.739632
H	0.061649	1.919681	0.58505
F	2.732893	0.0	0.0
