13

C	-0.58637	-0.018347	-1.395389
C	0.0	0.0	0.0
Cl	-0.301291	1.57061	-2.190532
H	1.097621	0.0	0.0
H	-0.044774	-0.748581	-1.996736
H	-0.412438	0.854618	0.550829
N	-2.011466	-0.312672	-1.487648
H	-2.494763	0.438755	-1.003629
H	-2.115202	-1.141667	-0.905264
N	-0.392152	-1.289585	0.639439
H	0.49252	-1.74332	0.83929
H	-0.821368	-1.10292	1.537746
F	2.702628	0.0	0.0
