15

C	-0.445214	-0.081197	-1.433021
C	0.0	0.0	0.0
F	-1.711608	-0.587409	-1.59094
H	1.08804	0.0	0.0
H	0.257097	-0.74422	-1.951603
N	-0.372102	1.223319	-2.191393
O	0.615828	1.90797	-1.964182
O	-1.241847	1.448789	-3.023001
N	-0.307268	-1.197935	0.728609
H	0.548898	-1.734398	0.82907
H	-1.043455	-1.739726	0.299668
N	-0.559373	1.169403	0.709663
O	-0.158662	1.356412	1.854539
O	-1.377228	1.895916	0.120899
H	2.583034	0.0	0.0
