15

C	-0.493948	-0.033258	-1.417871
C	0.0	0.0	0.0
F	0.15226	-0.978445	-2.137081
H	1.092635	0.0	0.0
H	-0.414868	0.930992	-1.917894
N	-1.972863	-0.395681	-1.44198
O	-2.361741	-1.237643	-2.240688
O	-2.679855	0.227468	-0.653377
N	-0.408481	-1.149319	0.738016
H	-1.200017	-0.92708	1.327438
H	0.369163	-1.418821	1.331602
N	-0.349249	1.286902	0.626123
O	-0.206771	2.309329	-0.056244
O	-0.639971	1.290113	1.828092
H	2.53609	0.0	0.0
