15

C	-0.616588	-0.012066	-1.370495
C	0.0	0.0	0.0
F	-1.98626	0.049376	-1.307594
H	1.095936	0.0	0.0
H	-0.327859	-0.938633	-1.863292
N	-0.155883	1.082716	-2.305751
O	1.001832	0.960565	-2.688522
O	-0.951785	1.948339	-2.645995
N	-0.369845	-1.203054	0.680526
H	0.404903	-1.453023	1.290456
H	-1.196945	-1.052701	1.241272
N	-0.367117	1.228864	0.724516
O	-0.21743	2.29538	0.118237
O	-0.687238	1.141907	1.918199
H	2.522721	0.0	0.0
