15

C	-0.354113	0.01042	-1.468983
C	0.0	0.0	0.0
F	-0.134884	-1.240336	-1.986376
H	1.090835	0.0	0.0
H	0.207178	0.74072	-2.043448
N	-1.816234	0.280151	-1.744464
O	-2.099848	1.111352	-2.601194
O	-2.625983	-0.40494	-1.119669
N	-0.401354	-1.117345	0.770392
H	-1.201962	-1.597074	0.389187
H	0.392107	-1.737061	0.883354
N	-0.396985	1.286337	0.590393
O	-0.527008	2.234962	-0.208415
O	-0.443069	1.39624	1.814221
H	2.536128	0.0	0.0
