15

C	-0.585475	-0.109626	-1.3801
C	0.0	0.0	0.0
F	-1.958253	-0.149679	-1.34536
H	1.09028	0.0	0.0
H	-0.213656	-1.027222	-1.832423
N	-0.191806	0.986916	-2.344572
O	0.957534	0.912589	-2.760404
O	-1.033451	1.81694	-2.664773
N	-0.37383	-1.162671	0.743577
H	0.384523	-1.352903	1.391224
H	-1.216238	-0.988358	1.275341
N	-0.381284	1.273471	0.640773
O	-0.813086	1.252234	1.800896
O	-0.12624	2.303896	0.009231
H	2.533636	0.0	0.0
