18

C	-0.552971	-0.00383	-1.415221
C	0.0	0.0	0.0
F	0.181496	0.725418	-2.296262
H	1.088614	0.0	0.0
N	-0.376718	-1.461039	-1.967113
O	-1.400449	-2.13081	-2.118167
O	0.761683	-1.835072	-2.203331
N	-1.897359	0.402374	-1.479901
H	-2.359168	0.049779	-2.307332
H	-2.408707	0.118687	-0.656745
C	-0.434759	-1.19867	0.816854
H	-1.51411	-1.373797	0.83116
H	0.073105	-2.083032	0.425698
H	-0.096362	-1.054922	1.842536
N	-0.408019	1.264108	0.618341
O	-1.100328	1.240203	1.652712
O	0.006715	2.296827	0.087869
H	2.588743	0.0	0.0
