18

C	-0.469946	-0.058118	-1.441765
C	0.0	0.0	0.0
F	0.004342	1.057697	-2.093427
H	1.087479	0.0	0.0
N	0.192342	-1.220169	-2.207445
O	0.225475	-1.073704	-3.426245
O	0.558404	-2.213663	-1.600379
N	-1.856836	-0.257095	-1.641379
H	-2.056285	-0.176342	-2.633023
H	-2.332548	0.486513	-1.143939
C	-0.474629	-1.106416	0.927299
H	-1.565936	-1.146194	0.993318
H	-0.049154	-0.911973	1.912458
H	-0.096458	-2.061504	0.574418
N	-0.429115	1.280125	0.601871
O	0.139359	1.601318	1.64613
O	-1.328799	1.959852	0.074064
H	2.645024	0.0	0.0
