18

C	-0.568116	0.02302	-1.40791
C	0.0	0.0	0.0
F	0.155218	0.764675	-2.284965
H	1.088949	0.0	0.0
N	-0.40834	-1.43091	-1.979818
O	0.709526	-1.782747	-2.321578
O	-1.427489	-2.122397	-2.027359
N	-1.911467	0.437347	-1.45159
H	-2.432444	0.085009	-0.661476
H	-2.364388	0.155534	-2.310959
C	-0.419749	-1.206808	0.812009
H	-0.041603	-1.076778	1.825709
H	-1.499365	-1.370543	0.8653
H	0.065489	-2.09154	0.394002
N	-0.396973	1.259297	0.643304
O	-0.006876	2.298953	0.107172
O	-1.052789	1.220734	1.699868
H	2.594136	0.0	0.0
