18

C	-0.52478	0.004754	-1.412636
C	0.0	0.0	0.0
F	-1.922954	0.063728	-1.434466
H	1.088904	0.0	0.0
N	-0.075501	1.222048	-2.224556
O	0.846748	1.900761	-1.807149
O	-0.646669	1.352349	-3.308038
N	-0.049563	-1.084259	-2.166705
H	-0.506206	-1.094598	-3.069825
H	-0.167882	-1.960747	-1.683898
C	-0.3901	-1.256875	0.75768
H	-1.466092	-1.45303	0.714812
H	0.172479	-2.110432	0.369413
H	-0.081506	-1.126409	1.793366
N	-0.456506	1.179644	0.739304
O	-0.163407	1.221459	1.941465
O	-1.036301	2.099057	0.142937
H	2.567521	0.0	0.0
