18

C	-0.318095	-0.100609	-1.474113
C	0.0	0.0	0.0
F	-1.588939	-0.537593	-1.750787
H	1.089521	0.0	0.0
N	-0.229592	1.273902	-2.175968
O	-0.896101	1.417974	-3.198695
O	0.598673	2.062356	-1.740287
N	0.63282	-0.975755	-2.034956
H	1.563866	-0.77239	-1.635122
H	0.633193	-0.927748	-3.046091
C	-0.444431	-1.239253	0.756506
H	-1.533641	-1.327533	0.786105
H	-0.04564	-1.185274	1.770449
H	-0.023595	-2.11459	0.261988
N	-0.575423	1.181985	0.658671
O	-0.139541	1.453178	1.777141
O	-1.488001	1.797536	0.096461
H	2.693901	0.0	0.0
