18

C	-0.568116	0.009267	-1.408345
C	0.0	0.0	0.0
F	0.150868	0.742978	-2.29414
H	1.08861	0.0	0.0
N	-0.407144	-1.44866	-1.961972
O	0.702557	-1.789133	-2.34239
O	-1.416092	-2.156403	-1.950934
N	-1.913985	0.419648	-1.456174
H	-2.432382	0.06957	-0.662596
H	-2.364085	0.127012	-2.313708
C	-0.412451	-1.204046	0.820199
H	-1.491614	-1.365753	0.886871
H	-0.017864	-1.073634	1.826973
H	0.064658	-2.090652	0.396899
N	-0.396386	1.260146	0.639012
O	-0.028716	2.299467	0.086323
O	-1.021441	1.223535	1.713803
H	2.583508	0.0	0.0
