18

C	-0.36347	-0.069656	-1.464882
C	0.0	0.0	0.0
F	-1.642384	-0.512362	-1.69773
H	1.089571	0.0	0.0
N	-0.3131	1.317312	-2.144427
O	-1.106904	1.530116	-3.057785
O	0.607809	2.047319	-1.803098
N	0.569761	-0.93137	-2.077366
H	1.510337	-0.737442	-1.702728
H	0.542057	-0.861727	-3.08662
C	-0.422891	-1.257522	0.74016
H	-1.508744	-1.31809	0.852139
H	0.055677	-1.255053	1.720095
H	-0.069421	-2.123598	0.180662
N	-0.54837	1.167819	0.704091
O	-1.395673	1.873505	0.14709
O	-0.141351	1.350548	1.85134
H	2.674801	0.0	0.0
