18

C	-0.27863	-0.139107	-1.494414
C	0.0	0.0	0.0
F	-1.516435	-0.719399	-1.745611
H	1.091307	0.0	0.0
N	-0.452093	1.2368	-2.219253
O	0.485746	1.623782	-2.908549
O	-1.525978	1.807843	-2.079622
N	0.742607	-0.907136	-2.040203
H	0.80873	-0.807158	-3.043115
H	1.6415	-0.680525	-1.58142
C	-0.515018	-1.193088	0.76713
H	-0.180313	-2.096477	0.255454
H	-1.602562	-1.196042	0.841084
H	-0.087274	-1.181401	1.770727
N	-0.404835	1.274844	0.600396
O	-1.08862	1.258032	1.632016
O	0.067021	2.299766	0.099042
H	2.629544	0.0	0.0
