14
Coordinates from ORCA-job run
  C   0.49666519192235      0.23706225164999      0.17948717960965
  C   -0.87493168785076      0.25877380898784     -0.46098559978815
  Br  1.88114363973812      0.04177114706857     -1.22150051967129
  H   -1.00512350912402      1.18127032970342     -1.02516054146747
  H   -1.63360033961009      0.18435455234152      0.31806483164931
  N   0.65422246318612      1.38902713659968      0.98409992019727
  H   0.55888853948342      2.23812432825841      0.44144237334315
  H   1.55864943089461      1.38542892262093      1.44292139139550
  N   0.64257223560838     -0.92751796379240      1.16986040805160
  O   1.77467426081555     -1.15007640130846      1.57319229286571
  O   -0.39251405793266     -1.45082772337636      1.55644129391134
  N   -1.13636400363224     -0.85491989385882     -1.42139817970286
  O   -1.94082266042809     -0.60197531257365     -2.31293383099093
  O   -0.58245950307070     -1.92949518232065     -1.22353101940284
