14
Coordinates from ORCA-job run
  C   0.63971582791328      0.37381330901296      0.06262874776119
  C   -0.26988421018443      0.04123491034316     -1.10378981010710
  Br  2.36616982802570      0.86902204822583     -0.69322736888963
  H   0.17232656219405     -0.70316171231961     -1.75960049205462
  H   -0.49026466799319      0.95296291242857     -1.65922718714869
  N   0.17290007328735      1.41950566313778      0.87372847716454
  H   -0.70585056213493      1.14924269743437      1.30085060683684
  H   0.84417655054334      1.64967409198234      1.59520677619620
  N   0.93152876229195     -0.94442850537277      0.84542785135238
  O   1.17095097260035     -0.81568522463833      2.03732200712852
  O   0.91714047535528     -1.98819848353025      0.20602490978810
  N   -1.58794536269279     -0.52855071674508     -0.66944912545060
  O   -1.84472556740908     -0.56074387580023      0.53354427329815
  O   -2.31823868179685     -0.91568711415873     -1.57043966587528
