14
Coordinates from ORCA-job run
  C   0.62200350005369      0.20995395591392      0.06956251889865
  C   -0.31990134299866     -0.07576880267785     -1.08133973546060
  Br  2.39474363585217      0.64645196642440     -0.79204983769842
  H   -0.36228681484561      0.76969546012971     -1.76480047355367
  H   -0.02365307940514     -0.98688492305345     -1.59702742022465
  N   0.11998521540892      1.16416031917239      0.94167388045899
  H   0.66946926155129      1.26601183934136      1.78392765534677
  H   -0.07112822764017      2.05121068812323      0.49675081176810
  N   0.93645011946922     -1.06563377679642      0.86185875067066
  O   1.02561308640765     -2.10170185731216      0.22447208122388
  O   1.11944251118019     -0.92011522644033      2.06294966552605
  N   -1.69924280335891     -0.27243003681280     -0.53872058382996
  O   -2.56248884708275      0.51752289957295     -0.91064650229194
  O   -1.85000621459189     -1.20347250558495      0.24438918916614
