14
Coordinates from ORCA-job run
  C   0.59584539179385      0.17138732986809      0.19965392696237
  C   -0.56265029326940     -0.60146437585920     -0.45603653087175
  Br  1.87114965381730      0.65384210659910     -1.17721155565220
  H   -0.20390822479377     -1.49854863281279     -0.95630739009221
  H   -1.30475156917652     -0.83942753857034      0.31120550614174
  N   0.31586816961291      1.30568461131655      0.99594009994349
  H   -0.19188362285591      1.99291355934098      0.45419970545938
  H   -0.21805224431750      1.04218305078130      1.81523317826172
  N   1.21968136291672     -0.90174809743747      1.12194190890473
  O   1.88786257930472     -1.78146155686849      0.60129105302924
  O   0.89390403639153     -0.83086663005719      2.30238706018011
  N   -1.25291354089373      0.22540202414812     -1.48479925829334
  O   -1.73011488328693      1.29489245463471     -1.10781608370758
  O   -1.31903681524327     -0.23178830508340     -2.62068162026569
