14
Coordinates from ORCA-job run
  C   0.61459514936220      0.19966586103948      0.14094855255195
  C   -0.74809473405597      0.29710256147500     -0.53766269006118
  Br  1.96526380112965     -0.20791192768499     -1.16582467723988
  H   -1.51573998209301      0.41561006248159      0.22976696625682
  H   -0.75462763030129      1.13579004071186     -1.23107499939821
  N   0.99437009209975      1.38250445734639      0.85483652680131
  H   0.25493613476176      1.66826700081241      1.48685032663288
  H   1.23754598086089      2.13257362034504      0.22197153245031
  N   0.54695751800127     -0.88929161429491      1.22920373360624
  O   -0.33261394247048     -0.65919734165497      2.05479636563767
  O   1.34110326593535     -1.80866843046055      1.23762272556786
  N   -1.10658875624693     -0.91991060068290     -1.31976527709918
  O   -0.96309554675091     -1.99595112062951     -0.74564805161714
  O   -1.53401135023228     -0.75058256880391     -2.45702103408943
