14
Coordinates from ORCA-job run
  C   0.58419184030587      0.22954933063478      0.07508812847343
  C   -0.71352239972681      0.27562326593925     -0.71364608449810
  Br  2.00482615449051     -0.50458366302858     -0.99474779052547
  H   -1.52598313060015      0.59608836539715     -0.05811891022943
  H   -0.59559154036031      0.95545637279898     -1.55335614380896
  N   0.91648598852007      1.55719974276240      0.46194937185008
  H   1.83708031852211      1.60206328512936      0.88168228328367
  H   0.22268195541185      1.91262868537012      1.11145884326999
  N   0.36668303086009     -0.65944949868103      1.34233929646116
  O   1.13096489447818     -1.56803386123037      1.60842208234193
  O   -0.57420354559385     -0.26279127466052      2.02561444696448
  N   -1.10962822895754     -1.05093360148407     -1.26310250444858
  O   -1.02457933737222     -2.01190516619097     -0.50365961134818
  O   -1.51940599997777     -1.07091198275652     -2.41892340778601
