14
Coordinates from ORCA-job run
  C   0.62990590924863      0.39433324212868      0.04097842063606
  C   -0.18868839372507     -0.15710488572340     -1.10994127429931
  Br  2.40281416998253      0.78721984819013     -0.66608118811218
  H   -0.37978581846072      0.64004147596794     -1.82865387849441
  H   0.30890146298545     -0.99161987507600     -1.59527737539578
  N   0.09558231100967      1.55474447719670      0.62070617774182
  H   -0.81069325527445      1.34539021294248      1.02360770957977
  H   0.70918329213939      1.92242078222784      1.33644763726723
  N   0.87553838118383     -0.76097972758433      1.06163273547908
  O   0.91768288325196     -1.90017680483747      0.61549783974335
  O   1.02481081813461     -0.42139118622513      2.22652586180269
  N   -1.52788057521977     -0.67583266386199     -0.67557576769083
  O   -2.18153508733833     -1.23904359592212     -1.54193711579632
  O   -1.87583609791771     -0.49700129942334      0.49107021753881
