14
Coordinates from ORCA-job run
  C   0.57262675581461      0.25372249299484      0.08561893664237
  C   -0.70744991450139      0.23872446363555     -0.73275826905937
  Br  2.04590533270996     -0.43322501337487     -0.94355240252830
  H   -0.59729279231291      0.91349063424434     -1.57758171975691
  H   -1.54684517049756      0.53347902034283     -0.09949784533103
  N   0.84199577170422      1.59771469125019      0.46461059708534
  H   0.11996181949411      1.93193789969162      1.09425028555942
  H   1.75043681822566      1.68493486635868      0.90364949905241
  N   0.36219850435392     -0.62990010332428      1.35780115746624
  O   1.15672223715746     -1.50331491340066      1.65163249494024
  O   -0.60994641577770     -0.26533633679964      2.01460766444535
  N   -1.03729932049541     -1.10862962049584     -1.27524281708974
  O   -0.93104623443202     -2.05718022493588     -0.50302300753616
  O   -1.41996739144292     -1.15741785618688     -2.43951457388982
