14
Coordinates from ORCA-job run
  C   0.53021037207839      0.33765295148727      0.06836252540676
  C   -0.86055755281153      0.25477486926639     -0.53759636297769
  Br  1.87673777487095      0.22418373478468     -1.30113723973562
  H   -1.60366420482939      0.21719293558531      0.26172050438321
  H   -1.01988920778979      1.11620487841788     -1.18083051444519
  N   0.64501524204927      1.58212977590707      0.74762007998260
  H   0.01012240873040      1.60385042993643      1.53889079876106
  H   1.59352241692515      1.74648623573972      1.06241531744110
  N   0.70605596558748     -0.84253307496226      1.07799526613556
  O   1.67058045961038     -1.58155640719968      1.01573232025857
  O   -0.17156955110601     -0.84568966608555      1.93784463385776
  N   -1.06513206364124     -0.96679990029599     -1.36474410679749
  O   -1.64540734059449     -0.81943402729975     -2.43515295153160
  O   -0.66502471907960     -2.02746273528154     -0.89312027073906
