14
Coordinates from ORCA-job run
  C   0.55309851707724      0.20878168022884      0.16174482171388
  C   -0.72899411384878      0.25130681368784     -0.66271325319140
  Br  2.05253920029104     -0.69392867834649     -0.76933049698094
  H   -0.54772344638372      0.87703554479750     -1.53871738592023
  H   -1.50425386569116      0.68723825606475     -0.03534087064479
  N   0.84532167422237      1.52650467872247      0.57097598475940
  H   1.12077744402809      2.10054447087612     -0.21570059640612
  H   1.57793116510062      1.52658827183181      1.27127074546079
  N   0.35160224269284     -0.61589220563994      1.43173238357115
  O   -0.45546809806551     -1.53301859308183      1.36356509334000
  O   1.03382766647434     -0.30640608215680      2.39865517074851
  N   -1.28369858048134     -1.03724165164620     -1.18288349716616
  O   -0.60879190379546     -1.65177009081227     -2.00059241747006
  O   -2.40716790162050     -1.33874241452579     -0.79366568181406
