14
Coordinates from ORCA-job run
  C   0.56056920655370      0.13726593456545      0.07170216170460
  C   -0.60403529594578     -0.64629093635758     -0.52344762446761
  Br  1.91016457161486      0.56829422930591     -1.26561192580572
  H   -0.25469996961609     -1.41094301337216     -1.20967448005665
  H   -1.19419299173701     -1.08792933091632      0.28107088445227
  N   0.14556783453176      1.30078383811377      0.71670316397452
  H   0.89349376112349      1.75274329064090      1.22448524172487
  H   -0.67232850458157      1.16394011468875      1.29705075890870
  N   1.29656881741075     -0.87405713415398      1.01812768723425
  O   1.33198013360884     -2.04620274162843      0.66493471099338
  O   1.78608730934749     -0.39770029599519      2.03317290008175
  N   -1.50816135981270      0.28053527498764     -1.25821501236271
  O   -2.41161108049093      0.79531702143952     -0.60134603935969
  O   -1.27740243200682      0.46324374868171     -2.44895242702196
