14
Coordinates from ORCA-job run
  C   0.62293009113147      0.20821363055144      0.06619623634287
  C   -0.32165067935898     -0.08329954283160     -1.08132100528484
  Br  2.39421296126991      0.64061382869453     -0.80031904781639
  H   -0.36125371362589      0.75681266755521     -1.77145518120644
  H   -0.02974750843275     -1.00038077009155     -1.58860526110603
  N   0.12141438034459      1.16496060524044      0.93535083030709
  H   0.67730477311638      1.27971399485991      1.77161498794760
  H   -0.08482034690013      2.04589864033734      0.48503988180691
  N   0.93976945734595     -1.06397453257900      0.86386721493368
  O   1.13000156405888     -0.91131997456898      2.06303490356191
  O   1.02340832169715     -2.10420097131101      0.23237386681158
  N   -1.69981934990415     -0.26804920559207     -0.53255797640039
  O   -1.86143305523110     -1.21510285247045      0.22910007224569
  O   -2.55031689551130      0.54911448220580     -0.87431952214321
