14
Coordinates from ORCA-job run
  C   0.39169778325750      0.12051910927543      0.35320126227209
  C   -0.33946300762331     -0.50095168108330     -0.82499787237900
  Br  1.34681256547889      1.75568921289961     -0.33875820375426
  H   0.35031607279498     -0.77031722765936     -1.61658270178078
  H   -0.89767143147612     -1.37346651647716     -0.47775761243049
  N   -0.39859161523947      0.30248948991572      1.47953241650257
  H   -1.25240843319950      0.80043341855871      1.26458156431654
  H   0.11163260797355      0.71026702320816      2.25165334278567
  N   1.54582521920483     -0.80193177824865      0.76470534379794
  O   2.04608206484529     -0.56579919493097      1.85377570638348
  O   1.86814885487510     -1.69038338985490     -0.01422972986536
  N   -1.33417764162275      0.44484558409097     -1.41558327801098
  O   -1.30172325313040      0.59422488358339     -2.63092437721715
  O   -2.13847978613858      0.97338106672234     -0.64861586062029
