15
Coordinates from ORCA-job run
  C   0.89337823714602     -0.07119809539548     -0.03339450021431
  C   -0.57853241220873      0.07927195499206     -0.48358813533337
  Cl  1.85777833873759     -0.65662053579333     -1.46449056936129
  H   -0.55099835517618      0.75682895505545     -1.35304987007338
  C   0.99057720625430     -1.10281073196231      1.00143240311887
  N   1.07288450524980     -1.93215086863421      1.82835455060980
  N   1.37788439454491      1.17477629991581      0.47584356055768
  H   2.29588132039037      1.06900253684442      0.89056141920849
  H   1.44522811154722      1.84618780315044     -0.28181511365896
  N   -1.31189553209262      0.58105131157817      0.66546092323894
  H   -2.26037932684653      0.80939953145073      0.39492910338825
  H   -0.86113128445004      1.39936265760630      1.05526289352135
  N   -1.08954758453396     -1.18988190899495     -0.92929000492304
  H   -1.80521213879258     -1.07723734785085     -1.63267915286834
  H   -1.47691547976956     -1.68398156196225     -0.13353750721068
