15
Coordinates from ORCA-job run
  C   0.89564621439870     -0.09320943389964      0.00018934022579
  C   -0.56597953930337      0.19523611860144     -0.40988420493274
  Cl  1.70722859665364     -0.79236561551268     -1.52877969752206
  H   -0.49702901376409      0.84983530664165     -1.29299802609466
  C   0.97235296880808     -1.16413325421009      0.99917000948534
  N   1.05400895897616     -1.97704968143888      1.84271126118050
  N   1.53798789044188      1.05819822033997      0.48552309751262
  H   1.28607753459269      1.88980437435146     -0.02952262960029
  H   2.54021548610819      0.95007944400296      0.55775168972106
  N   -1.20861444157651      0.95650527745296      0.63252457853852
  H   -2.11159581532281      1.28522005763788      0.31222835248781
  H   -1.35625538129875      0.36355451358426      1.44274573019934
  N   -1.22857093781679     -1.07381273241927     -0.67014484573627
  H   -2.20526533245364     -0.90250683434041     -0.87392519580916
  H   -0.81920718844338     -1.54635576079163     -1.46758945965579
