15
Coordinates from ORCA-job run
  C   0.83219104123177     -0.04397886127485     -0.09444087657037
  C   -0.69927190147065     -0.08977667287043      0.06730007049708
  Cl  1.27579760846803     -0.07699204711985     -1.82534236798603
  H   -0.85824455875086     -0.11952277456887      1.16010088270776
  C   1.41629407203044     -1.24187881338210      0.53248790362510
  N   1.93268216607067     -2.11700959925456      1.12274831879561
  N   1.33766115132684      1.19566758469547      0.46550440357334
  H   1.23736568226860      1.16467058716537      1.47616008468980
  H   2.32429573661416      1.29501861371817      0.25351456883658
  N   -1.19065146482598     -1.33881097189048     -0.45796110708251
  H   -2.08024912302774     -1.58001649559991     -0.04206243448001
  H   -1.32051227177460     -1.23515136743029     -1.45811996226788
  N   -1.26542470245991      1.07665008102018     -0.58004232056907
  H   -2.22046938388344      1.21049819112728     -0.27215433778770
  H   -0.72146405181734      1.89963254566486     -0.34569282598170
