15
Coordinates from ORCA-job run
  C   0.89201664892294     -0.08330593574929     -0.04216221646499
  C   -0.58286258126749      0.08006018046684     -0.47788971550345
  Cl  1.83221262001006     -0.70075460674961     -1.47658516861835
  H   -0.55627712476340      0.74449668272981     -1.35748918940789
  C   0.98821331258846     -1.10258567373685      1.00476221525997
  N   1.07013239635209     -1.92192785736896      1.84165543592507
  N   1.39842143186963      1.16283741951420      0.44409249289595
  H   1.46591985077555      1.82288587020304     -0.32348840174206
  H   2.31949611525041      1.05091619587438      0.85034961882338
  N   -1.29631538877047      0.60795361235612      0.67195702117591
  H   -2.24583654672313      0.84172561978052      0.40974975387610
  H   -0.83245064042308      1.42744629429737      1.04334661538798
  N   -1.11575484333859     -1.18842586288316     -0.89913645309576
  H   -1.83772741604680     -1.07623928142555     -1.59615064025520
  H   -1.50018783443616     -1.66608265730886     -0.09201136825667
