15
Coordinates from ORCA-job run
  C   0.88693272407925     -0.36010048087819     -0.08318221054141
  C   -0.65524654079564     -0.43491066248194     -0.15394410412614
  Cl  1.62074905145499     -1.55748011611221     -1.18105423695936
  H   -0.94733935398840     -1.47030884325176      0.06496144042524
  C   1.30610528704158     -0.72589084531550      1.28507923166790
  N   1.60179041407018     -0.96042616651051      2.39858193255573
  N   1.29258645727542      0.96380531950246     -0.47918986453678
  H   2.30021224000902      1.05852997671048     -0.44106824342924
  H   0.85677744292207      1.61882740415190      0.16306649803436
  N   -1.06772591444137     -0.12861659944578     -1.49017592289857
  H   -2.06544251429943     -0.24180562888391     -1.60501906451404
  H   -0.78091148417672      0.80777521556653     -1.74245577177195
  N   -1.13529603808014      0.52911851788849      0.84942967490737
  H   -2.09227852385400      0.78002288262480      0.63510234853037
  H   -1.12091324721679      0.12346002643513      1.77986829265653
