16

C	-0.512339	-0.044909	-1.442535
C	0.0	0.0	0.0
Br	0.007157	1.631945	-2.34418
H	1.093482	0.0	0.0
H	-0.303696	-0.939919	0.481126
C	0.182385	-1.189737	-2.164536
H	-0.120919	-2.137126	-1.70266
H	-0.099664	-1.210166	-3.219788
H	1.266467	-1.090783	-2.072531
C	-2.02806	-0.141961	-1.51431
H	-2.499805	0.709173	-1.018715
H	-2.364759	-0.172238	-2.552872
H	-2.3521	-1.06203	-1.013188
C	-0.551221	1.099218	0.781656
N	-1.037174	1.959334	1.416678
Br	3.5617	0.0	0.0
