17

C	-0.184641	-0.028735	-1.525495
C	0.0	0.0	0.0
F	-0.24472	1.329934	-1.930518
H	1.096337	0.0	0.0
H	-0.441945	0.906175	0.422415
N	0.973993	-0.599287	-2.171478
H	0.855107	-1.602417	-2.247745
H	1.793116	-0.422185	-1.556875
C	-1.465937	-0.648933	-2.057787
H	-1.535683	-1.708379	-1.795019
H	-2.333204	-0.130237	-1.64342
H	-1.477483	-0.548986	-3.145715
C	-0.474622	-1.261957	0.704175
H	-1.560866	-1.412039	0.665107
H	-0.175125	-1.236179	1.75593
H	0.00971	-2.140019	0.264646
F	2.780113	0.0	0.0
