19

C	0.0	0.0	0.0
C	-0.452082	0.136117	-1.492554
F	1.372126	0.0	0.0
H	0.452877	-0.151055	-2.042856
C	-0.593018	0.9275	1.008501
H	-0.323176	1.9538	0.755314
H	-1.684563	0.770882	0.931354
H	-0.222642	0.689829	2.007075
N	-0.268877	-1.454496	0.438479
O	0.213052	-2.322303	-0.291432
O	-0.855283	-1.678982	1.490522
C	-0.809288	1.586078	-1.799307
H	-0.034483	2.296362	-1.491971
H	-1.751368	1.803145	-1.290622
H	-0.966961	1.672696	-2.876522
N	-1.551512	-0.686518	-1.950028
H	-2.336298	-0.512445	-1.275093
H	-1.2763	-1.657687	-1.885202
F	-3.097127	0.0	0.0
