19

C	0.0	0.0	0.0
C	-0.429834	-0.118526	-1.496499
F	1.379544	0.0	0.0
H	0.448151	-0.584208	-1.961186
C	-0.625179	1.071544	0.824741
H	-0.290395	1.006388	1.861051
H	-1.714654	0.888881	0.744129
H	-0.359749	2.046952	0.415559
N	-0.278171	-1.366948	0.654748
O	0.217246	-2.338011	0.080861
O	-0.905257	-1.425011	1.705632
C	-0.64189	1.272654	-2.079545
H	0.196676	1.948086	-1.879073
H	-0.771224	1.171445	-3.158545
H	-1.563565	1.681419	-1.660091
N	-1.59145	-0.919704	-1.805646
H	-2.372373	-0.598046	-1.173619
H	-1.387237	-1.885537	-1.582696
F	-3.174129	0.0	0.0
