19

C	0.0	0.0	0.0
C	-0.260172	-0.104221	-1.54941
F	1.36942	0.0	0.0
H	0.065265	0.898142	-1.862557
C	-0.682149	1.133876	0.679439
H	-0.47092	2.057689	0.133235
H	-1.769917	0.885996	0.610522
H	-0.345612	1.228664	1.712372
N	-0.332985	-1.289697	0.74645
O	-0.666177	-2.284566	0.107445
O	-0.157679	-1.268457	1.962883
C	-1.660664	-0.332948	-2.072966
H	-1.654243	-0.087533	-3.139232
H	-1.92201	-1.386364	-1.952808
H	-2.428966	0.186638	-1.485928
N	0.638569	-1.045458	-2.229882
H	0.298325	-1.977814	-2.029919
H	1.570977	-0.975468	-1.845135
F	-3.250314	0.0	0.0
