13

C	-0.453989	-0.100458	-1.444351
C	0.0	0.0	0.0
F	-0.321372	1.200598	-1.994032
H	1.092677	0.0	0.0
H	-0.346297	-0.872113	0.559567
H	-0.386893	0.912489	0.456105
N	0.34438	-1.048735	-2.128851
H	1.326695	-0.89505	-1.920567
H	0.176097	-0.971283	-3.123648
N	-1.845107	-0.431435	-1.693986
H	-2.002381	-1.363513	-1.33208
H	-2.427529	0.214868	-1.174323
Cl	3.592867	0.0	0.0
