13
Coordinates from ORCA-job run
  C   1.06819066613106     -0.33062130597709      0.39588863235250
  C   -0.31706256009118      0.28861143703211      0.49458565238803
  Cl  1.19902410899658     -1.64176452674320      1.58930579648946
  H   -0.48307607549619      0.71563573690895      1.48304710139431
  H   1.77743712818430      0.44429428216557      0.69372310065455
  C   1.41655960592029     -0.78114020723338     -0.94704438760721
  N   1.77332552039628     -1.10403638260748     -2.01834555007571
  N   -1.43150213433090     -0.67130091245590      0.23417292469901
  O   -1.23374928599010     -1.54793823639631     -0.59751146402529
  O   -2.45905078690942     -0.45894184546634      0.87002599953377
  N   -0.42278429510839      1.42052379568191     -0.50381189641277
  O   0.43327140684706      2.28489042586778     -0.35990894415944
  O   -1.31958329854938      1.38178773922337     -1.33212696523121
