13
Coordinates from ORCA-job run
  C   1.10219082481010     -0.16561786211488      0.25548771338379
  C   -0.22485005512867      0.32153312713756     -0.31802461870263
  Cl  1.08471011447044     -0.38208732523082      2.01542240343360
  H   -0.09530697282682      0.58605637111243     -1.36900885065517
  H   1.83375352685769      0.61813334024102      0.04798975958047
  C   1.49521283572726     -1.39497795239051     -0.42504416053265
  N   1.80949944732860     -2.37341096119856     -0.99421248308645
  N   -0.67341747035172      1.58084235121296      0.38237074704300
  O   -1.85320409828971      1.68166671675687      0.68033810968568
  O   0.21092621823809      2.41556195531917      0.52274967653249
  N   -1.30500776072548     -0.71056714288866     -0.27038849531884
  O   -1.61130464629871     -1.14681499051372      0.83144725127299
  O   -1.77220196381107     -1.03231762744285     -1.36012705263628
