13
Coordinates from ORCA-job run
  C   1.14901290520131     -0.25898037701852     -0.16794867300782
  C   -0.14373655020278      0.51417289641187     -0.37599139715495
  Cl  2.40240251584049      0.85949572273152      0.41425891204875
  H   -0.01513521094566      1.29266090205343     -1.12721960365109
  H   1.46573199618013     -0.60741956949880     -1.15309687027337
  C   1.00263735266680     -1.41856979043921      0.70455237262464
  N   0.88634953104015     -2.40311825192013      1.33408118698199
  N   -0.66430877348680      1.17291462958581      0.85936370233449
  O   -0.48175694579166      0.59541265618984      1.92348348796529
  O   -1.25857000142326      2.22989314144508      0.67238051168623
  N   -1.20507795092539     -0.43235985149057     -0.89247585904054
  O   -0.89262366879246     -1.00144838837252     -1.93126805571359
  O   -2.24292519936088     -0.54265371967782     -0.25811971480003
