13
Coordinates from ORCA-job run
  C   0.98942784827119     -0.34427638630824      0.41637446458543
  C   -0.16663446645495      0.32982184068318     -0.31699152086222
  Cl  0.47075347131622     -1.10221569946819      1.93539331730884
  H   0.08823752331702      0.53553609448863     -1.35749260732850
  H   1.70670977199693      0.43567623277836      0.68222824889295
  C   1.63694290983812     -1.32262972718449     -0.45160026475765
  N   2.19072826677019     -2.08464930199122     -1.15303898870584
  N   -0.55128737374667      1.64760374281361      0.29252416514175
  O   -0.00096446744473      1.99143657171744      1.33198136908750
  O   -1.39037154429896      2.26984665848097     -0.34675665266088
  N   -1.38261434625619     -0.55933396480093     -0.33956117430478
  O   -1.29720339224039     -1.49341350499750     -1.12692581457536
  O   -2.29372420106780     -0.30440255621160      0.43286545817877
