13
Coordinates from ORCA-job run
  C   1.10773324952028     -0.19767113711974      0.07995040939716
  C   -0.37185427075770      0.02234246085719      0.32678157725424
  Cl  1.99093617709172      0.24314199548269      1.56075310527324
  H   -0.76972384888990     -0.55041927008906      1.16168671827958
  H   1.43653799933992      0.46432535191732     -0.72134176722710
  C   1.34997236554040     -1.59154634944598     -0.27042022186607
  N   1.52711229310575     -2.72064718286989     -0.54107837830602
  N   -1.17909503417492     -0.31329918671149     -0.89864531980319
  O   -2.34196126469767     -0.64154921264709     -0.69189197280360
  O   -0.61545027477451     -0.19108417267038     -1.98174420393845
  N   -0.64177702149340      1.47762252053531      0.59942783113239
  O   -0.09973237377330      2.27423224051074     -0.15887580689319
  O   -1.39169799603668      1.72355194225037      1.53639802950101
