13
Coordinates from ORCA-job run
  C   1.08225158384871     -0.18469981967238     -0.45195511982903
  C   -0.30696625105491      0.43006006950217     -0.38571082927575
  Cl  2.29091205995341      1.11826685595048     -0.40493100796755
  H   -0.48549245127624      1.08213745811276     -1.24007529744240
  H   1.16584803332972     -0.66251525404759     -1.43011030121530
  C   1.32693339118977     -1.19256860591719      0.57370434853216
  N   1.53575368262262     -2.06346491805323      1.33338739286102
  N   -0.55418994339326      1.23718738506158      0.84642556648243
  O   -1.28842935813941      2.20823179701218      0.69392127890953
  O   -0.03542007199332      0.84739359520302      1.88479309547960
  N   -1.33855439784462     -0.67512762772745     -0.44482979061968
  O   -2.15776960565032     -0.75336817001499      0.45763877131392
  O   -1.23587667159212     -1.39153276540933     -1.43325810722895
