13
Coordinates from ORCA-job run
  C   1.10919171470174     -0.18717881073763      0.18711549071457
  C   -0.23660049041386      0.33780623466890     -0.29497058140620
  Cl  1.12737791110987     -0.54348960957265      1.92436864538822
  H   -0.15279881891042      0.73821565806920     -1.30642426049872
  H   1.82241322336307      0.62668032091168      0.03110105192924
  C   1.51785831208125     -1.33502553647694     -0.61413043847699
  N   1.86539920802242     -2.22368041178458     -1.29879788941218
  N   -0.65461450304093      1.48958498123699      0.58676128552484
  O   0.10343321225382      2.44919220341531      0.52683802436407
  O   -1.65453713170347      1.36195238077369      1.27513053354107
  N   -1.34166879413709     -0.67138456667411     -0.32615478819033
  O   -2.31729660659102     -0.32507243489246     -0.98312083881885
  O   -1.18915723673539     -1.71760040893739      0.29228376534126
