13
Coordinates from ORCA-job run
  C   1.02772681559313     -0.30153811546648      0.35757762641365
  C   -0.19749526013476      0.31628589340614     -0.31042765703067
  Cl  0.63536688036358     -1.04892130627603      1.91914376104599
  H   -0.01930843344321      0.50700340394466     -1.36958129965664
  H   1.73035801137882      0.50907280534983      0.56415079671811
  C   1.65391325418866     -1.27165850051062     -0.53479058165328
  N   2.17044501151804     -2.02649203354102     -1.27152881530886
  N   -0.58703224699972      1.63366919502683      0.29691723958749
  O   -1.48442264887692      2.21508026762007     -0.30030604592818
  O   0.01420834184205      2.01621895178387      1.29377525575504
  N   -1.38063282569938     -0.61355394176885     -0.23332287172188
  O   -1.31274970929112     -1.56419534083344     -1.00221490298326
  O   -2.24937719043918     -0.36897127873496      0.58960749476249
