13
Coordinates from ORCA-job run
  C   1.12627592159291     -0.14750516213809      0.10718094286212
  C   -0.26859015966600      0.32484764268223     -0.28060862141401
  Cl  1.28465422933001     -0.47837818844283      1.84251658382682
  H   -0.27236264804964      0.71300471450267     -1.30022948233087
  H   1.79748605623091      0.68757956910742     -0.11043445428616
  C   1.51307263362267     -1.29295364148010     -0.70837737560164
  N   1.83183126278145     -2.18088930974234     -1.40782283203135
  N   -0.65964357291624      1.47627729886725      0.61479925945328
  O   0.05919493959393      2.45909615956022      0.48659788365189
  O   -1.60137640573240      1.32620962715536      1.37681143050366
  N   -1.33784915898233     -0.71984378280242     -0.21736550094676
  O   -2.36981831404743     -0.41595995753762     -0.80582050973425
  O   -1.10587478375783     -1.75048496973176      0.40275267604726
