13
Coordinates from ORCA-job run
  C   1.11022258860167     -0.23180346360547      0.35295729704276
  C   -0.29734774349296      0.33138985433409      0.47546924903336
  Cl  1.34328621935393     -1.42685662592337      1.65308522301637
  H   -0.43816878679145      0.81743079775603      1.44145048714645
  H   1.80597631222433      0.58737258791812      0.53933755202875
  C   1.41193080019739     -0.80656862904788     -0.95281546824549
  N   1.72788510054463     -1.24626944314880     -1.99496829921957
  N   -1.35002239123175     -0.72270559507418      0.35357399799309
  O   -2.13666850399844     -0.81324385035283      1.28949493121248
  O   -1.32376197706470     -1.39053476292169     -0.67333099004056
  N   -0.55755023607392      1.37046042472875     -0.59087994193088
  O   0.42133289345822      2.01731268114423     -0.94482390257691
  O   -1.71711427572697      1.51501602419300     -0.94755013545986
