13
Coordinates from ORCA-job run
  C   1.15075670420105     -0.23295618365745     -0.17596187878921
  C   -0.16253897255812      0.50519725222418     -0.38186542836336
  Cl  2.37834339055817      0.92437293984147      0.38536839007588
  H   -0.05947378653336      1.27805421455459     -1.14290862199934
  H   1.46920680460667     -0.58439629856707     -1.15934751648355
  C   1.04362583478677     -1.38601241562830      0.71091818321747
  N   0.98462454910037     -2.36573555432070      1.35581131090917
  N   -0.68582164179905      1.16521551044232      0.85133344396572
  O   -1.28075215767390      2.22180189345027      0.66414830253918
  O   -0.50316768420663      0.58791272302934      1.91562121733371
  N   -1.20669314488734     -0.47205912020680     -0.87704691017864
  O   -2.25101518417363     -0.57130666804088     -0.25169403659055
  O   -0.87809471142100     -1.07008829312098     -1.89437645563647
