15

C	-0.541656	-0.084537	-1.421643
C	0.0	0.0	0.0
Cl	0.117862	1.234128	-2.394297
H	1.09005	0.0	0.0
H	-0.32415	-0.882077	0.556735
N	-0.104295	-1.418425	-2.042423
O	0.087847	-2.341556	-1.260585
O	-0.09431	-1.498426	-3.262633
C	-2.056971	-0.083544	-1.513959
H	-2.45614	-0.93166	-0.950935
H	-2.446801	0.842445	-1.091073
H	-2.365522	-0.15937	-2.557395
C	-0.517827	1.191827	0.659064
N	-0.983718	2.131303	1.188038
Br	3.460627	0.0	0.0
