15

C	-0.586894	0.030504	-1.402924
C	0.0	0.0	0.0
Cl	0.112335	1.418132	-2.267561
H	1.090091	0.0	0.0
H	-0.298192	0.936961	0.483888
N	-0.18026	-1.223361	-2.184069
O	-0.678261	-1.347061	-3.300112
O	0.583594	-2.010811	-1.638381
C	-2.09806	0.112281	-1.440611
H	-2.443935	0.183018	-2.470215
H	-2.420944	0.996661	-0.888462
H	-2.529994	-0.776058	-0.972676
C	-0.551573	-1.10283	0.779089
N	-1.058916	-1.956789	1.405429
Br	3.51199	0.0	0.0
