15

C	-0.531117	0.036338	-1.431152
C	0.0	0.0	0.0
Cl	0.113384	1.436559	-2.284307
H	1.093429	0.0	0.0
H	-0.330693	-0.931774	0.465526
N	-0.054368	-1.253489	-2.118715
O	-0.346637	-2.281517	-1.511495
O	0.4912	-1.194601	-3.208204
C	-2.046485	0.025323	-1.531941
H	-2.44431	0.933405	-1.077996
H	-2.350429	-0.00857	-2.580409
H	-2.440656	-0.847593	-1.008139
C	-0.523806	1.123915	0.762997
N	-0.988933	2.01297	1.373205
Br	3.458061	0.0	0.0
