15

C	-0.552044	-0.004291	-1.421343
C	0.0	0.0	0.0
Cl	0.15001	1.340098	-2.344215
H	1.090443	0.0	0.0
H	-0.320917	-0.913711	0.508801
N	-0.108023	-1.29524	-2.119251
O	0.611518	-2.067074	-1.496821
O	-0.538856	-1.468782	-3.256148
C	-2.063649	0.052585	-1.508403
H	-2.378534	0.047074	-2.550401
H	-2.493888	-0.813445	-0.996086
H	-2.417947	0.963232	-1.024905
C	-0.513795	1.153717	0.726975
N	-0.956048	2.075277	1.304871
Br	3.484101	0.0	0.0
