15

C	-0.566879	-0.027746	-1.413405
C	0.0	0.0	0.0
Cl	0.139996	1.286721	-2.370963
H	1.090465	0.0	0.0
H	-0.32193	-0.900298	0.530212
N	-0.175141	-1.35096	-2.084484
O	-0.515983	-1.483892	-3.255838
O	0.38341	-2.198153	-1.396529
C	-2.079884	0.047393	-1.480282
H	-2.407204	0.006764	-2.518336
H	-2.510947	-0.794524	-0.929322
H	-2.418035	0.979227	-1.027094
C	-0.505784	1.167359	0.712592
N	-0.961381	2.084019	1.288029
Br	3.494985	0.0	0.0
