17

C	-0.520674	0.079616	-1.438118
C	0.0	0.0	0.0
Cl	0.200119	-1.505319	-2.255438
H	1.088374	0.0	0.0
N	-1.933924	-0.008309	-1.452452
H	-2.284769	0.010947	-2.402388
H	-2.187807	-0.894039	-1.028728
N	-0.03317	1.214088	-2.112705
H	0.95908	1.324493	-1.926818
H	-0.173908	1.124842	-3.110861
N	-0.550332	-1.128237	0.692229
H	-1.250141	-0.798575	1.345967
H	0.195235	-1.5865	1.19959
N	-0.39953	1.300057	0.693046
O	-1.345309	1.267912	1.484509
O	0.252985	2.299766	0.424292
Br	3.464148	0.0	0.0
