17

C	-0.644319	-0.178331	-1.383548
C	0.0	0.0	0.0
Cl	-0.104273	1.166089	-2.501342
H	1.089026	0.0	0.0
N	-0.138734	-1.396067	-1.930095
H	-0.263459	-2.11647	-1.228805
H	-0.619587	-1.633192	-2.789671
N	-2.081497	-0.169358	-1.244718
H	-2.501358	-0.337503	-2.151815
H	-2.414515	0.724754	-0.904937
N	-0.429067	-1.083585	0.826122
H	0.195035	-1.168153	1.61678
H	-1.385336	-0.954838	1.125545
N	-0.433661	1.35239	0.565237
O	-1.515789	1.390323	1.16837
O	0.300556	2.315695	0.390346
Br	3.534124	0.0	0.0
