17

C	-0.477158	-0.006191	-1.468918
C	0.0	0.0	0.0
Cl	-0.021424	1.513375	-2.298873
H	1.090054	0.0	0.0
N	0.196792	-1.078162	-2.180356
H	1.199405	-0.891439	-2.159513
H	0.051677	-1.913135	-1.616509
N	-1.913495	-0.117897	-1.514222
H	-2.173551	-0.230519	-2.488955
H	-2.16455	-0.973714	-1.028802
N	-0.478811	-1.201018	0.63807
H	-1.323356	-0.981191	1.157047
H	0.232154	-1.517211	1.28725
N	-0.487953	1.227704	0.737429
O	0.158432	2.261567	0.620132
O	-1.523147	1.112657	1.40307
Br	3.45207	0.0	0.0
