17

C	-0.475215	-0.014733	-1.461893
C	0.0	0.0	0.0
Cl	0.208092	-1.567998	-2.189852
H	1.089701	0.0	0.0
N	-1.904839	-0.184613	-1.552947
H	-2.176873	-0.342735	-2.516349
H	-2.346307	0.657239	-1.200271
N	0.03621	1.145076	-2.102663
H	1.036655	1.232798	-1.93124
H	-0.13377	1.11595	-3.100551
N	-0.514693	-1.042621	0.820204
H	0.19101	-1.758973	0.912885
H	-1.358785	-1.422283	0.410862
N	-0.460578	1.335258	0.556222
O	0.375606	2.209062	0.741477
O	-1.669461	1.457598	0.775448
Br	3.521408	0.0	0.0
