17
Coordinates from ORCA-job run
  C   -0.96115379076998      0.05630693267056     -0.40801026320745
  C   0.55521194202138      0.14377091042450     -0.23451447582059
  Cl  -1.40767871467305      0.57333917922105     -2.07844827714642
  H   1.00541328458036     -0.45537001434269     -1.03646898675730
  H   -1.43974052155830      0.78723092451487      0.25194063924341
  C   -1.54813843220898     -1.32380408139582     -0.17145923373041
  H   -1.04642684885911     -2.06478953690587     -0.79862702704237
  H   -2.61131224272119     -1.33315878033880     -0.41514460294371
  H   -1.43843334835952     -1.61378486540200      0.87524017013090
  C   0.97866986285017     -0.44232737690690      1.11402980230348
  H   2.04681200301529     -0.27631179361676      1.27378953616957
  H   0.44310156721119      0.04399758114626      1.93633127996232
  H   0.79951018576629     -1.51653291907769      1.17714228263424
  C   1.05668661874945      1.58124965328527     -0.35559960373371
  H   0.63287102956530      2.20073107690643      0.44173340049708
  H   0.78874891073781      2.02766810556362     -1.31327774284546
  H   2.14485849465290      1.61378500425398     -0.25965689771357
