12

C	0.0	0.0	0.0
C	-0.613898	-0.416385	-1.338263
Cl	1.771195	0.0	0.0
H	-1.590148	-0.848269	-1.077191
H	-0.357545	0.997827	0.243349
H	-0.324457	-0.689292	0.778012
C	0.168675	-1.444359	-2.02648
N	0.750216	-2.285824	-2.603213
N	-0.775545	0.766792	-2.194558
H	-1.610533	1.223299	-1.825581
H	-1.028832	0.454681	-3.126986
Br	-3.652694	0.0	0.0
