12

C	0.0	0.0	0.0
C	-0.487054	-0.39346	-1.414833
Cl	1.773731	0.0	0.0
H	0.372055	-0.803057	-1.953958
H	-0.352843	0.979478	0.310352
H	-0.340183	-0.766004	0.692695
C	-0.871719	0.814157	-2.187331
N	-1.124154	1.727694	-2.882151
N	-1.478539	-1.446321	-1.332169
H	-2.330724	-1.080898	-0.889508
H	-1.739724	-1.732729	-2.268217
Br	-4.12661	0.0	0.0
