15

C	0.0	0.0	0.0
C	-0.552511	-0.140933	-1.410799
Br	1.945235	0.0	0.0
H	-1.669976	-0.128405	-1.179431
H	-0.259113	0.710208	-2.025198
N	-0.435497	1.348738	0.544527
O	-0.560589	1.448875	1.757545
O	-0.546209	2.268548	-0.258931
C	-0.434311	-1.1197	0.925096
H	0.031292	-1.009239	1.901908
H	-1.526824	-1.049739	0.958506
H	-0.112101	-2.069054	0.492021
C	-0.113645	-1.373774	-2.040809
N	0.222659	-2.362983	-2.581647
F	-2.769663	0.0	0.0
