15

C	0.0	0.0	0.0
C	-0.620359	-0.085267	-1.378931
Br	1.945151	0.0	0.0
H	-1.737961	-0.058298	-1.073999
H	-0.352624	0.781636	-1.982765
N	-0.38294	1.360782	0.586491
O	-0.506047	1.435523	1.801498
O	-0.469979	2.303757	-0.191806
C	-0.48201	-1.103023	0.914882
H	-0.063688	-0.991329	1.913747
H	-1.575631	-0.997075	0.904912
H	-0.173079	-2.062832	0.495097
C	-0.266445	-1.312136	-2.061455
N	-0.005377	-2.305988	-2.633603
F	-2.846562	0.0	0.0
