15

C	0.0	0.0	0.0
C	-0.630716	0.086645	-1.373881
Br	1.933395	0.0	0.0
H	-0.520964	-0.893195	-1.847953
H	-1.736727	0.196288	-1.067556
N	-0.385258	1.242394	0.808068
O	-0.624514	2.265921	0.181418
O	-0.368311	1.14393	2.029399
C	-0.496509	-1.231961	0.728831
H	-0.154564	-2.119178	0.190333
H	-0.111501	-1.255552	1.746271
H	-1.59151	-1.13514	0.699809
C	-0.120773	1.101297	-2.274765
N	0.268683	1.876067	-3.068695
F	-2.861484	0.0	0.0
