15

C	0.0	0.0	0.0
C	-0.373551	0.019647	-1.482639
Br	1.947156	0.0	0.0
H	0.15166	-0.827951	-1.936518
H	0.058236	0.920347	-1.92449
N	-0.432611	1.27432	0.691567
O	-0.541722	1.237738	1.910313
O	-0.552152	2.275228	-0.004077
C	-0.41521	-1.230683	0.779658
H	-1.506278	-1.193983	0.802555
H	-0.048685	-2.112458	0.247431
H	0.020833	-1.209913	1.77764
C	-1.785805	-0.061393	-1.909286
N	-2.558647	-0.150999	-2.800942
F	-2.564354	0.0	0.0
