15

C	0.0	0.0	0.0
C	-0.62063	0.05412	-1.379296
Br	1.933937	0.0	0.0
H	-1.728472	0.154356	-1.08809
H	-0.479717	-0.927042	-1.842383
N	-0.389413	1.262421	0.780441
O	-0.275071	1.2217	1.994753
O	-0.740813	2.242783	0.129887
C	-0.502391	-1.206189	0.766099
H	-0.122575	-1.191865	1.786024
H	-1.597773	-1.105554	0.725895
H	-0.159221	-2.113413	0.262604
C	-0.115896	1.074487	-2.278712
N	0.27519	1.856496	-3.063994
F	-2.859903	0.0	0.0
