15

C	0.0	0.0	0.0
C	-0.632136	-0.209924	-1.357007
Br	1.943575	0.0	0.0
H	-0.36611	0.59159	-2.045151
H	-1.753777	-0.145261	-1.034896
N	-0.37989	1.40656	0.470691
O	-0.493814	2.273433	-0.388002
O	-0.47237	1.59086	1.677309
C	-0.467301	-1.022629	1.01468
H	-0.044799	-0.813442	1.995439
H	-0.144401	-2.011931	0.684178
H	-1.560665	-0.93787	1.007072
C	-0.299969	-1.500493	-1.920228
N	-0.062366	-2.551048	-2.392334
F	-2.847125	0.0	0.0
