15

C	0.0	0.0	0.0
C	-0.617615	-0.02073	-1.384756
Br	1.945105	0.0	0.0
H	-1.734007	-0.017231	-1.082638
H	-0.359153	0.879744	-1.941611
N	-0.389543	1.327224	0.653745
O	-0.508954	1.340908	1.871497
O	-0.484947	2.307179	-0.076874
C	-0.482181	-1.149374	0.855726
H	-1.576569	-1.04623	0.842728
H	-0.162991	-2.086227	0.393964
H	-0.072492	-1.082061	1.861926
C	-0.247198	-1.204263	-2.131607
N	0.0241	-2.165894	-2.752272
F	-2.844744	0.0	0.0
