13

C	0.0	0.0	0.0
C	-0.47939	-0.382889	-1.388936
Br	1.924881	0.0	0.0
H	0.044141	-1.298522	-1.686697
H	-0.32372	-0.76648	0.719891
H	-1.546882	-0.604428	-1.266385
N	-0.637441	1.230163	0.488803
O	-0.444807	1.496792	1.700895
O	-1.789811	1.403944	-0.116641
N	-0.206058	0.670865	-2.369729
H	-0.843592	1.421255	-2.113004
H	-0.507618	0.325977	-3.276651
H	-2.864721	0.0	0.0
