13

C	0.0	0.0	0.0
C	-0.345281	0.039907	-1.491855
Br	1.93275	0.0	0.0
H	0.20464	0.865576	-1.956674
H	-0.372374	-0.878739	0.504988
H	-1.415817	0.226717	-1.523756
N	-0.448794	1.201777	0.753277
O	-0.500127	2.266475	0.125759
O	-0.486379	1.107351	1.984237
N	-0.046318	-1.272001	-2.073993
H	-0.711434	-1.461244	-2.810462
H	0.884012	-1.280936	-2.468307
H	-2.481057	0.0	0.0
