13

C	0.0	0.0	0.0
C	-0.659814	0.12892	-1.344899
Br	1.933198	0.0	0.0
H	-1.708163	0.361833	-1.061354
H	-0.34145	-0.892088	0.517505
H	-0.218606	0.946976	-1.920037
N	-0.358429	1.157995	0.896977
O	-0.43386	2.2659	0.373112
O	-0.480336	0.920559	2.093472
N	-0.611207	-1.165475	-2.01868
H	-1.566334	-1.500332	-2.091916
H	-0.224972	-1.07176	-2.946457
H	-3.205	0.0	0.0
