13

C	0.0	0.0	0.0
C	-0.31706	-0.008267	-1.529545
Br	1.932671	0.0	0.0
H	-1.398274	0.000979	-1.619691
H	-0.30516	-0.901385	0.515399
H	0.050479	-0.970186	-1.903746
N	-0.585167	1.123851	0.749532
O	-0.61067	2.234856	0.164033
O	-0.5866	1.015951	1.99354
N	0.225184	1.057655	-2.360872
H	-0.087279	1.92394	-1.936865
H	1.235471	1.056238	-2.294964
H	-2.205347	0.0	0.0
