13

C	0.0	0.0	0.0
C	-0.495151	0.505636	-1.376102
Br	1.933187	0.0	0.0
H	0.36274	0.840979	-1.971506
H	-0.345575	-0.993324	0.259289
H	-1.12123	1.374024	-1.174638
N	-0.390412	0.883189	1.157919
O	-0.398911	2.095042	0.968955
O	-0.536689	0.327365	2.241223
N	-1.288179	-0.451522	-2.125568
H	-2.103208	-0.565686	-1.498414
H	-0.781501	-1.332868	-2.159955
H	-2.700725	0.0	0.0
