18

C	-0.319191	-0.027268	-1.508699
C	0.0	0.0	0.0
Cl	0.024631	1.616476	-2.200538
H	1.095855	0.0	0.0
C	0.663541	-0.980656	-2.177442
H	0.416357	-2.005395	-1.87772
H	1.663275	-0.737821	-1.801681
H	0.604281	-0.905205	-3.266377
N	-1.730534	-0.268265	-1.761644
H	-1.868784	-0.370122	-2.761103
H	-1.975486	-1.152793	-1.324382
C	-0.464569	-1.260164	0.556675
N	-0.870838	-2.275667	0.993376
C	-0.573847	1.179604	0.777635
H	-0.020757	2.079939	0.515921
H	-0.443728	1.010235	1.848428
H	-1.634688	1.330913	0.564714
F	2.621383	0.0	0.0
