18

C	-0.1001	0.007814	-1.530915
C	0.0	0.0	0.0
Cl	-1.837394	-0.102132	-2.093492
H	1.099073	0.0	0.0
C	0.523815	1.276635	-2.077393
H	1.526123	1.316827	-1.637837
H	0.584853	1.201389	-3.163141
H	-0.045401	2.166328	-1.80461
N	0.632328	-1.116273	-2.087823
H	0.21499	-1.97226	-1.732421
H	1.553748	-1.029925	-1.637161
C	-0.500724	-1.249101	0.542633
N	-0.910337	-2.253615	0.998464
C	-0.559253	1.200468	0.7495
H	-1.631379	1.336213	0.57228
H	-0.026965	2.104531	0.449414
H	-0.396538	1.070611	1.822619
F	2.631511	0.0	0.0
