18

C	-0.315766	-0.087005	-1.501579
C	0.0	0.0	0.0
Cl	0.204102	1.548886	-2.252169
H	1.103374	0.0	0.0
C	0.602503	-1.116809	-2.131872
H	0.289613	-2.110015	-1.797723
H	0.558105	-1.074194	-3.223839
H	1.611542	-0.906601	-1.762439
N	-1.690902	-0.332039	-1.785329
H	-1.842601	-0.352319	-2.787515
H	-2.266803	0.403622	-1.391843
C	-0.444935	-1.234685	0.629302
N	-0.785763	-2.21504	1.18342
C	-0.548236	1.204421	0.7581
H	-0.102148	2.117411	0.36438
H	-1.642151	1.287723	0.714647
H	-0.262334	1.117284	1.809026
F	2.611404	0.0	0.0
