18

C	-0.336416	0.008741	-1.496967
C	0.0	0.0	0.0
Cl	0.208735	1.675512	-2.158198
H	1.098697	0.0	0.0
C	0.551136	-1.001077	-2.199881
H	0.492566	-0.894738	-3.286749
H	0.22217	-2.005414	-1.918447
H	1.569145	-0.830928	-1.834777
N	-1.721668	-0.189258	-1.770315
H	-2.274508	0.526864	-1.313482
H	-1.893317	-0.132955	-2.767578
C	-0.448888	-1.268314	0.557798
N	-0.800783	-2.274452	1.055979
C	-0.535839	1.15598	0.839506
H	-0.199717	1.021721	1.870664
H	-1.631989	1.219215	0.849601
H	-0.123029	2.095794	0.473685
F	2.610877	0.0	0.0
