18

C	-0.335228	-0.049418	-1.514505
C	0.0	0.0	0.0
Cl	0.022794	1.590588	-2.196879
H	1.099601	0.0	0.0
C	0.620013	-1.033153	-2.166731
H	0.354227	-2.049483	-1.85625
H	0.552217	-0.96585	-3.253899
H	1.622576	-0.807991	-1.790847
N	-1.714518	-0.333975	-1.8851
H	-2.324217	0.317035	-1.404677
H	-1.931592	-1.261901	-1.54024
C	-0.475407	-1.246727	0.573263
N	-0.890732	-2.254494	1.018432
C	-0.542991	1.189788	0.78379
H	-0.375962	1.026379	1.849424
H	9.8e-05	2.087012	0.495447
H	-1.615776	1.35672	0.631489
F	2.615417	0.0	0.0
