18

C	-0.310442	-0.031731	-1.51187
C	0.0	0.0	0.0
Cl	0.009693	1.61915	-2.197259
H	1.09576	0.0	0.0
C	0.694341	-0.969322	-2.173079
H	0.641218	-0.896582	-3.263479
H	1.688507	-0.712482	-1.787351
H	0.461197	-1.997101	-1.87416
N	-1.716642	-0.296504	-1.776399
H	-1.942278	-1.193762	-1.356766
H	-1.848887	-0.383206	-2.779632
C	-0.464176	-1.260625	0.555686
N	-0.867252	-2.28064	0.984197
C	-0.582259	1.181561	0.768943
H	-1.632944	1.3502	0.516765
H	-0.007053	2.075874	0.53171
H	-0.495979	1.002522	1.84343
F	2.627837	0.0	0.0
