16

C	0.0	0.0	0.0
C	-0.61332	-0.241539	-1.40175
Cl	1.756031	0.0	0.0
H	-1.5362	0.340562	-1.390648
N	-0.379034	1.415371	0.50146
O	-0.67727	2.24801	-0.339732
O	-0.26132	1.600904	1.70634
C	-0.432291	-0.95759	1.014927
N	-0.63722	-1.776002	1.832818
N	-0.873848	-1.672171	-1.53102
H	-1.693245	-1.861836	-0.952333
H	-1.188993	-1.813378	-2.486585
N	0.260574	0.266397	-2.430696
H	0.881815	-0.470551	-2.742535
H	-0.295777	0.593672	-3.207869
Br	-3.629134	0.0	0.0
