17
Coordinates from ORCA-job run
  C   -0.40504513882238     -0.64186213292761      0.10260927037704
  C   0.88044810700499      0.15806028051508     -0.19406800327637
  Br  0.12922953672798     -1.88578880251240      1.70392508257061
  H   1.64938787555648     -0.58424094758503     -0.46225753267515
  C   -1.55339201807687      0.19488290968272      0.61970170874575
  H   -1.85934815836393      0.87556271614886     -0.17978609245917
  H   -1.25796928927812      0.76780589890543      1.49509086935768
  H   -2.40382299337542     -0.44076164523663      0.87479329389624
  N   -0.78446362963805     -1.40945286428514     -0.99942008725147
  H   -1.55827196794087     -2.02791323877015     -0.79973148305115
  H   -0.01951681501194     -1.91897921037171     -1.42004306348012
  N   1.24185841643364      0.97341221903726      0.96037918840669
  H   1.42722671607636      0.38651721004782      1.76565107117147
  H   2.09165803819608      1.48045451673895      0.74215524878107
  N   0.66728596127785      0.98641549774670     -1.36563236118143
  H   0.19620506429062      1.83683784432715     -1.07679406661251
  H   1.55953029494357      1.24804974853869     -1.76657304331920
