17
Coordinates from ORCA-job run
  C   -0.48579293885837     -0.49696195333349      0.28806411768763
  C   0.67539752909171      0.51287796667055      0.31394507763132
  Br  -0.30564328151418     -1.54730707505935      2.04236020779605
  H   0.67455995204218      0.99109028918822      1.29651150337043
  C   -1.85802708167685      0.14093140606819      0.34306382440360
  H   -1.91986472454377      0.84128682134156      1.17630227899576
  H   -2.62732813416892     -0.62275787034347      0.47611818306266
  H   -2.03795039400290      0.68594516399862     -0.58367517337184
  N   -0.32992236154799     -1.32813647876005     -0.83928546895079
  H   0.56551112671536     -1.80154513249836     -0.79247366601453
  H   -1.08247693615280     -1.99783553309688     -0.93042335093109
  N   0.38772235575156      1.52589651959054     -0.68666688438165
  H   0.31775961250840      1.07724759142035     -1.59432360256707
  H   1.14020615983007      2.20372951765297     -0.71732393203531
  N   1.93772225213850     -0.21472613431025      0.12873131268776
  H   2.33878681937392      0.01962037391595     -0.76964336127121
  H   2.60734004501409      0.00964452755489      0.85071893388825
