17
Coordinates from ORCA-job run
  C   -0.38526695934628     -0.54125105678627      0.37250503467547
  C   0.67880818661850      0.57026917177818      0.33655543034438
  Br  -0.09693808463839     -1.68011293390605      1.94453996379819
  H   0.48821895791107      1.24858160664844      1.17512292002444
  C   -1.79029352589875      0.03058388966102      0.48649561488663
  H   -1.97265611518423      0.67906673548615     -0.37239474077189
  H   -1.90490056609545      0.61662878147016      1.40113921426672
  H   -2.52363522925782     -0.77809916129383      0.50157217580102
  N   -0.17691448212577     -1.37385637443413     -0.81190449544762
  H   -0.60810064374291     -2.28079676027433     -0.67846550233253
  H   -0.64995461131288     -0.92052415291452     -1.58855073178963
  N   0.42430995062188      1.32086382572671     -0.90506228239591
  H   0.95331057930820      0.88476574672304     -1.65230902412475
  H   0.76320060834540      2.27028236865613     -0.80820707560910
  N   2.00147438439036      0.00535150987465      0.48797089273452
  H   2.70138693970218      0.70883603780444      0.28631984020949
  H   2.09695061070488     -0.75758923421981     -0.17432723426942
