17
Coordinates from ORCA-job run
  C   -0.49763962477239     -0.48047219180789      0.13732201292124
  C   0.61372843199781      0.42677046007225     -0.40171278761930
  Br  -0.08500299847989     -0.65817510538963      2.20087429522996
  H   0.37640985264531      0.53111619118301     -1.46753222272652
  C   -1.87819926121932      0.13150368255847      0.08443016603870
  H   -1.91189861501771      1.06932049927742      0.63132158923600
  H   -2.12206772415028      0.31965136295416     -0.96568636924944
  H   -2.61641614197691     -0.55892636047423      0.49802180526042
  N   -0.43571879317830     -1.71607783262721     -0.49940686095730
  H   -1.09667840578156     -2.39224126236145     -0.14450013747512
  H   0.51112171002020     -2.07232317605059     -0.53100091276415
  N   1.88071997585319     -0.29677366716827     -0.32979811137222
  H   2.21128126878748     -0.29784103577979      0.62921552125819
  H   2.57526562538622      0.16121317381169     -0.90697810084906
  N   0.52758319315122      1.75039757889579      0.18369985519293
  H   0.77362693913301      1.70890910101830      1.16644318957127
  H   1.17488456760193      2.37394858188790     -0.28271293169563
