17
Coordinates from ORCA-job run
  C   -0.52055293600050     -0.47641331352882      0.32755656510483
  C   0.57905941346307      0.42581480688030     -0.26997198754500
  Br  -0.25469917935955     -0.52792655297379      2.28977390521995
  H   0.28520208557041      0.53929176738359     -1.32593005578698
  C   -1.90617338032447      0.06809492009011      0.04991521901943
  H   -2.01970101681616      1.06797204926057      0.46300956102523
  H   -2.05738064710611      0.12422594433326     -1.03479656554399
  H   -2.65393613534102     -0.60302430000484      0.47209241732722
  N   -0.43007812938713     -1.84431407799712     -0.11626041993575
  H   0.52021571588704     -2.17281158292364      0.01544661929371
  H   -0.67831359350665     -1.90013795566248     -1.09909844537012
  N   1.87774393232935     -0.25970550800271     -0.17156285795043
  H   2.59527441487378      0.41056478133192      0.06930596584662
  H   2.13225634873540     -0.67549772174175     -1.05857772815651
  N   0.54187948122419      1.74557906683075      0.31005337968352
  H   1.15000605113978      2.37545274535116     -0.19871222223536
  H   0.84019757461861      1.70383493137348      1.27775665000361
