17
Coordinates from ORCA-job run
  C   -0.38086397358241     -0.68769763649073      0.13261936538267
  C   0.95851744518729      0.05175928074258     -0.10107819279797
  Br  0.05297718103868     -2.16433509688087      1.48084664529058
  H   1.75069968709115     -0.70129554799533     -0.12241388917829
  C   -1.44343627234192      0.15811919528239      0.81060712014570
  H   -2.36210756036917     -0.42038889639367      0.92671613812641
  H   -1.11099619391453      0.48703183460959      1.79238735028744
  H   -1.67170248851240      1.02520159861987      0.18114376937069
  N   -0.87700333797385     -1.21216621321093     -1.08058373448552
  H   -0.15994672058904     -1.65958222249441     -1.63573948594088
  H   -1.65369178500698     -1.84255197503984     -0.93084334105695
  N   1.24005947300814      0.91121530299059      1.03904013011993
  H   0.74288062841753      1.78943492536912      0.94608913504209
  H   2.23016825500248      1.11505703858450      1.08564860030600
  N   0.93019427273859      0.66792350115718     -1.42751643520222
  H   1.69581113405417      1.32702948124168     -1.50533470644401
  H   0.05844025575225      1.15724542990825     -1.58858846896566
