17
Coordinates from ORCA-job run
  C   -0.45927510841279     -0.54113557332892      0.31926339277483
  C   0.65547237223526      0.33518407564062     -0.28848014713615
  Br  -0.02686653199649     -0.83792971581245      2.23573101500217
  H   0.39642231936393      0.36510295232886     -1.36251952709488
  C   -1.81673348678675      0.13317380500099      0.26232546635847
  H   -2.58005690197608     -0.56350216327996      0.61059298737440
  H   -2.04325318920465      0.41401831972045     -0.77410465113600
  H   -1.84899583707761      1.02263415274510      0.89032412964101
  N   -0.52862009048348     -1.83311450779384     -0.30432394364914
  H   0.41697461315917     -2.14955681535356     -0.49356520043187
  H   -1.03870531883288     -1.76376591814189     -1.17818222105023
  N   1.91965108954441     -0.36056865967256     -0.19842744840314
  H   2.27026483614545     -0.27878732677585      0.74991041006018
  H   2.59687378889371      0.04511311315098     -0.83224259338637
  N   0.70494403321760      1.65746406451309      0.32211618245539
  H   -0.12282262530255      2.19480265570017      0.09099384446634
  H   1.50372603751375      2.15986754135876     -0.04741169584499
