17
Coordinates from ORCA-job run
  C   -0.49809326722692     -0.48071130424901      0.13510470470963
  C   0.62034360205721      0.42231438114572     -0.39664835524341
  Br  -0.13057106408677     -0.61669844435637      2.21095907484563
  H   0.40553885181386      0.50511135240766     -1.46912022913245
  C   -1.88018551734709      0.12282568803619      0.04027812924199
  H   -1.92994885518102      1.07083488174839      0.56801918931634
  H   -2.10226908663219      0.28898208963755     -1.01834177223424
  H   -2.62375533726927     -0.56335451303613      0.45136304294643
  N   -0.41566732685458     -1.72798378157553     -0.47554161216054
  H   -1.08014353462766     -2.40166722147247     -0.12259306899496
  H   0.53367996509977     -2.07889106473536     -0.48058506343717
  N   1.88904745002088     -0.29238320542580     -0.28279844681630
  H   2.19751820457848     -0.27342344095285      0.68341411344469
  H   2.59410969777005      0.15894585473793     -0.85244321297565
  N   0.51439199183580      1.75621904953610      0.16152228060210
  H   1.16770183082530      2.37521377083160     -0.30252148423832
  H   0.73930239522418      1.73466590772237      1.14993271012624
