17
Coordinates from ORCA-job run
  C   -0.46834769834321     -0.51567879758124      0.17762777641054
  C   0.66769341958436      0.38662034868896     -0.32852319990760
  Br  -0.07009963416365     -0.95565489979887      2.13698368840690
  H   0.44501887280376      0.49727231404005     -1.40188258909740
  C   -1.81705286720667      0.17471292351897      0.18804052536930
  H   -2.03848956374366      0.52912575494928     -0.82410866154943
  H   -1.82976269373452      1.00663419459720      0.89077892661496
  H   -2.59965700286308     -0.52640667686588      0.48453232576251
  N   -0.49008540961751     -1.67509698774881     -0.62490510006770
  H   0.43896048887594     -2.07765941456002     -0.67182093815313
  H   -1.15757967118156     -2.35759258309526     -0.29101055379088
  N   1.92024285513717     -0.33063878201961     -0.24045978798132
  H   2.62019760330339      0.09822752767796     -0.83258392686233
  H   2.24258687940076     -0.31073102588777      0.72111122909781
  N   0.69632845920542      1.65892968722385      0.38373935988320
  H   1.53503761327319      2.15946717286180      0.11412405584415
  H   -0.09399165073013      2.23546924399941      0.11735687002041
