17
Coordinates from ORCA-job run
  C   -0.31207478996667     -0.48773164495261      0.42182126635447
  C   0.73719275308464      0.60700725476389      0.11640113289757
  Br  0.12503264116044     -1.24877766746074      2.19532956177458
  H   0.70086146269904      1.34526356041146      0.92918630417140
  C   -1.72124977784639      0.07913149452421      0.52603128989174
  H   -1.77612670599617      0.88865822994205      1.25886999962682
  H   -2.02330989353473      0.45476027336090     -0.45552048514300
  H   -2.42688935761081     -0.69871149089662      0.82531488129855
  N   -0.14357084982296     -1.53243088126988     -0.55755071542542
  H   -0.84107553007494     -2.25743680495097     -0.44008292790446
  H   -0.25317293916962     -1.09579370140034     -1.46913874910485
  N   0.37787048081459      1.16478603766935     -1.19145744149127
  H   1.22540714143383      1.56578816221280     -1.57499839691371
  H   -0.30536319017096      1.90576429966672     -1.09255408594813
  N   2.09473225094065      0.11912674295661      0.00915491262178
  H   2.47866325169250     -0.01552492082025      0.93522250415595
  H   2.06107305236753     -0.79287894375657     -0.43702905086207
