17
Coordinates from ORCA-job run
  C   -0.41020401227544     -0.74312704927751      0.26152626822886
  C   0.88587502054060      0.02081223066490     -0.10350670309972
  Br  0.01096520653299     -1.98381551642172      1.72142564839640
  H   1.63107462272331     -0.74074000615695     -0.35453427461181
  C   -1.51473743531847      0.19012674560723      0.72692102017051
  H   -1.22200113264557      0.76038018016421      1.60972143721124
  H   -2.39736471587596     -0.40148323513794      0.96695664940562
  H   -1.78315034605914      0.87409002606824     -0.08540606378259
  N   -0.90867824031059     -1.55242391956364     -0.83638838903152
  H   -0.27008805867455     -2.32315067304627     -1.00315687844987
  H   -0.88084317742037     -0.95569277307423     -1.65960642650767
  N   1.40061054106435      0.77905676073532      1.02040294106483
  H   2.34655338102495      1.08700637896761      0.83235638884074
  H   0.83360240910283      1.60201922413327      1.18681568160612
  N   0.60846234373913      0.76639956549024     -1.34214040372486
  H   1.47776920244972      0.95846726647160     -1.82553731378103
  H   0.19115439140218      1.66207479437565     -1.11384958193528
