17
Coordinates from ORCA-job run
  C   -0.42892748369805     -0.45962359952627      0.25010121000707
  C   0.77073283826131      0.50998106550236      0.22383413452834
  Br  -0.20215858501231     -1.51565486392542      2.03085226660637
  H   0.74935269633277      1.08690478257926      1.15858840308227
  C   -1.76853137442441      0.22954044744861      0.39844269175414
  H   -1.97878766739158      0.79879441652026     -0.51003100346222
  H   -1.76874418896105      0.89694467810469      1.26160473113537
  H   -2.56558574268058     -0.50306975777324      0.53785933011172
  N   -0.37792209878476     -1.28844841995669     -0.87452315318487
  H   0.54708651803697     -1.68716267697724     -0.98674855161824
  H   -1.10338879189725     -1.99131406690137     -0.89814754097415
  N   0.70861122635462      1.45157409809606     -0.87836914911051
  H   0.46888086519985      0.94989920150258     -1.72633811339057
  H   0.00610800804001      2.15890033607403     -0.70844571333407
  N   1.98631769154504     -0.26740798357630      0.03647510764579
  H   2.23166593521905     -0.74754657322118      0.89356017275998
  H   2.72629015386038      0.37868891602986     -0.20771482255642
