17
Coordinates from ORCA-job run
  C   -0.47627890856361     -0.48105264285132      0.25502266327425
  C   0.66357408832471      0.54718632877838      0.21507249858902
  Br  -0.15493210410081     -1.53716868949981      2.03177261422307
  H   0.62480275602669      1.12337164928650      1.14834616134088
  C   -1.84522711515425      0.13601524590590      0.42900522669370
  H   -2.06592289505201      0.73498284003772     -0.45458384172543
  H   -2.60214081268431     -0.64184302544796      0.55015365501320
  H   -1.86808560135558      0.77586667339120      1.31143361764745
  N   -0.39313151337347     -1.30451615436934     -0.86902124921386
  H   0.54187879900354     -1.67370734193172     -0.99044626793382
  H   -1.09852337619546     -2.02701942318554     -0.89977594224078
  N   0.38585205981940      1.46029167455339     -0.87296805707787
  H   1.02268807831731      2.24718443293239     -0.84708769110826
  H   0.50153741166368      0.96740939775077     -1.75094229529543
  N   1.92975556370375     -0.16805220302052      0.02842624535679
  H   2.17355257050345     -0.66235555921948      0.88015568806870
  H   2.66260099911699      0.50440679688943     -0.16356302561162
