17
Coordinates from ORCA-job run
  C   -0.34110527543342     -0.45005299347538      0.29939020815663
  C   0.75523802203857      0.47462171128754     -0.27773880030502
  Br  -0.21605922272050     -0.48917502726324      2.25852583005668
  H   0.59059026090094      0.40719039389873     -1.37316620776941
  C   -1.73970529951288      0.04044102722114     -0.05063427163921
  H   -1.83370418385010      0.11387936476183     -1.14055583017712
  H   -1.95633012801556      1.01448338779572      0.38923192967956
  H   -2.48677196133358     -0.66703852690048      0.31405574480373
  N   -0.05846751652073     -1.80273198851919     -0.16601906444479
  H   -0.23889279089321     -1.83884406646742     -1.16631887462492
  H   -0.68293982359246     -2.46357154504663      0.28301084131606
  N   2.05185238710357      0.00818467850791      0.14702887140673
  H   2.76577819762570      0.48895258758748     -0.38434505361004
  H   2.11894909208541     -0.99159170610008      0.00650690257845
  N   0.68160595946992      1.87749305226007      0.05592828771973
  H   0.77212164078066      1.98045392011367      1.06021989003435
  H   -0.18415935813231      2.29730573033836     -0.25512040318145
