17
Coordinates from ORCA-job run
  C   -0.41684014943581     -0.49003361461218      0.12919692091663
  C   0.69551376669180      0.43039686394544     -0.41138056406226
  Br  -0.03637167284319     -0.65689680956082      2.19110191249690
  H   0.45932605788930      0.52283246495673     -1.47910992708378
  C   -1.80319553893732      0.11221062522689      0.06172371561414
  H   -1.87103278476913      1.02998473830904      0.64287943423206
  H   -2.54386114555179     -0.58881349474815      0.45121977453404
  H   -2.03867905570484      0.31893079325204     -0.98724882543863
  N   -0.35042156530930     -1.72180495065463     -0.51544343899247
  H   -1.00554984693153     -2.40860893392803     -0.17000327494529
  H   0.59886828053948     -2.07002871532889     -0.55755236981140
  N   1.95865727730327     -0.27809310968054     -0.31263707801357
  H   2.22978608332569     -0.31876468745586      0.66492836543074
  H   2.66132996171000      0.26847175235406     -0.79658137032964
  N   0.75203175064173      1.77632000068438      0.12652224875639
  H   0.75163260624340      1.74742898935988      1.14036933962736
  H   -0.04119402486172      2.32646808788062     -0.17898486293125
