17
Coordinates from ORCA-job run
  C   -0.47017396326614     -0.51117735238852      0.17733805601507
  C   0.67596971290925      0.38324727279944     -0.31963469875898
  Br  -0.11546507976565     -0.91409083312631      2.15359590695330
  H   0.47370347567353      0.47879967572590     -1.39867353967392
  C   -1.82194176938910      0.17324770033831      0.14366046374441
  H   -1.85978107185230      1.01388510653568      0.83520000880978
  H   -2.60815017596390     -0.52841428521711      0.42923807795122
  H   -2.01914919138760      0.51323866149208     -0.87835703091618
  N   -0.47042136040054     -1.68531237031045     -0.60319676096355
  H   -1.14306417497486     -2.36394004169224     -0.27190568417452
  H   0.46103483409278     -2.08455719206717     -0.62291152106928
  N   1.92639906409850     -0.33395252655948     -0.19783947545236
  H   2.63435647010314      0.08022931525457     -0.79092612213606
  H   2.23565676585514     -0.28704467696710      0.76716781658178
  N   0.69795366149039      1.66413952173674      0.37587094097031
  H   -0.11306954725341      2.22008971651513      0.12859246120721
  H   1.51614235003078      2.17961230793057      0.07278110091180
