17
Coordinates from ORCA-job run
  C   -0.43814421771168     -0.47695386453991      0.10367472119666
  C   0.73141109232768      0.40892196789523     -0.36953140174219
  Br  -0.18622967226409     -0.65003779264388      2.18601432529574
  H   0.56220873499127      0.50666463766056     -1.44943064334155
  C   -1.79958514593714      0.16582017170696     -0.04563421277376
  H   -1.87404852748396      1.08646460402600      0.53010404261278
  H   -2.58242877602375     -0.51197054667695      0.29999577799900
  H   -1.96678702173390      0.37720223882717     -1.10674394480713
  N   -0.36977113634433     -1.71143475727054     -0.53450719129996
  H   -1.06541103122110     -2.37765013274211     -0.23065124037570
  H   0.56946264184576     -2.08788883473943     -0.52051625613819
  N   1.96462522933510     -0.33686359721307     -0.19573218452327
  H   2.71107042530085      0.18798365658689     -0.63622697775531
  H   2.17509333956959     -0.38454068121627      0.79635309237351
  N   0.79597381017763      1.75342946024675      0.17104992304249
  H   0.73415209466449      1.72612589145640      1.18304768967288
  H   0.03940816050752      2.32672757863626     -0.18126551943605
