17
Coordinates from ORCA-job run
  C   -0.44408689252540     -0.42924990636787      0.50549435790261
  C   0.84865908422097      0.37592558556383      0.20908223409352
  Br  -0.88854205908236     -0.04871344245115      2.40714000110584
  H   1.58113395746278      0.08462519171908      0.97884700442795
  C   -1.62162411054393     -0.01006360171019     -0.35058306894934
  H   -1.90581104119882      1.02457978936463     -0.16254466598076
  H   -2.47628823477320     -0.64851879517726     -0.12538657673691
  H   -1.34563597269835     -0.11687567429787     -1.40266178687455
  N   -0.27021760982977     -1.85544096538683      0.40541015229659
  H   -0.26838042987710     -2.13451324415703     -0.56859425876226
  H   0.58345640419601     -2.16248093394596      0.85776744545021
  N   0.74925956475233      1.81788672472336      0.24440468559411
  H   0.06276639541634      2.12607195798397     -0.43470930454029
  H   0.45876342008215      2.12799977663775      1.16274467703614
  N   1.26619291838119      0.03111908594080     -1.14776645031150
  H   1.97450643117939      0.70438183292565     -1.41763633576381
  H   1.69384817483777     -0.88573338136492     -1.16200810998754
