17
Coordinates from ORCA-job run
  C   -0.43605148664290     -0.45490515622080      0.24428030189390
  C   0.77508100185448      0.50033980202362      0.23058939591256
  Br  -0.23435112580384     -1.51845292150195      2.02680401153408
  H   0.75419859049015      1.07348184936226      1.16769290767858
  C   -1.76883253858651      0.24841227206722      0.38627835415398
  H   -1.76699802601367      0.91293831512371      1.25160336682609
  H   -1.96709497270405      0.82294602140531     -0.52164293392909
  H   -2.57477486808216     -0.47573856225441      0.51839060680135
  N   -0.38607101013635     -1.28173147308581     -0.88050565470997
  H   0.53482041957879     -1.69052869137992     -0.98910205681013
  H   -1.12090719394599     -1.97416501159060     -0.91490918067120
  N   0.73182829839758      1.44742349678625     -0.86775562035578
  H   0.49597920102478      0.95173366980132     -1.72030786308805
  H   0.03397681502739      2.16018706545275     -0.70140573762589
  N   1.98247115619460     -0.29052701354457      0.04852777849129
  H   2.73287633438198      0.34772444980874     -0.18428742003063
  H   2.21384940496573     -0.77913811225310      0.90474974392892
