17
Coordinates from ORCA-job run
  C   -0.27275457433094     -0.63807748392589      0.07967908796809
  C   1.03481576015061      0.18030969677541     -0.11048251255533
  Br  0.10576700331916     -1.91500562227262      1.63636826646166
  H   1.83494592259524     -0.56008392164007     -0.25258044619528
  C   -1.47592864402479      0.18185225278836      0.49963774963793
  H   -1.66904121705132      0.94912150490667     -0.25383295841671
  H   -1.31968535331031      0.65275867653517      1.46921222019123
  H   -2.35952012370458     -0.45409413756937      0.58384608625871
  N   -0.54763445625664     -1.34639374896465     -1.11278739483570
  H   0.23110887762228     -1.92874637448778     -1.39749873962395
  H   -1.38267257708598     -1.91385249573612     -1.04382513708273
  N   1.43481688141017      1.00796548464704      1.00401159457918
  H   0.65732572481123      1.56813351263415      1.33306804188702
  H   1.75943381352798      0.43507799117264      1.77155938846462
  N   0.92156994491311      1.01518142270817     -1.29569723910055
  H   0.12213917264596      0.77254246452997     -1.86197913999304
  H   0.92731384476882      1.99331077789889     -1.04869886764516
