17
Coordinates from ORCA-job run
  C   -0.30563375915579     -0.40862845779690      0.50214673429949
  C   0.92807746673553      0.51797798869621      0.30251601008115
  Br  -0.93871033857205     -0.14957771649703      2.35400180950654
  H   1.61049896140717      0.26290344197828      1.11888532775031
  C   -1.47167490080985     -0.08823329558074     -0.42137870620535
  H   -1.16024564321388     -0.22295003977220     -1.46352544170783
  H   -1.82804848149587      0.93407219235284     -0.29298112728661
  H   -2.30291074112818     -0.76937303729025     -0.23094581854000
  N   0.15836344854006     -1.79001671159836      0.42437860418106
  H   -0.50352444837078     -2.40589362758194      0.88234973364070
  H   0.19077457044204     -2.06022158351364     -0.55382522130811
  N   0.65302981465210      1.93963894097198      0.35231537008153
  H   0.24740405896458      2.25838672139846     -0.51861050271226
  H   0.01859018891479      2.15751518855045      1.11002060453996
  N   1.62895883686363      0.22932494490747     -0.93434208282349
  H   2.05640418732810     -0.68511338864487     -0.89006875477097
  H   1.01964677889838      0.27918843942027     -1.74193653872613
