13

C	-0.428976	0.050351	-1.462551
C	0.0	0.0	0.0
F	-1.775719	0.358022	-1.58825
H	1.102279	0.0	0.0
H	0.145418	0.822411	-1.982544
C	-0.198586	-1.249337	-2.11009
N	-0.045383	-2.281615	-2.644904
N	-0.551755	-1.194011	0.655897
H	-0.770994	-0.981392	1.620592
H	0.189116	-1.888623	0.673652
C	-0.461753	1.220752	0.659141
N	-0.855992	2.180236	1.208332
Br	3.417443	0.0	0.0
