13

C	-0.520446	-0.077705	-1.435497
C	0.0	0.0	0.0
F	0.073189	-1.136375	-2.082983
H	1.094471	0.0	0.0
H	-1.598452	-0.273423	-1.410828
C	-0.286915	1.153364	-2.207808
N	-0.163921	2.130082	-2.846046
N	-0.427843	-1.204524	0.712654
H	-1.186111	-1.005535	1.353946
H	0.364076	-1.552929	1.238943
C	-0.493262	1.228411	0.632449
N	-0.954811	2.153656	1.191987
Br	3.413777	0.0	0.0
