13

C	-0.451322	0.009712	-1.450133
C	0.0	0.0	0.0
F	-1.838724	0.147066	-1.520049
H	1.102256	0.0	0.0
H	-0.006716	0.857655	-1.978756
C	-0.09427	-1.24112	-2.134304
N	0.132978	-2.21303	-2.750519
N	-0.457658	-1.203291	0.674178
H	-1.369549	-1.073916	1.091431
H	0.211003	-1.451576	1.39175
C	-0.455659	1.24714	0.636408
N	-0.852018	2.228026	1.147618
Br	3.40418	0.0	0.0
