13

C	-0.526073	-0.000321	-1.430682
C	0.0	0.0	0.0
F	-0.070946	-1.141613	-2.06799
H	1.101121	0.0	0.0
H	-1.619462	-0.056531	-1.408529
C	-0.118409	1.182354	-2.202937
N	0.128356	2.129895	-2.84976
N	-0.533499	-1.211938	0.649985
H	-0.236931	-1.181135	1.620665
H	-0.018057	-1.984805	0.238195
C	-0.510202	1.188501	0.681813
N	-0.945413	2.128616	1.234807
Br	3.444922	0.0	0.0
