13

C	-0.451543	0.010345	-1.450053
C	0.0	0.0	0.0
F	-1.83811	0.151185	-1.519837
H	1.095297	0.0	0.0
H	-0.004417	0.856903	-1.978753
C	-0.096995	-1.241033	-2.134545
N	0.130837	-2.210965	-2.7537
N	-0.459572	-1.20334	0.674104
H	-1.367794	-1.069164	1.097813
H	0.211768	-1.453713	1.388582
C	-0.456956	1.24486	0.6402
N	-0.859215	2.205537	1.184045
Br	3.404156	0.0	0.0
