13

C	-0.452702	0.134026	-1.442682
C	0.0	0.0	0.0
F	-1.839779	0.279204	-1.498995
H	1.102213	0.0	0.0
H	-0.007683	1.023885	-1.896145
C	-0.099983	-1.052324	-2.23511
N	0.115067	-1.970035	-2.932845
N	-0.459514	-1.2544	0.570915
H	-1.367443	-1.158051	1.003731
H	0.210561	-1.568901	1.259334
C	-0.455034	1.186748	0.743508
N	-0.857011	2.096413	1.368613
Br	3.404574	0.0	0.0
