13

C	-0.527976	-0.003894	-1.429863
C	0.0	0.0	0.0
F	-0.069178	-1.143906	-2.067133
H	1.101257	0.0	0.0
H	-1.620939	-0.065174	-1.405005
C	-0.127019	1.179508	-2.20381
N	0.121297	2.126535	-2.850785
N	-0.532436	-1.211091	0.652967
H	-0.234052	-1.178817	1.622986
H	-0.017437	-1.984743	0.241695
C	-0.510541	1.189408	0.680072
N	-0.945127	2.131731	1.229935
Br	3.444468	0.0	0.0
