13

C	-0.385252	0.003489	-1.489309
C	0.0	0.0	0.0
F	-0.084886	1.212102	-2.077165
H	1.095418	0.0	0.0
H	0.200125	-0.774414	-1.987736
C	-1.823304	-0.266686	-1.673078
N	-2.966576	-0.509043	-1.784578
N	-0.41856	-1.196982	0.704393
H	0.225428	-1.952693	0.507509
H	-1.371377	-1.467801	0.490496
C	-0.541743	1.196216	0.6486
N	-1.022834	2.144486	1.14614
Br	3.421082	0.0	0.0
