13

C	-0.447806	-0.058828	-1.458676
C	0.0	0.0	0.0
F	-0.199161	1.134278	-2.104029
H	1.094236	0.0	0.0
H	0.126001	-0.851016	-1.943968
C	-1.889045	-0.356831	-1.562465
N	-3.035676	-0.596113	-1.638785
N	-0.410309	-1.248574	0.633121
H	-1.303203	-1.155565	1.100888
H	0.295239	-1.514943	1.308561
C	-0.516117	1.205488	0.658543
N	-0.967656	2.122007	1.238884
Br	3.417503	0.0	0.0
