18

C	-0.631984	0.013102	-1.405088
C	0.0	0.0	0.0
Br	-0.229116	1.754681	-2.325334
H	1.089163	0.0	0.0
N	-0.025923	-1.039682	-2.149116
H	0.358397	-1.743563	-1.529212
H	-0.682059	-1.45657	-2.789501
C	-2.154618	-0.071775	-1.364536
H	-2.535239	-0.086213	-2.38821
H	-2.608072	0.77201	-0.843865
H	-2.442947	-1.005584	-0.871589
N	-0.375532	-1.220327	0.669873
H	0.352155	-1.445818	1.338796
H	-1.253787	-1.10043	1.159777
N	-0.458778	1.210506	0.794808
O	-1.505555	1.085809	1.445841
O	0.219409	2.228148	0.752083
Br	3.4788	0.0	0.0
