18

C	-0.321793	0.001293	-1.50461
C	0.0	0.0	0.0
Br	-2.45171	-0.033468	-1.642345
H	1.094073	0.0	0.0
N	0.18997	1.094521	-2.1746
H	0.650352	1.782796	-1.597887
H	0.655453	0.894129	-3.044137
C	0.091058	-1.31545	-2.127349
H	1.169311	-1.426234	-1.966968
H	-0.124409	-1.297004	-3.198578
H	-0.439165	-2.158119	-1.68879
N	-0.483626	-1.078408	0.780481
H	-1.411098	-1.373458	0.509273
H	0.179647	-1.837879	0.775255
N	-0.456781	1.305559	0.611528
O	0.192989	2.313381	0.322365
O	-1.443415	1.296291	1.335595
Br	3.455318	0.0	0.0
