18

C	-0.471191	0.086992	-1.459583
C	0.0	0.0	0.0
Br	0.338467	-1.476679	-2.365513
H	1.094967	0.0	0.0
N	-1.903052	-0.108003	-1.560913
H	-2.352442	0.657096	-1.068512
H	-2.178721	-0.099936	-2.536011
C	0.105728	1.323839	-2.133179
H	-0.107116	1.306832	-3.204925
H	-0.35815	2.215627	-1.700718
H	1.187605	1.365287	-1.978787
N	-0.540632	-1.085294	0.754437
H	0.180483	-1.778428	0.899004
H	-1.332103	-1.48304	0.261515
N	-0.416325	1.280542	0.719187
O	-1.58175	1.67496	0.580678
O	0.405962	1.813897	1.451636
Br	3.543899	0.0	0.0
