18

C	-0.566966	0.012845	-1.427686
C	0.0	0.0	0.0
Br	0.130341	-1.740097	-2.229171
H	1.100973	0.0	0.0
N	-1.977989	0.017118	-1.352556
H	-2.397554	-0.091153	-2.267368
H	-2.271633	-0.745116	-0.747648
C	-0.02028	1.090014	-2.341374
H	1.068051	1.105683	-2.283627
H	-0.411139	2.060819	-2.037194
H	-0.32649	0.886134	-3.370263
N	-0.548065	-1.098706	0.761774
H	-1.047747	-0.723944	1.557391
H	0.22459	-1.660959	1.094021
N	-0.397812	1.315648	0.655707
O	0.135633	2.330506	0.226605
O	-1.222725	1.297717	1.572196
Br	3.465896	0.0	0.0
