18

C	-0.34875	-0.00393	-1.499532
C	0.0	0.0	0.0
Br	-2.330517	0.248648	-1.664997
H	1.096458	0.0	0.0
N	0.287264	1.011135	-2.294422
H	1.28562	0.801214	-2.271405
H	0.182712	1.907582	-1.833547
C	0.002852	-1.361899	-2.077529
H	-0.549101	-2.160411	-1.590133
H	1.073339	-1.524687	-1.908009
H	-0.200483	-1.34464	-3.149426
N	-0.486121	-1.130541	0.705803
H	0.066558	-1.261036	1.543394
H	-1.454151	-0.996589	0.970012
N	-0.420705	1.312344	0.664302
O	-1.147635	1.241156	1.655229
O	-0.008092	2.368773	0.187895
Br	3.437158	0.0	0.0
