14
Coordinates from ORCA-job run
  C   0.83012295924116      0.55534047906353      0.06894589478286
  C   -0.44308650387867      0.19138803169020      0.27279414361238
  H   1.14767294442682      1.48514277408065      0.53261334082062
  C   1.85398929818507     -0.18989493104541     -0.72388401427933
  H   2.24197275721404      0.44597057168625     -1.52493869849589
  H   2.70570588440653     -0.44691091581734     -0.08719863428598
  H   1.47343898292208     -1.10674583768814     -1.17152130755887
  C   -1.18011440362033     -1.00802939514633     -0.22276402266191
  H   -1.60907172112881     -1.56643582476101      0.61102651264713
  H   -0.51256614067813     -1.66428008494624     -0.77864650989420
  H   -2.00768019008281     -0.71331580445089     -0.86986485343231
  N   -1.27660248606278      1.11066408009600      1.09112613243834
  O   -0.74691062849906      2.06830433678963      1.64627301655419
  O   -2.47687075244510      0.83980252044910      1.15603899975296
