14
Coordinates from ORCA-job run
  C   0.70319947048746     -0.22493812709492     -0.59990248660006
  C   -0.48476127096300     -0.12883124232500      0.01541894165179
  H   0.72439793123227     -0.90753810544304     -1.44735645836283
  C   1.98612287033592      0.47642585754935     -0.27356334798335
  H   2.83284479138987     -0.12426607415288     -0.60967595059687
  H   2.09341588007292      0.67775603738235      0.79154359365703
  H   2.03297676197954      1.44231687176990     -0.78400962506873
  C   -1.72496885290346     -0.88975810395199     -0.32510620551611
  H   -1.99247323005379     -1.57449328818894      0.48056872341581
  H   -2.56810038370760     -0.20951470039597     -0.46939389415530
  H   -1.57073811434746     -1.45749224456434     -1.24323183768370
  N   -0.63264115852137      0.74989163269440      1.18505123454035
  O   -0.01709505751358      1.81601096407954      1.19929118502998
  O   -1.38117963748773      0.35343052264153      2.07936612767200
