14
Coordinates from ORCA-job run
  C   0.79417249474723     -0.44079460382283     -0.28180128058530
  C   -0.48117491618115     -0.14227742417945      0.00728671608696
  H   0.95528988114855     -1.45621308875733     -0.63897330997641
  C   2.00752927201186      0.43149857579616     -0.17552787342603
  H   1.93118502443570      1.15635815750634      0.63393072373939
  H   2.89462030185330     -0.18448849969841     -0.01957837639067
  H   2.14916516065151      1.00151134143535     -1.09790174056298
  C   -1.65014842393221     -1.06956269600757     -0.07503159325414
  H   -2.44927139212184     -0.63064169656896     -0.67768814392181
  H   -1.34418801858869     -2.01192552587279     -0.53044280898190
  H   -2.05972799572844     -1.26556463339324      0.91660078933756
  N   -0.82202197981248      1.19559197157660      0.51394819519289
  O   -0.20718829025336      2.16543162693408      0.07020053286311
  O   -1.72024111822998      1.25207649505202      1.35497816987933
