14
Coordinates from ORCA-job run
  C   0.89058695987421      0.34702410068745      0.29737775671844
  C   -0.43768695681076      0.17185374005917      0.29426028542963
  H   1.28979834718743      1.00884010363110      1.06091229949465
  C   1.87437888498642     -0.28111967061768     -0.63538198402171
  H   2.59707487852643     -0.87728807288892     -0.07042465284767
  H   1.41354792606679     -0.92338224518967     -1.38436102828363
  H   2.44525326564378      0.49408510221637     -1.15463684057575
  C   -1.28519815304981     -0.65745166145695     -0.61204892986771
  H   -1.97675904704140     -0.02997013184677     -1.17641855372107
  H   -0.66482462328193     -1.21700531075734     -1.31011555465329
  H   -1.88894386745045     -1.36065093057822     -0.03582326702477
  N   -1.21145927094267      0.92015488504411      1.31934737972737
  O   -0.61069111821132      1.53469345432500      2.19521134004263
  O   -2.43807722549672      0.87121663737236      1.21410174958287
