14
Coordinates from ORCA-job run
  C   0.89937609030441      0.27362790778451      0.34398410864499
  C   -0.43652231321273      0.19238291219880      0.28175967469873
  H   1.30999331358711      0.86641417697412      1.15660880722899
  C   1.87615949730317     -0.36342390046870     -0.58987979919218
  H   2.55335291577647     -1.01755997986880     -0.03302922385456
  H   1.40544862752359     -0.95069008432426     -1.37685425623147
  H   2.49789487010847      0.40393467154293     -1.06046493377015
  C   -1.30036798507821     -0.53347499833845     -0.69510213620581
  H   -1.98505938062569      0.15698015764280     -1.19042353605714
  H   -0.69161713510142     -1.02799021509902     -1.45016378706940
  H   -1.91178824838561     -1.28132717014493     -0.18773661354350
  N   -1.19939181464657      0.91386734878185      1.33486198987151
  O   -0.59270496904368      1.58883946786457      2.16068762669009
  O   -2.42377346850933      0.77941970545458      1.30475207878988
