14
Coordinates from ORCA-job run
  C   0.87637318938650      0.43684882324459      0.20914125616583
  C   -0.43487964931367      0.17552609361316      0.29505198593410
  H   1.26146469382298      1.20438149758012      0.87465004903200
  C   1.85887715257613     -0.22438240229836     -0.70177192962355
  H   1.41294179325486     -0.98040506084448     -1.34623881182695
  H   2.34270910227238      0.52361016088989     -1.33662289446689
  H   2.65179243863138     -0.69795101938642     -0.11541248211676
  C   -1.26137943994354     -0.80377157148072     -0.46984203454663
  H   -0.63821826190039     -1.37940263091749     -1.15215011021825
  H   -1.76926419029577     -1.49096765180922      0.20896921661454
  H   -2.03534139977215     -0.29149679412186     -1.04349840053351
  N   -1.21189224788238      0.97599103810555      1.27807686536808
  O   -2.43135278282219      0.79947594110961      1.27669105413333
  O   -0.62083039801415      1.75254357631562      2.02195623608467
