14
Coordinates from ORCA-job run
  C   0.79117410125404     -0.40958754728286     -0.33221102024831
  C   -0.47951914527027     -0.14758348905889      0.00777559393660
  H   0.93357202532371     -1.33564466760246     -0.88617916552958
  C   2.02145400285931      0.39819222782352     -0.05366061395053
  H   1.81814827011805      1.46680027348804     -0.00028332466804
  H   2.76750005819165      0.21542006030611     -0.82886381652375
  H   2.45608444696868      0.10989718509253      0.90759441859123
  C   -1.67921457485887     -0.96816298892918     -0.33915727887899
  H   -2.33428591400790     -0.42642339604879     -1.02253716066359
  H   -1.36633024235924     -1.90258046872708     -0.80613955200229
  H   -2.26095121210165     -1.19970249576361      0.55656443679435
  N   -0.79907448445099      1.08442273744519      0.74443029361597
  O   -0.00524047848903      1.48096720201783      1.59766459410771
  O   -1.86131685317748      1.63698536723965      0.45500259541923
