14
Coordinates from ORCA-job run
  C   0.90155352629431      0.37742620876530      0.21681238547593
  C   -0.42206135595004      0.18975352354181      0.30511710998417
  H   1.33933438396251      1.07717343778048      0.92327101456077
  C   1.83024189077734     -0.27014402899152     -0.75809600094856
  H   2.61782029506317     -0.80882087027584     -0.22328812996680
  H   2.32803743531752      0.49286176189378     -1.36386397529636
  H   1.33540096571766     -0.96995350466650     -1.42985494769113
  C   -1.31300310408824     -0.69636595793452     -0.50009505378661
  H   -0.75214645258136     -1.17853569355432     -1.29901399661704
  H   -2.12931341252228     -0.12127146363139     -0.94060474268916
  H   -1.76573365888653     -1.46417772059261      0.12912433808018
  N   -1.13137392867384      0.93916642984176      1.37482109628322
  O   -2.30871889896144      0.62877784392779      1.56371115778015
  O   -0.52903768546878      1.80511003389578      2.00195974483123
