14
Coordinates from ORCA-job run
  C   0.90804680091484      0.24021425192927      0.34602935936296
  C   -0.42945437327201      0.17392190077989      0.30389533335586
  H   1.33869170172797      0.77756793037405      1.18637368632391
  C   1.86172287829294     -0.34826536055809     -0.64197732850616
  H   2.48422219478503      0.43962417641301     -1.07605188901848
  H   2.54047247316977     -1.04245636566042     -0.13792235409120
  H   1.37088196664828     -0.88128974255306     -1.45487788761901
  C   -1.31761367419211     -0.47989966753377     -0.70155261029590
  H   -1.97197349510913      0.25410961152176     -1.17442685899494
  H   -1.96089006468610     -1.21988705765683     -0.22247557779086
  H   -0.72598089483348     -0.97286285318321     -1.47113479833071
  N   -1.16654833275677      0.84879877936908      1.40494152524834
  O   -2.39569379726433      0.83828221159939      1.31943302032147
  O   -0.53588338342491      1.37114218515893      2.31874638003472
