17

C	-0.428507	0.082663	-1.450796
C	0.0	0.0	0.0
Br	-2.432345	0.361609	-1.584173
H	1.108835	0.0	0.0
C	0.278986	1.132674	-2.293584
H	1.350404	1.025128	-2.081783
H	-0.03569	2.13172	-2.009171
H	0.079856	0.959241	-3.352832
C	-0.206167	-1.2319	-2.054982
N	-0.006691	-2.228433	-2.646187
N	-0.415304	-1.207256	0.627118
H	-1.279211	-1.071415	1.137091
H	0.308465	-1.479671	1.284601
N	-0.3607	1.212278	0.762082
O	-0.799709	1.066435	1.911783
O	-0.108204	2.312837	0.259917
H	2.505764	0.0	0.0
