17

C	-0.504718	-0.025171	-1.438486
C	0.0	0.0	0.0
Br	0.300696	1.433166	-2.51466
H	1.092043	0.0	0.0
C	-0.046321	-1.328333	-2.092549
H	1.036396	-1.401483	-1.966326
H	-0.520422	-2.167586	-1.586955
H	-0.300534	-1.325122	-3.154021
C	-1.955772	0.113267	-1.527841
N	-3.130078	0.121113	-1.596003
N	-0.297802	-1.224842	0.694058
H	-1.084528	-1.111173	1.319848
H	0.524627	-1.45058	1.249309
N	-0.448409	1.174861	0.758542
O	-0.949054	2.139375	0.164069
O	-0.223673	1.151549	1.977992
H	2.511165	0.0	0.0
