17

C	-0.522966	0.229458	-1.421342
C	0.0	0.0	0.0
Br	0.145553	-1.279483	-2.527243
H	1.103822	0.0	0.0
C	-2.044156	0.204982	-1.486811
H	-2.386412	-0.720449	-1.021979
H	-2.427646	1.068828	-0.939062
H	-2.391546	0.249406	-2.521213
C	0.012432	1.42146	-2.080943
N	0.367157	2.338993	-2.725117
N	-0.367772	-1.298408	0.513087
H	0.509799	-1.797999	0.65827
H	-0.762942	-1.146838	1.434581
N	-0.393336	1.055721	0.872449
O	-0.58401	2.19533	0.386708
O	-0.378373	0.832633	2.106035
H	2.368569	0.0	0.0
