17

C	-0.49563	0.248151	-1.409991
C	0.0	0.0	0.0
Br	-2.499191	0.545644	-1.398686
H	1.109417	0.0	0.0
C	0.165395	1.392112	-2.164015
H	-0.10423	1.348558	-3.221037
H	1.247006	1.265277	-2.037876
H	-0.125016	2.348257	-1.741355
C	-0.328581	-0.986647	-2.179187
N	-0.20637	-1.897168	-2.912774
N	-0.407323	-1.266278	0.499293
H	-1.288132	-1.199215	0.995009
H	0.30668	-1.592238	1.14328
N	-0.346561	1.123165	0.90671
O	-0.106236	2.27346	0.52734
O	-0.764178	0.846371	2.038877
H	2.515499	0.0	0.0
