17

C	-0.369221	0.066703	-1.477173
C	0.0	0.0	0.0
Br	-2.374361	0.249463	-1.707115
H	1.100966	0.0	0.0
C	0.331204	1.137456	-2.295883
H	1.39629	1.065794	-2.039335
H	-0.02791	2.125791	-2.026802
H	0.176644	0.956301	-3.362226
C	-0.064759	-1.244227	-2.050501
N	0.200718	-2.274946	-2.55183
N	-0.405858	-1.164707	0.694853
H	0.369498	-1.811915	0.735556
H	-1.239963	-1.604234	0.33469
N	-0.437992	1.238245	0.707163
O	-1.103815	1.14625	1.738731
O	-0.038904	2.307366	0.232216
H	2.562813	0.0	0.0
