17

C	0.0	0.0	0.0
C	-0.289514	0.144121	-1.521296
Cl	1.774261	0.0	0.0
H	0.482719	0.839812	-1.890882
N	-0.41041	1.245309	0.755371
O	-0.304632	2.309532	0.16418
O	-0.751399	1.093529	1.923007
C	-0.553625	-1.229674	0.674368
H	-0.341192	-2.117513	0.074832
H	-0.072006	-1.355527	1.649746
H	-1.641067	-1.082602	0.771666
N	-1.584438	0.649302	-1.83953
H	-1.778777	0.535731	-2.824055
H	-2.36522	0.308153	-1.220162
C	-0.014397	-1.205941	-2.107645
N	0.064073	-2.244241	-2.656702
H	-3.433737	0.0	0.0
