17

C	0.0	0.0	0.0
C	-0.484744	0.059678	-1.464541
Cl	1.77381	0.0	0.0
H	0.228487	0.704547	-1.994138
N	-0.342334	1.390048	0.58385
O	0.079666	2.356148	-0.036772
O	-0.972016	1.42529	1.633572
C	-0.615953	-1.083396	0.834119
H	-0.268378	-1.015473	1.864968
H	-1.707466	-0.953799	0.803363
H	-0.342362	-2.054589	0.418713
N	-1.796528	0.641949	-1.523491
H	-2.563797	0.259915	-0.846944
H	-2.166459	0.569074	-2.46476
C	-0.323468	-1.297843	-2.05032
N	-0.199983	-2.349387	-2.563625
H	-3.677363	0.0	0.0
