17

C	0.0	0.0	0.0
C	-0.404792	0.251751	-1.475633
Cl	1.774441	0.0	0.0
H	0.286056	1.024593	-1.837218
N	-0.351034	1.273693	0.786803
O	-0.732298	1.130509	1.94223
O	-0.14624	2.341001	0.224708
C	-0.625808	-1.201371	0.640827
H	-0.270291	-1.322522	1.663172
H	-0.378922	-2.088898	0.05641
H	-1.714922	-1.042266	0.638089
N	-1.767612	0.690246	-1.620332
H	-2.489459	0.329911	-0.888214
H	-2.124493	0.409164	-2.525744
C	-0.071289	-0.974462	-2.23932
N	0.133975	-1.873298	-2.969875
H	-3.54801	0.0	0.0
