17

C	0.0	0.0	0.0
C	-0.75946	0.12172	-1.316016
Cl	1.753319	0.0	0.0
H	-1.76768	0.497127	-0.932558
N	-0.320987	1.284831	0.806827
O	-0.331607	1.201876	2.028868
O	-0.471751	2.318233	0.165265
C	-0.501801	-1.185661	0.784203
H	-0.047389	-1.20097	1.772983
H	-0.248772	-2.087206	0.228827
H	-1.593049	-1.079344	0.851177
N	-1.029187	-1.201306	-1.891304
H	-1.066921	-1.11554	-2.899908
H	-1.982143	-1.404999	-1.566587
C	-0.155842	1.018105	-2.283348
N	0.292493	1.69465	-3.135118
H	-3.119513	0.0	0.0
