15
Coordinates from ORCA-job run
  C   -0.57137708103782      0.04077551560199      0.27350177098315
  C   0.91980996770852     -0.05691400268895      0.67230173814994
  Br  -1.64121155777457     -0.66151165715631      1.73136449550561
  H   1.05922733305372      0.47549814851896      1.61799672310600
  C   -0.90059941023858     -0.65113606713965     -1.02602985935635
  H   -0.33064428273042     -0.19703939785546     -1.84082200616884
  H   -0.64564897345075     -1.70922891104770     -0.94963441664692
  H   -1.96157045658566     -0.55354131996283     -1.24503340809424
  N   -0.91169038317632      1.53214948499931      0.18609047710609
  O   -1.81823545035668      1.84453188710912     -0.57354638296511
  O   -0.27290808709155      2.28666050505430      0.91182019031903
  C   1.74843821603170      0.58680607792740     -0.35388111551928
  N   2.38557623986123      1.10221462238344     -1.19528598204706
  C   1.31308887783792     -1.45801441234073      0.83622529402854
  N   1.62674504794925     -2.58325047340290      0.95593248159945
