15
Coordinates from ORCA-job run
  C   -0.47132103744532      0.12196803579650      0.19207013019247
  C   1.05199593612649     -0.11028615449418      0.06446111160889
  Br  -0.99258554145136      0.04671605494183      2.04369829737702
  H   1.30491209574273     -0.01191563861211     -0.99721480270842
  C   -1.27564527327064     -0.85876226974166     -0.64085235500610
  H   -2.33721539896343     -0.62190514525250     -0.55820477794653
  H   -1.11402740077494     -1.87588100439379     -0.28271379363705
  H   -0.96911721007128     -0.78558793700958     -1.68803972554833
  N   -0.75983127657273      1.52003798824845     -0.37827431418373
  O   -1.68261890310659      2.16230089689606      0.09326416369003
  O   -0.06914617781290      1.82857698357692     -1.34658508061102
  C   1.39685238454842     -1.46378862098499      0.50320370713897
  N   1.66298431206432     -2.56310375527663      0.81874249748959
  C   1.81931991822924      0.89667410991011      0.80174692011302
  N   2.43544357275798      1.71495645639557      1.37569802203119
