15
Coordinates from ORCA-job run
  C   -0.55818730762508      0.06699517468844      0.29715155631507
  C   0.94488455200638     -0.07037029517831      0.63528834254623
  Br  -1.58627781241307     -0.55890914008820      1.81819843699535
  H   1.14191675404816      0.47898077768503      1.56083693528743
  C   -0.96572629317070     -0.64854869144729     -0.96681232525049
  H   -0.41519837200450     -0.23837278838798     -1.81734363548177
  H   -0.74507943255907     -1.71261533432719     -0.86978504562291
  H   -2.03084473015517     -0.51882070281199     -1.14488263807244
  N   -0.85133904092984      1.56647817384293      0.18153532126042
  O   -1.77193538244512      1.89103217142477     -0.55568641910712
  O   -0.16341122822249      2.31623075270570      0.86595380300772
  C   1.74828017357318      0.52143835490423     -0.44118850586006
  N   2.36429634104917      0.99611461377985     -1.32128443386274
  C   1.30137789155574     -1.47945369060733      0.81474459928954
  N   1.58724388729240     -2.61117937618266      0.94227400855577
