15
Coordinates from ORCA-job run
  C   -0.57622728937661     -0.14335152702525      0.16117752618945
  C   0.90159731524736     -0.55638508668706      0.33004349415771
  Br  -1.63394126305874     -1.13696947017227      1.44558804710257
  H   0.92986461291611     -1.63157669724861      0.10960544590302
  C   -1.08571831495548     -0.37766353103949     -1.24570256399475
  H   -2.14129310837641     -0.11696715695188     -1.29898823447751
  H   -0.52862655906730      0.24470467228697     -1.95113073941280
  H   -0.96249866445147     -1.42812419180318     -1.51488092528188
  N   -0.74344400757574      1.34151979857655      0.48281438991079
  O   -1.86217678007094      1.80438956313054      0.31441189447731
  O   0.25622700009804      1.94848445810865      0.85406501665867
  C   1.42079395183965     -0.37933641710982      1.68912937145044
  N   1.86286992124708     -0.30404729015272      2.77405451393690
  C   1.75150435490936      0.11964643241769     -0.65672619619758
  N   2.41106883067509      0.61667644366989     -1.49146104042237
