16
Coordinates from ORCA-job run
  C   -0.70541456330768     -0.04500063301360      0.48580096575595
  C   0.76308134183877      0.27608041582385      0.25671660765895
  Br  -0.98926073557522     -0.42576449518409      2.33214680166687
  H   1.02521628163017      1.15793828609450      0.84119816196746
  N   -1.54687843683447      1.20882828737357      0.13731677680827
  O   -1.19398635885282      2.23000184535858      0.69828397067594
  O   -2.47991184984319      1.04227065844485     -0.62843283524528
  N   -1.22664687382000     -1.16973471351518     -0.41299860605245
  O   -2.07780132241055     -1.91169699025438      0.03749957887434
  O   -0.75619457031188     -1.15423498626213     -1.54166784885612
  N   1.10714527340587      0.61253110516406     -1.18821759417458
  O   2.02643081368712      0.00160034024513     -1.70391667675690
  O   0.43782006179291      1.51701045415228     -1.66169560774519
  N   1.65065092286889     -0.84681584495556      0.68787094200079
  O   1.24390501087041     -1.98481215753493      0.48505088115531
  O   2.72284500486166     -0.50820157193697      1.17504448226663
