16
Coordinates from ORCA-job run
  C   -0.66192719694064      0.12391532520285      0.37595123524198
  C   0.68122696434441     -0.03552170293887     -0.31746616735200
  Br  -0.59840176918743      1.01391660880840      2.03136206628904
  H   0.54064853368872     -0.33779477421715     -1.35346684573763
  N   -1.62840348158740      0.85174004007523     -0.62968975517852
  O   -1.65323781491510      0.32967055598219     -1.73441161201165
  O   -2.26735361869441      1.80069552365090     -0.22650087967436
  N   -1.32816294406814     -1.26251638107125      0.49287399448953
  O   -2.27264117656936     -1.34963611596584      1.25753217327371
  O   -0.88646261674718     -2.11810803620840     -0.26267514345470
  N   1.58362251811994     -1.05145077446169      0.31650529187076
  O   2.49926461513573     -1.41878465785134     -0.40866221919118
  O   1.35235537420625     -1.39941590941704      1.46623587604237
  N   1.39228638554202      1.29638145200736     -0.32704403117425
  O   2.45139542239107      1.39331305995003      0.27166987947371
  O   0.79579080528151      2.16359578645460     -0.95321386290680
