16
Coordinates from ORCA-job run
  C   -0.59825276778746      0.11567945694124      0.47253626731725
  C   0.64011106955628     -0.13211209003769     -0.37371456242167
  Br  -0.25560935693844      0.73521401621556      2.21485221164884
  H   0.38306545497612     -0.70315793385307     -1.26381031069486
  N   -1.54467272934654      1.05963233596912     -0.29864839558552
  O   -2.43879362704517      1.57983177030974      0.34492862787080
  O   -1.34620809383412      1.12267172517368     -1.50475897794704
  N   -1.43191599218211     -1.21811470234920      0.49166102481829
  O   -1.82875061054303     -1.63097222759266      1.56108609621242
  O   -1.62401469682110     -1.68045362702659     -0.62322945609500
  N   1.62509617872051     -0.95232702186094      0.42321607393636
  O   1.20220951350301     -2.06011293933923      0.73005396542611
  O   2.70880477538121     -0.45897906874082      0.69143942263228
  N   1.32633715012418      1.11739161754841     -0.83822497496034
  O   1.07870581004234      2.16702923623331     -0.26061438316574
  O   2.10288792219433      0.93777945240914     -1.76777262899219
