16
Coordinates from ORCA-job run
  C   -0.64356212565492      0.03375138409569      0.42343478595477
  C   0.67739474030065     -0.05805135227423     -0.32293487311642
  Br  -0.49515619913050      0.47864600970142      2.24466905417836
  H   0.53631957862300     -0.54538082087555     -1.28578046034185
  N   -1.57378180979054      1.00389042054469     -0.33273411994629
  O   -2.55204894916993      1.40523832681840      0.27252314524658
  O   -1.27396431635000      1.20564520764868     -1.50232364345172
  N   -1.39298655430919     -1.33661792616483      0.22712814695158
  O   -1.45399699109333     -1.68792089704953     -0.94172225999736
  O   -1.85945579498137     -1.87985138067520      1.20626343292943
  N   1.63745211242500     -0.90497736348700      0.47691137742737
  O   2.66205747803426     -0.38739259497245      0.89159039956063
  O   1.25734676349222     -2.05891905750721      0.63194369921785
  N   1.32321431395895      1.26780121050954     -0.59289400286274
  O   2.18553529249880      1.22945131219343     -1.46136787336995
  O   0.96463246114688      2.23468752149415      0.06529319161978
