16
Coordinates from ORCA-job run
  C   -0.61034100962814      0.11187921661518      0.45758856616532
  C   0.64257199780342     -0.03225311033298     -0.39070572675904
  Br  -0.31875759220005      0.76430801181835      2.19710911762441
  H   0.37837800846152     -0.17979491541234     -1.43612659496010
  N   -1.61578057467967      1.02620045054311     -0.33687466755273
  O   -1.78347457901108      0.66500113418816     -1.49219389097692
  O   -2.14391741170681      1.94489068028204      0.25339730964043
  N   -1.36134623094941     -1.23510538157492      0.46587824395516
  O   -1.06609629420851     -2.00059161901959     -0.44257229078988
  O   -2.22494425746723     -1.37275025998561      1.31423184564532
  N   1.52333888854156     -1.17936267892432      0.00490660725490
  O   2.33379627371584     -1.49915470409053     -0.85544155487098
  O   1.37935746857287     -1.66719193482969      1.11751106752087
  N   1.44677235571067      1.24218058456371     -0.30211068436175
  O   2.56477238524809      1.19097588464146      0.18481631048456
  O   0.85667057179694      2.22276864151799     -0.73841365801958
