18

C	0.0	0.0	0.0
C	-0.471963	-0.121074	-1.460595
F	1.389388	0.0	0.0
H	-1.571382	-0.113813	-1.419491
N	-0.515367	1.265934	0.444367
H	-0.295266	1.360046	1.432215
H	-1.548241	1.124473	0.389689
C	-0.435342	-1.17786	0.84891
H	-1.528612	-1.230473	0.7909
H	-0.129388	-0.994713	1.884417
H	0.021142	-2.110632	0.509716
N	-0.063814	-1.45301	-2.004621
O	1.083449	-1.560219	-2.441658
O	-0.883908	-2.369656	-1.962468
N	0.059313	0.889718	-2.344201
H	-0.301463	1.769393	-1.990046
H	1.064229	0.911407	-2.19876
H	-3.101812	0.0	0.0
