18

C	0.0	0.0	0.0
C	-0.527907	0.015165	-1.43239
F	1.415507	0.0	0.0
H	-0.309544	-0.938425	-1.919972
N	-0.456513	1.168795	0.684623
H	0.093632	1.270047	1.531301
H	-0.26975	1.950138	0.043193
C	-0.390253	-1.262064	0.747659
H	-0.001769	-2.145018	0.232898
H	0.0441	-1.230612	1.752915
H	-1.476298	-1.317653	0.825437
N	0.01231	1.050236	-2.302036
O	-0.234686	2.294913	-1.827382
O	1.075423	0.744218	-2.99233
N	-1.992866	0.251186	-1.35627
H	-2.015378	1.280971	-1.410906
H	-2.415946	-0.105271	-2.212887
H	-2.930681	0.0	0.0
