18

C	0.0	0.0	0.0
C	-0.678775	0.100981	-1.358514
F	1.397654	0.0	0.0
H	-1.778839	-0.024355	-1.064947
N	-0.42137	1.179105	0.686535
H	-0.199932	1.988207	0.12097
H	0.034164	1.221502	1.588405
C	-0.437781	-1.213005	0.793032
H	-0.007956	-2.128343	0.390184
H	-0.095818	-1.086024	1.825705
H	-1.532597	-1.243155	0.768825
N	-0.283367	-1.039166	-2.252515
O	-0.607077	-2.177295	-1.912322
O	0.324279	-0.785958	-3.303038
N	-0.467161	1.368516	-1.994253
H	0.296989	1.297372	-2.653734
H	-1.310605	1.619369	-2.495298
H	-3.250674	0.0	0.0
