18

C	0.0	0.0	0.0
C	-0.463208	-0.155956	-1.466267
F	1.39964	0.0	0.0
H	-1.54395	-0.348099	-1.396625
N	-0.513554	1.198618	0.581876
H	-0.350591	1.975969	-0.0508
H	-1.540402	1.037187	0.602195
C	-0.436164	-1.17295	0.85065
H	-0.124474	-0.969582	1.877415
H	-1.527467	-1.24346	0.799191
H	0.027029	-2.096872	0.503762
N	0.190618	-1.364666	-2.071635
O	1.274288	-1.206487	-2.631879
O	-0.3808	-2.449151	-1.945546
N	-0.20739	0.956614	-2.339065
H	-0.954508	1.628686	-2.234511
H	0.68744	1.382649	-2.134281
H	-3.107097	0.0	0.0
