18

C	0.0	0.0	0.0
C	-0.431747	-0.022494	-1.475405
F	1.405975	0.0	0.0
H	-1.533317	-0.076006	-1.443756
N	-0.507452	1.170886	0.635534
H	-0.388377	1.944591	-0.012094
H	-1.528254	0.996235	0.684485
C	-0.448416	-1.222331	0.763882
H	0.041977	-2.121872	0.391661
H	-0.179836	-1.067456	1.810707
H	-1.536981	-1.298874	0.667214
N	0.053127	-1.300377	-2.146289
O	1.108869	-1.252648	-2.785727
O	-0.629865	-2.313996	-2.011627
N	0.056151	1.135491	-2.154877
H	1.060194	1.056868	-2.254397
H	-0.357433	1.205385	-3.074788
H	-3.127308	0.0	0.0
