15

C	-0.30172	-0.008015	-1.474187
C	0.0	0.0	0.0
Br	-2.239295	0.151555	-1.858593
H	1.096157	0.0	0.0
H	0.132029	0.8974	-1.896328
C	0.26378	-1.253147	-2.122098
H	1.32535	-1.300704	-1.851363
H	-0.240189	-2.150243	-1.757934
H	0.159722	-1.20571	-3.207921
C	-0.496189	-1.151129	0.715093
N	-0.830766	-2.143849	1.249984
N	-0.3551	1.245996	0.669815
O	-0.591506	1.210083	1.882751
O	-0.253477	2.282096	0.003259
H	2.437638	0.0	0.0
