15

C	-0.406787	0.04283	-1.480464
C	0.0	0.0	0.0
Br	0.177597	-1.664503	-2.286575
H	1.091656	0.0	0.0
H	-1.494025	0.013973	-1.591656
C	0.232823	1.165951	-2.276748
H	0.063513	1.005891	-3.342338
H	1.30342	1.186201	-2.062842
H	-0.199336	2.120424	-1.985785
C	-0.549577	-1.148905	0.695205
N	-0.933913	-2.117436	1.243648
N	-0.350781	1.222773	0.731094
O	-1.003113	1.148528	1.783508
O	0.155776	2.272482	0.309683
H	2.449766	0.0	0.0
