15

C	-0.411868	0.001521	-1.448841
C	0.0	0.0	0.0
Br	-2.37904	0.220195	-1.63607
H	1.096196	0.0	0.0
H	-0.000438	0.899769	-1.906867
C	0.032173	-1.255689	-2.157866
H	-0.442044	-2.138028	-1.723808
H	-0.222818	-1.208126	-3.218415
H	1.118308	-1.335933	-2.038733
C	-0.498405	-1.136125	0.745615
N	-0.842408	-2.117258	1.295263
N	-0.353226	1.262544	0.658598
O	-0.050781	2.290027	0.043512
O	-0.832641	1.236723	1.799459
H	2.474807	0.0	0.0
