15

C	-0.466507	0.127677	-1.456039
C	0.0	0.0	0.0
Br	-0.422097	-1.651038	-2.300735
H	1.091669	0.0	0.0
H	-1.514912	0.425239	-1.500013
C	0.42482	1.057773	-2.262347
H	0.128537	1.050208	-3.313708
H	1.464499	0.745315	-2.159015
H	0.324855	2.0706	-1.867769
C	-0.467662	-1.169244	0.714041
N	-0.81594	-2.125227	1.305226
N	-0.369516	1.183247	0.782393
O	-0.811371	2.181292	0.188851
O	-0.104047	1.151406	1.988132
H	2.464644	0.0	0.0
