15

C	-0.516635	-0.002095	-1.434291
C	0.0	0.0	0.0
Br	0.221736	1.517396	-2.427062
H	1.091383	0.0	0.0
H	-0.061419	-0.8809	-1.902125
C	-2.027074	0.002005	-1.604523
H	-2.467572	-0.829865	-1.048168
H	-2.285278	-0.095986	-2.661768
H	-2.455303	0.92962	-1.225724
C	-0.513299	-1.160265	0.701673
N	-0.914221	-2.134223	1.226584
N	-0.47019	1.235946	0.723895
O	-1.648437	1.26822	1.104882
O	0.347231	2.142482	0.868695
H	2.690816	0.0	0.0
