15

C	-0.45868	-0.101611	-1.444955
C	0.0	0.0	0.0
Br	0.391888	1.239368	-2.603838
H	1.09125	0.0	0.0
H	-0.026752	-1.039219	-1.807422
C	-1.962313	-0.084601	-1.657272
H	-2.376956	0.876042	-1.349722
H	-2.200431	-0.25279	-2.710571
H	-2.418777	-0.884397	-1.062881
C	-0.384378	-1.206803	0.703738
N	-0.668983	-2.242065	1.186664
N	-0.443831	1.156699	0.750981
O	-0.833244	2.161797	0.133125
O	-0.266345	1.11438	1.978705
H	2.393908	0.0	0.0
