15

C	-0.299744	-0.010302	-1.474615
C	0.0	0.0	0.0
Br	-2.235839	0.154112	-1.862556
H	1.096177	0.0	0.0
H	0.13682	0.893471	-1.897429
C	0.264822	-1.257659	-2.119129
H	0.163996	-1.211617	-3.205147
H	1.325465	-1.30686	-1.845368
H	-0.241828	-2.15311	-1.754818
C	-0.497398	-1.14973	0.716139
N	-0.835048	-2.146176	1.241979
N	-0.354101	1.246961	0.667537
O	-0.593389	1.212693	1.88028
O	-0.249385	2.282363	-0.000423
H	2.436249	0.0	0.0
