15
Coordinates from ORCA-job run
  C   -0.35487447024409      0.41265751306221     -0.03182214249981
  C   1.03157870948976     -0.07023148957280     -0.45304610943988
  Cl  -0.20604815129818      1.93417561392401      0.84501047827039
  H   1.51824896014630      0.67310860674040     -1.08172384630656
  H   0.95862247738864     -1.02890190634853     -0.96177044278388
  C   -1.19403251754178     -0.57781459546241      0.75011269698559
  H   -2.18604469377391     -0.15300828976210      0.91257432873190
  H   -1.28096369536704     -1.50891972149683      0.18651674298833
  H   -0.73015055082627     -0.78630059223398      1.71149968407632
  N   -1.12012275743356      0.66339786735766     -1.34516487116713
  O   -0.92588698532330     -0.17990197258691     -2.21722451704109
  O   -1.89874277347903      1.60040734328056     -1.40208646195474
  N   1.90889710227007     -0.27051272573220      0.73517166842811
  O   1.63995856685660     -1.22420148388247      1.46356111922438
  O   2.83856077913580      0.51604583271338      0.88839167248805
