11
Coordinates from ORCA-job run
  C   -0.01518252578645      0.18051143285601     -0.00619120012885
  C   -0.58357545172090      1.38206373759694     -0.13075222411089
  H   0.00334276315885      2.28699420578808     -0.05026226287429
  H   -1.64799306023430      1.46104446091306     -0.31472710889391
  C   -0.67957546038541     -1.15230717147428     -0.09118248752905
  H   -0.24713510812390     -1.75075495699995     -0.89445362090067
  H   -0.54614043928353     -1.71283264672899      0.83528764771280
  H   -1.74519670475161     -1.01771141096825     -0.27872976704303
  N   1.44832274532895      0.13127828547382      0.24580323148449
  O   2.07012543775578      1.18537312352481      0.32697367635874
  O   1.94200780404253     -0.99165905998125      0.35823411592466
