11
Coordinates from ORCA-job run
  C   -0.01983934419560      0.17337063357630      0.04917009634347
  C   -0.62331352939800      1.33775528006183      0.29892768220360
  H   -0.06263831159850      2.19015847093095      0.65791780658112
  H   -1.68993786770611      1.43884324027493      0.14038818584425
  C   -0.64626761548870     -1.08663391072470     -0.44600551727331
  H   -0.49104092931967     -1.90180069817724      0.26235816286613
  H   -1.71663314753318     -0.93226310733484     -0.58513105077942
  H   -0.20231813450512     -1.39455849518588     -1.39384341666774
  N   1.44510434287575      0.08983537071672      0.28223568141283
  O   2.03477650131220      1.08125599552520      0.69897261269278
  O   1.97310803555692     -0.99496277966325      0.03400975677629
