15
Coordinates from ORCA-job run
  C   -0.87593052110624     -0.53277177450892      0.29985298946633
  C   0.37029396315792     -0.00794461675494     -0.41425327944979
  Br  -0.77705359366133      0.04871107077549      2.24372109167343
  H   0.17461095647156     -0.13193663050131     -1.48425436539559
  H   -0.78558688432745     -1.61481470140338      0.39179435893532
  N   -2.07601048054998     -0.20431148664377     -0.35270447082477
  H   -2.88245123793442     -0.59998003089325      0.11057923145026
  H   -2.18322356784684      0.79492708541590     -0.46688841824436
  C   1.65166412548484     -0.69918717515301     -0.00670826147627
  H   1.84909305487684     -0.56821731495838      1.05594899466431
  H   1.56293907461773     -1.76556647727661     -0.22742164091966
  H   2.49751181457641     -0.30085276234162     -0.56607746554571
  N   0.47364979314374      1.48602194003511     -0.23304711337386
  O   -0.49297706287898      2.14612588010431     -0.61524708161061
  O   1.49247056597621      1.94879699410439      0.26470543065097
