15
Coordinates from ORCA-job run
  C   -0.92325954781809      0.00372348503981      0.51711238756291
  C   0.24122662703534      0.27137674319982     -0.42411164212914
  Br  -2.24571940498898      1.50612651208201      0.30411755279200
  H   -0.11298683700222      0.36911286587462     -1.45225243832027
  H   -0.59379853354589      0.10082639431301      1.55036536721909
  N   -1.47280180105838     -1.27776372745491      0.28389181786019
  H   -1.89821469026941     -1.34201405837925     -0.63306936600632
  H   -2.16564837449733     -1.51731249643212      0.98040684190459
  C   1.33307106298691     -0.77978790637087     -0.29632450341678
  H   2.18286050362908     -0.51091668052598     -0.92774130555106
  H   1.66890123769427     -0.84775236313090      0.73968384349865
  H   0.94903793932230     -1.75056260002115     -0.60402111593085
  N   0.84702634028329      1.60159799746605     -0.09464462841319
  O   1.03153287463277      2.38316389553432     -1.02282483434270
  O   1.15777260359637      1.78818193880553      1.07941202327286
