15
Coordinates from ORCA-job run
  C   -0.88715285468874     -0.51122837704879      0.45203238844156
  C   0.32365511750284     -0.01015736643478     -0.36347113656485
  Br  -0.63317529819914      0.00080858028795      2.33974119441271
  H   0.05573002879999     -0.15957460957977     -1.41471676755885
  H   -0.82912443956502     -1.60160534187271      0.45700654013354
  N   -2.18801245334217     -0.12303454827684      0.02021213321420
  H   -2.51001640069242     -0.71111548992478     -0.73687593674071
  H   -2.20947938360344      0.84911824835366     -0.25766611113038
  C   1.63108589788834     -0.69377560648875     -0.03256401443331
  H   1.91395347693971     -0.52152988664143      1.00385440742117
  H   2.43137834831272     -0.32416738793808     -0.67441932866552
  H   1.52261645461370     -1.76829953905019     -0.20035901019741
  N   0.44169237290784      1.48308460586598     -0.23028988559063
  O   1.42598448914729      1.94799603632441      0.33277320471491
  O   -0.49013535602150      2.14348068242412     -0.69425767745642
