15
Coordinates from ORCA-job run
  C   -1.06227181232525     -0.47431209187938     -0.00938683936636
  C   0.30294269070969     -0.15168386186363     -0.61685111296977
  Br  -1.25952958407023     -2.42347830744574     -0.02920006163805
  H   0.42615938871089     -0.70989926764002     -1.54601131126074
  H   -1.84765545731140     -0.12729794042051     -0.69072881036176
  N   -1.18029247845563     -0.02106226904396      1.35283772601496
  H   -2.06307260061843     -0.32769797945925      1.74312004214297
  H   -1.16960563364908      0.99335038951407      1.34003349861559
  C   1.48323463815917     -0.38009011156357      0.31160476142069
  H   1.48595191207561     -1.41837560701315      0.64321758685514
  H   2.41301276952635     -0.17318639621169     -0.22034414972184
  H   1.40959448667861      0.25671340035790      1.19199104897818
  N   0.33362344108457      1.29032216006046     -1.05373796704542
  O   1.11486758120788      1.57102758870459     -1.95630182236436
  O   -0.38695934172275      2.09567029390386     -0.46124258929924
