15
Coordinates from ORCA-job run
  C   -0.97522992589788      0.07709553461288      0.44182334473181
  C   0.23324611253987      0.32993639296602     -0.44800499872057
  Br  -2.27365937527072      1.50696725935524      0.18327406552854
  H   -0.09624905945489      0.48766821567616     -1.47481910248184
  H   -0.67877369344179      0.15558871892408      1.49241150756514
  N   -1.58410124704484     -1.18450627446990      0.05729311979277
  H   -2.54949089564418     -1.20808461529398      0.36102108483963
  H   -1.09920793760665     -1.93927683854893      0.53164010399681
  C   1.25923110232241     -0.78823686471525     -0.35374594655291
  H   0.84143686502073     -1.70176872687419     -0.77697056208228
  H   1.55273064084310     -0.95815501838084      0.68439672274089
  H   2.15034322590469     -0.52568327587901     -0.92758700916718
  N   0.89835700085548      1.60365814969853     -0.02905168140537
  O   1.21279892588872      1.69699044595456      1.15654473289912
  O   1.10956826098596      2.44580689697464     -0.89722538168454
