15
Coordinates from ORCA-job run
  C   -1.00688910716810      0.03686511877868      0.53732864821656
  C   0.15936848218739      0.32508367120894     -0.41120624167310
  Br  -2.34475778736588      1.45453500351535      0.30162508450886
  H   -0.20327299436450      0.42764961735960     -1.43593183685763
  H   -0.65905029940170      0.13372806986966      1.56644701347428
  N   -1.63731341099941     -1.23501339295420      0.36583575544913
  H   -1.84669030483232     -1.43762756912347     -0.60295212533865
  H   -1.09303842020735     -1.98112271777575      0.77682177326452
  C   1.25831474881557     -0.72042995344538     -0.30171524193106
  H   2.11381807695829     -0.43112776117567     -0.91561755898989
  H   1.59018000279540     -0.81853684285739      0.73376577799885
  H   0.89840118287537     -1.68552302886707     -0.65900364633851
  N   0.76349765783471      1.65305577152736     -0.07216124412715
  O   0.89209859658633      2.46937887425275     -0.97971918449958
  O   1.11633357628622      1.80908513968659      1.09548302684337
