15
Coordinates from ORCA-job run
  C   -0.88486134755902     -0.47156436912150      0.36859489140804
  C   0.36317697767867     -0.06385330095716     -0.41540398629579
  Br  -0.73983710986305      0.31910447169621      2.23404143699765
  H   0.14763629573220     -0.29970868997182     -1.46253988689650
  H   -0.82098949416339     -1.53880620136040      0.57915123715482
  N   -2.08611531770206     -0.18456481020166     -0.30117637911992
  H   -2.89539277798240     -0.50224039887524      0.21437632909566
  H   -2.16815403598253      0.79851395250980     -0.52475723451506
  C   1.63221921690369     -0.74148010722476      0.04971273764858
  H   1.51112755586542     -1.82286119641490     -0.04886656851064
  H   1.85072212596704     -0.49838859566318      1.08825704834218
  H   2.47924231902141     -0.43251453167984     -0.56194434361779
  N   0.50890472487760      1.43751146444673     -0.40257779572067
  O   -0.44599064200705      2.07790591416155     -0.84339993147121
  O   1.54731150921345      1.92394639865616      0.02753244550065
