15
Coordinates from ORCA-job run
  C   -1.13442659764669     -0.42969359932905     -0.07072799796292
  C   0.27026640796962     -0.13065632787087     -0.64069006442692
  Br  -1.39393385628789     -2.36619662866208     -0.17930329545759
  H   0.36032616288349     -0.59223058735778     -1.62403477833001
  H   -1.87401797398038     -0.00452243319912     -0.75407025972299
  N   -1.42970954450584      0.00422858993235      1.26068956845501
  H   -1.36834495673143      1.01426238928107      1.32196840378683
  H   -0.79593092067834     -0.40747649989031      1.93367155411897
  C   1.42601309650863     -0.49046277519295      0.26563750530455
  H   2.37326308621007     -0.23890429792401     -0.21478645315651
  H   1.41643105127753     -1.56257612373064      0.46582601527195
  H   1.36918293397107      0.05670487476071      1.20541485859098
  N   0.27771949276778      1.34611318944701     -0.92287850075641
  O   0.44087904931588      2.10609186803248      0.03277569040274
  O   0.06028256892650      1.69531836170320     -2.08149224611767
