18

C	0.0	0.0	0.0
C	-0.548306	0.181513	-1.430064
Br	1.960274	0.0	0.0
H	-1.634127	0.004258	-1.369781
N	-0.494403	1.002503	0.899163
H	-0.280073	1.927695	0.551369
H	-1.510242	0.88023	0.941036
C	-0.42832	-1.36594	0.525574
H	0.00206	-2.181831	-0.05203
H	-0.091392	-1.431416	1.560917
H	-1.518519	-1.420478	0.491744
N	0.031299	-0.762841	-2.437863
O	-0.436221	-1.89832	-2.445243
O	0.938708	-0.351241	-3.157486
N	-0.387436	1.545457	-2.035687
O	0.344972	2.372382	-1.499031
O	-1.029003	1.721817	-3.067108
Cl	-3.595104	0.0	0.0
