18

C	0.0	0.0	0.0
C	-0.612097	0.044825	-1.407313
Br	1.95697	0.0	0.0
H	-1.703775	0.173762	-1.240724
N	-0.509819	1.1023	0.725118
H	-0.398975	0.97988	1.720595
H	-0.142964	1.987193	0.409752
C	-0.482984	-1.287182	0.654383
H	-0.157944	-1.295354	1.697734
H	-1.577597	-1.280986	0.610457
H	-0.068015	-2.1676	0.163631
N	-0.416676	-1.224132	-2.173042
O	-1.435235	-1.814183	-2.521933
O	0.736569	-1.588842	-2.385609
N	-0.123524	1.153197	-2.286954
O	0.099958	2.233624	-1.747198
O	-0.045746	0.930378	-3.490679
Cl	-3.727618	0.0	0.0
