18
Coordinates from ORCA-job run
  C   -0.61353336030109      0.16868881536559      0.44016705967963
  C   0.59563092241003     -0.20492633647561     -0.43112044221266
  Cl  -0.45899880649536      1.90126682255052      0.94823705412270
  H   0.42338210246191     -1.25836062914515     -0.69867804288822
  N   -0.56660455598066     -0.61584771317025      1.66124339017836
  H   -1.34532562882964     -0.35674894197006      2.25753401167740
  H   -0.68062132475353     -1.59518330099538      1.41575302841460
  C   -1.92259011331857      0.05077699919449     -0.32714764472101
  H   -2.75936544834163      0.31413763010127      0.32416221430751
  H   -1.92611606845319      0.68961495263724     -1.20727664097346
  H   -2.04637193652418     -0.98731781952338     -0.65350563958477
  C   1.92709727739929     -0.10884450580091      0.30921739345605
  H   2.14646993384734      0.93156803966956      0.55841326458444
  H   1.91862746630301     -0.68503115480750      1.23412845674723
  H   2.72791954764962     -0.48107014564691     -0.33632868604969
  N   0.54336498868085      0.54812750220087     -1.68201961065805
  H   1.23687188412419      0.17724160267555     -2.32094330012062
  H   0.79916312012161      1.51190818314007     -1.49283586595944
