18
Coordinates from ORCA-job run
  C   -0.76563399869219      0.23071152315026      0.21851605040902
  C   0.59213143438175      0.35488170257857     -0.48691355591461
  Cl  -1.62250697633777      1.88990212418635     -0.12036356610604
  H   0.38090080146774      0.63394977889656     -1.52907462388242
  N   -0.57082145494485      0.01083551993837      1.59131690985161
  H   0.11343888906450      0.66348233802288      1.95580195533664
  H   -1.43178749580355      0.04043419511142      2.11993665737064
  C   -1.69123707023773     -0.79971591065219     -0.39394158558650
  H   -1.78210178551406     -0.64885648195280     -1.47075261444958
  H   -2.68788732772913     -0.71697913249610      0.04406435463398
  H   -1.30630410528542     -1.80004449443199     -0.19034994416557
  C   1.35452766925107     -0.96383384972891     -0.46756091216787
  H   0.82061225557862     -1.74641732623874     -1.00743071434804
  H   1.51988610695850     -1.28845179368894      0.56011773450924
  H   2.32432770876739     -0.83462973173254     -0.95756168059524
  N   1.38040554298131      1.36528186332427      0.21899661441436
  H   2.34595032820774      1.31819344688229     -0.08156297484831
  H   1.02909947788609      2.28925622883123     -0.00323810446131
