18
Coordinates from ORCA-job run
  C   -0.80458967600309      0.30439408418184      0.13447616827377
  C   0.65166448537681      0.53215298837742     -0.31811606710323
  Cl  -1.85390994341100      0.90195736707376     -1.29827965562994
  H   0.67501572301401      1.53004363127103     -0.77023761948249
  N   -1.06619241849778      1.03290580045794      1.31762895699910
  H   -2.05772215513292      1.11241359414558      1.50077472891257
  H   -0.62760487166535      1.94379375898771      1.31634888330897
  C   -1.20138035617260     -1.14836255260937      0.33163864636665
  H   -2.22887419261887     -1.19831244678291      0.69812832420358
  H   -0.55292034692991     -1.60407706828391      1.08490554092124
  H   -1.14367309811588     -1.71733693664792     -0.59455692874489
  C   1.10677388417512     -0.47780009371370     -1.36869740280013
  H   1.20179718684673     -1.47508712482621     -0.93206993698339
  H   0.42367134172286     -0.52527861700005     -2.21908452626766
  H   2.09062233407558     -0.18638650238536     -1.74695472867149
  N   1.51947177697691      0.59807868566120      0.86204509470179
  H   2.48637519699050      0.59348739857591      0.55618117497311
  H   1.38147512936889     -0.21658596648295      1.44886934702246
