18
Coordinates from ORCA-job run
  C   -0.74440968449638      0.07679772568084      0.37967080597394
  C   0.57946819899545     -0.08302858602624     -0.39785515521761
  Cl  -0.75752813762982      1.73871614721845      1.10781300969689
  H   0.49723020708312     -1.07758007357439     -0.85942497696106
  N   -0.91728383884443     -0.84448899398563      1.48118271108646
  H   -0.98515276735474     -1.79081908810927      1.12298404184600
  H   -0.14374979576664     -0.79186175147208      2.13127559689595
  C   -1.94412629096252     -0.03730035427732     -0.54121739507135
  H   -2.85580848733587      0.10661093887083      0.03853695281818
  H   -1.96149048083841     -1.03869685295855     -0.98553823164924
  H   -1.88109844245550      0.69166945278722     -1.34483168988318
  C   1.82515849930551     -0.07508303870880      0.48858250774341
  H   2.71245437605183     -0.19691733037826     -0.13794785334694
  H   1.91534320404422      0.87410947018695      1.02151894530732
  H   1.83185583355678     -0.88872589368074      1.21774087131679
  N   0.62793602898346      0.87909948402575     -1.49602044646830
  H   1.40346193504087      0.65253819931203     -2.10763765523162
  H   0.79973964262306      1.80496054508922     -1.11883203885565
