18
Coordinates from ORCA-job run
  C   -0.68294617024793      0.01789912477694      0.36826932275253
  C   0.58561927093456     -0.10970260671016     -0.48691543308405
  Cl  -0.55837325400264      1.64253389870951      1.29004395663688
  H   0.40006521561876     -1.00738683250420     -1.08970767082480
  N   -0.78473426557172     -1.07388050476499      1.27084300993763
  H   -0.04494284029869     -1.06145413322709      1.96078467098382
  H   -1.67256826236195     -1.05290424088893      1.75748264801057
  C   -1.93405851763627      0.11690887113223     -0.48016263829307
  H   -2.81007622001396      0.27815744499272      0.15246515765115
  H   -1.84208998158823      0.93571648742832     -1.18850526140833
  H   -2.05881989443739     -0.82270814526135     -1.02498215094372
  C   1.85288576517492     -0.34093472045611      0.33547260759894
  H   2.01699766137505      0.48085345916088      1.03691608781345
  H   2.71370458290004     -0.38784236788296     -0.33622183495321
  H   1.82184334625768     -1.28371745806291      0.88701941251611
  N   0.66680341277172      1.01318768510864     -1.41507279741832
  H   0.96666961570372      1.84405246959453     -0.91729993586168
  H   1.36302053542233      0.81122156885492     -2.12242915111390
