19

C	-0.147103	0.033926	-1.531299
C	0.0	0.0	0.0
Cl	-0.1562	-1.752326	-2.213351
H	1.098475	0.0	0.0
N	-1.431838	0.528885	-2.012775
H	-1.47542	0.382813	-3.016166
H	-1.4009	1.533489	-1.86237
N	0.982095	0.728722	-2.015601
H	1.118854	0.60456	-3.010386
H	1.830425	0.477029	-1.455444
C	-0.649138	-1.172199	0.704847
H	-0.611245	-1.013872	1.78753
H	-1.698083	-1.282806	0.408633
H	-0.128122	-2.103199	0.485127
C	-0.478463	1.330782	0.574896
H	-1.569915	1.434305	0.531726
H	-0.170001	1.398284	1.622552
H	-0.011461	2.16452	0.045148
F	2.774078	0.0	0.0
