19

C	-0.033019	-0.036987	-1.521452
C	0.0	0.0	0.0
Cl	-1.775839	-1.065118	-2.133418
H	1.099007	0.0	0.0
N	-0.20662	1.216663	-2.136569
H	-0.172075	1.125648	-3.144378
H	-1.092599	1.634492	-1.878803
N	1.040018	-0.790168	-1.985275
H	1.865571	-0.615907	-1.349984
H	1.2591	-0.60924	-2.95558
C	-0.440718	-1.2987	0.651552
H	-0.042586	-1.339035	1.671373
H	-0.042563	-2.149357	0.097307
H	-1.530655	-1.390194	0.684791
C	-0.633376	1.223366	0.621495
H	-0.493811	1.196585	1.706515
H	-0.171788	2.140547	0.250254
H	-1.714316	1.26051	0.430244
F	2.750497	0.0	0.0
