19

C	-0.529858	0.008528	-1.420794
C	0.0	0.0	0.0
Cl	0.405276	-1.268392	-2.393631
H	1.093814	0.0	0.0
N	-1.942813	-0.290025	-1.483983
H	-2.126932	-1.175366	-1.027011
H	-2.215989	-0.382355	-2.457082
N	-0.250871	1.259968	-2.101915
H	-0.271928	1.115652	-3.10463
H	-0.994346	1.901965	-1.849198
C	-0.439486	-1.234072	0.779856
H	-0.241163	-2.1502	0.215462
H	-1.498452	-1.216362	1.077466
H	0.166474	-1.28942	1.687725
C	-0.417344	1.276103	0.725367
H	-0.04343	1.226505	1.752226
H	-1.505988	1.422932	0.757636
H	0.059467	2.138896	0.256404
F	2.682018	0.0	0.0
