19

C	-0.580337	0.000697	-1.399978
C	0.0	0.0	0.0
Cl	0.349819	1.241075	-2.420058
H	1.093722	0.0	0.0
N	-0.368168	-1.259599	-2.084467
H	-1.053702	-1.908723	-1.713211
H	-0.548975	-1.137501	-3.074803
N	-1.985725	0.346724	-1.404559
H	-2.118038	1.245047	-0.954673
H	-2.29896	0.437408	-2.365956
C	-0.407809	-1.267328	0.746897
H	-0.006288	-1.208726	1.762662
H	-1.496134	-1.406578	0.809714
H	0.052825	-2.139912	0.278879
C	-0.401103	1.24118	0.792809
H	0.250254	1.296549	1.668743
H	-0.221456	2.153019	0.214892
H	-1.445111	1.232505	1.13912
F	2.677754	0.0	0.0
