19

C	-0.578821	-0.029005	-1.402991
C	0.0	0.0	0.0
Cl	0.232458	-1.314485	-2.39267
H	1.094402	0.0	0.0
N	-1.990678	-0.420196	-1.374943
H	-2.387174	-0.289462	-2.300882
H	-2.465774	0.210017	-0.735445
N	-0.295523	1.211863	-2.112069
H	-0.823294	1.954732	-1.66722
H	-0.613384	1.124387	-3.07167
C	-0.4286	-1.210953	0.821291
H	-1.474953	-1.175571	1.152752
H	0.222553	-1.263841	1.699322
H	-0.287835	-2.132794	0.25309
C	-0.352108	1.299487	0.726006
H	0.154479	2.144816	0.255318
H	0.045615	1.230043	1.742104
H	-1.431477	1.513345	0.810157
F	2.671782	0.0	0.0
