19

C	-0.57787	0.031057	-1.40352
C	0.0	0.0	0.0
Cl	0.231847	1.320141	-2.389778
H	1.09442	0.0	0.0
N	-0.292183	-1.208076	-2.115735
H	-0.606217	-1.11741	-3.076783
H	-0.822379	-1.952047	-1.675292
N	-1.99043	0.420001	-1.375136
H	-2.464732	-0.212444	-0.737547
H	-2.386606	0.290998	-2.301388
C	-0.353202	-1.300038	0.724154
H	-1.432951	-1.511058	0.810285
H	0.150019	-2.146093	0.250814
H	0.047033	-1.233291	1.739359
C	-0.429348	1.209896	0.822352
H	-1.475241	1.172772	1.154551
H	-0.29025	2.132381	0.254677
H	0.222368	1.262981	1.699778
F	2.672103	0.0	0.0
