19

C	-0.145092	0.093398	-1.534972
C	0.0	0.0	0.0
Cl	-0.121208	-1.690346	-2.21865
H	1.095882	0.0	0.0
N	-1.331586	0.733087	-2.000738
H	-1.33822	0.693039	-3.013945
H	-2.144805	0.240305	-1.653147
N	1.000157	0.719752	-2.131568
H	1.821797	0.460193	-1.545288
H	0.861818	1.72001	-2.033249
C	-0.634111	-1.180233	0.709434
H	-1.707739	-1.276409	0.493678
H	-0.148568	-2.11529	0.436106
H	-0.526437	-1.04926	1.791311
C	-0.43935	1.32134	0.627634
H	-0.078376	1.355941	1.660208
H	-1.528718	1.45153	0.633886
H	-0.002468	2.172256	0.101707
F	2.749893	0.0	0.0
