19

C	-0.142329	-0.100175	-1.534626
C	0.0	0.0	0.0
Cl	-0.116741	1.684379	-2.225037
H	1.095865	0.0	0.0
N	1.005649	-0.727891	-2.127781
H	1.82592	-0.464744	-1.541595
H	0.867656	-1.72842	-2.02607
N	-1.328773	-0.741577	-1.999996
H	-2.143243	-0.249496	-1.65241
H	-1.336105	-0.70291	-3.013501
C	-0.439529	-1.32029	0.630031
H	-1.529199	-1.450952	0.633745
H	-0.081181	-1.352459	1.664437
H	-0.000128	-2.172589	0.106614
C	-0.636086	1.181695	0.705051
H	-0.528566	1.05543	1.787194
H	-1.708844	1.274011	0.488681
H	-0.152991	2.117254	0.428592
F	2.750136	0.0	0.0
