16

C	0.0	0.0	0.0
C	-0.481087	0.009311	-1.460314
Br	1.97094	0.0	0.0
H	-1.570669	0.006499	-1.308394
H	-0.225603	0.984579	0.428039
N	-0.579655	-1.095639	0.701431
H	-0.407427	-0.975115	1.695772
H	-1.609924	-0.873715	0.529663
C	-0.051674	-1.224047	-2.234503
H	-0.618165	-1.273694	-3.168074
H	-0.241573	-2.120732	-1.64282
H	1.014112	-1.189332	-2.484395
N	-0.1274	1.21934	-2.202627
H	-0.60195	2.004252	-1.767723
H	0.871737	1.382594	-2.107598
F	-2.858946	0.0	0.0
