16

C	0.0	0.0	0.0
C	-0.399298	-0.073464	-1.538609
Br	1.973981	0.0	0.0
H	0.501578	-0.29054	-2.12108
H	-0.260971	0.983123	0.39143
N	-0.559925	-0.964885	0.886018
H	-1.573887	-0.717413	0.808146
H	-0.449826	-1.886262	0.473372
C	-0.946478	1.293513	-1.931214
H	-0.235052	2.091981	-1.693975
H	-1.870997	1.426042	-1.364933
H	-1.165062	1.31591	-3.002038
N	-1.401814	-1.068874	-1.878521
H	-2.200436	-0.849204	-1.254292
H	-1.05287	-1.994503	-1.653456
F	-2.912325	0.0	0.0
