15

C	0.0	0.0	0.0
C	-0.449383	-0.252881	-1.4981
Cl	1.824567	0.0	0.0
H	0.458804	-0.309445	-2.101328
N	-0.355116	1.220065	0.591435
H	-0.207431	2.031296	-0.023543
H	-1.12844	1.235296	1.223696
C	-0.390665	-1.105667	0.924241
N	-0.57734	-1.932832	1.740405
C	-1.235044	0.887657	-2.036766
N	-1.705367	1.782975	-2.648893
N	-0.99734	-1.55637	-1.693548
H	-1.941758	-1.606423	-1.328899
H	-1.02732	-1.783634	-2.656321
Cl	-3.195627	0.0	0.0
