15

C	0.0	0.0	0.0
C	-0.330505	0.059024	-1.546641
Cl	1.847989	0.0	0.0
H	0.53606	-0.330547	-2.084441
N	-0.541627	0.997126	0.849379
H	-1.545931	0.810757	0.94698
H	-0.422696	1.916172	0.435959
C	-0.35774	-1.330071	0.513985
N	-0.529014	-2.397429	0.972971
C	-0.425652	1.491068	-1.917884
N	-0.481129	2.618878	-2.243764
N	-1.456257	-0.771751	-1.883587
H	-1.638573	-0.711368	-2.879042
H	-2.299947	-0.495785	-1.365994
Cl	-3.802024	0.0	0.0
