15

C	0.0	0.0	0.0
C	-0.487501	-0.326215	-1.431912
Cl	1.824539	0.0	0.0
H	-1.58002	-0.394625	-1.297877
N	-0.488566	1.245446	0.489382
H	-0.391623	1.904678	-0.27916
H	-1.494646	1.106041	0.639624
C	-0.362507	-1.096145	0.910372
N	-0.569282	-1.985783	1.648573
C	0.02708	-1.608798	-1.926197
N	0.457039	-2.598602	-2.392819
N	-0.187961	0.795418	-2.308026
H	-0.904583	0.871816	-3.017216
H	0.711535	0.674533	-2.755152
Cl	-3.485466	0.0	0.0
