15

C	0.0	0.0	0.0
C	-0.397612	-0.34445	-1.503988
Cl	1.786069	0.0	0.0
H	0.5083	-0.688264	-2.007895
N	-0.517339	1.202945	0.573145
H	-1.53375	1.079112	0.651359
H	-0.345415	1.978474	-0.058483
C	-0.376402	-1.132178	0.864583
N	-0.572917	-2.018965	1.60827
C	-0.752361	0.921528	-2.18455
N	-0.939006	1.883671	-2.833531
N	-1.357994	-1.417588	-1.584091
H	-1.526287	-1.641955	-2.557859
H	-2.24301	-1.12235	-1.15485
Cl	-3.63413	0.0	0.0
