15

C	0.0	0.0	0.0
C	-0.467493	0.344708	-1.431509
Cl	1.850654	0.0	0.0
H	-1.562711	0.242998	-1.351776
N	-0.478885	0.901318	0.987879
H	-0.385298	1.832496	0.589788
H	-1.484512	0.709279	1.07333
C	-0.355715	-1.386322	0.329714
N	-0.554544	-2.517658	0.575323
C	0.038013	-0.600152	-2.434768
N	0.431506	-1.31509	-3.281047
N	-0.142296	1.733472	-1.719357
H	-0.824948	2.11323	-2.361202
H	0.779688	1.80858	-2.131123
Cl	-3.465395	0.0	0.0
