15

C	0.0	0.0	0.0
C	-0.34785	-0.167693	-1.534269
Cl	1.78974	0.0	0.0
H	0.381559	-0.89859	-1.900504
N	-0.583428	1.175338	0.550318
H	-1.599347	1.103828	0.417762
H	-0.410846	1.217486	1.549286
C	-0.363822	-1.266008	0.67363
N	-0.625132	-2.279895	1.208678
C	-0.035857	1.107291	-2.205304
N	0.224565	2.091206	-2.790293
N	-1.646992	-0.634291	-1.918973
H	-2.414024	-0.11379	-1.486913
H	-1.770599	-1.589703	-1.603333
Cl	-3.979547	0.0	0.0
