15

C	0.0	0.0	0.0
C	-0.298268	-0.185537	-1.556668
Cl	1.846239	0.0	0.0
H	0.477178	-0.85887	-1.932857
N	-0.568081	1.107748	0.670482
H	-1.57017	0.927132	0.791356
H	-0.450646	1.94991	0.117485
C	-0.372697	-1.255939	0.661477
N	-0.599186	-2.305971	1.137001
C	-0.066579	1.128674	-2.178359
N	0.116959	2.193323	-2.638738
N	-1.572236	-0.708875	-1.954269
H	-1.627131	-1.684718	-1.686605
H	-2.35559	-0.249049	-1.478142
Cl	-3.874475	0.0	0.0
