15

C	0.0	0.0	0.0
C	-0.335556	-0.282036	-1.514327
Cl	1.826439	0.0	0.0
H	0.484719	-0.874027	-1.927598
N	-0.54752	1.163152	0.603626
H	-1.549675	1.009811	0.748765
H	-0.424972	1.967955	-0.0008
C	-0.369043	-1.182128	0.793863
N	-0.568184	-2.118414	1.473488
C	-0.293479	1.023559	-2.217089
N	-0.295778	2.032325	-2.821111
N	-1.544292	-1.046148	-1.649425
H	-2.349866	-0.625663	-1.166934
H	-1.780039	-1.163909	-2.626309
Cl	-3.959751	0.0	0.0
