15

C	0.0	0.0	0.0
C	-0.301463	-0.622577	-1.43876
Cl	1.846798	0.0	0.0
H	0.481989	-1.365479	-1.614543
N	-0.565529	1.253139	0.327139
H	-1.565245	1.115951	0.509169
H	-0.458085	1.899048	-0.447117
C	-0.371655	-1.01477	0.99226
N	-0.605179	-1.883614	1.747566
C	-0.083634	0.46254	-2.408861
N	0.148127	1.339087	-3.155241
N	-1.568582	-1.254996	-1.662537
H	-2.35851	-0.688488	-1.333588
H	-1.608828	-2.113066	-1.124109
Cl	-3.874819	0.0	0.0
