15

C	0.0	0.0	0.0
C	-0.497115	0.147753	-1.459584
Cl	1.793797	0.0	0.0
H	-1.590214	0.054211	-1.351492
N	-0.492808	1.026779	0.861824
H	-0.383023	1.897999	0.347971
H	-1.50168	0.854549	0.945576
C	-0.377016	-1.328037	0.512122
N	-0.574594	-2.416134	0.907129
C	-0.000579	-0.920656	-2.335692
N	0.409058	-1.721006	-3.093286
N	-0.180535	1.484225	-1.939359
H	-0.885883	1.780528	-2.600832
H	0.724888	1.499368	-2.391689
Cl	-3.494595	0.0	0.0
