15

C	0.0	0.0	0.0
C	-0.319577	0.050866	-1.566596
Cl	1.797957	0.0	0.0
H	0.459414	-0.548026	-2.047662
N	-0.572773	0.996912	0.835398
H	-1.582295	0.820988	0.888192
H	-0.421747	1.914667	0.429234
C	-0.389278	-1.338622	0.466942
N	-0.623972	-2.444782	0.784021
C	-0.098398	1.446588	-1.983182
N	0.138435	2.555089	-2.289768
N	-1.587113	-0.424335	-2.036851
H	-2.375415	-0.04556	-1.501308
H	-1.629897	-1.429149	-1.908871
Cl	-3.886139	0.0	0.0
