15

C	0.0	0.0	0.0
C	-0.642291	-0.378987	-1.342457
Cl	1.836218	0.0	0.0
H	-1.712153	-0.489258	-1.054494
N	-0.507681	1.245988	0.37431
H	-0.117437	1.613293	1.227576
H	-0.490684	1.889852	-0.404242
C	-0.318157	-1.028678	1.005129
N	-0.497676	-1.860785	1.81405
C	-0.119323	-1.644213	-1.861081
N	0.304408	-2.626152	-2.348961
N	-0.535332	0.727422	-2.280551
H	-1.422988	0.843628	-2.752464
H	0.198311	0.572259	-2.958946
Cl	-3.694973	0.0	0.0
