15

C	0.0	0.0	0.0
C	-0.505247	-0.042306	-1.463509
Cl	1.78799	0.0	0.0
H	-1.597015	-0.124886	-1.33569
N	-0.49138	1.13229	0.721405
H	-1.497748	0.96975	0.838491
H	-0.39211	1.92546	0.092239
C	-0.381851	-1.245811	0.685281
N	-0.589953	-2.263432	1.233494
C	-0.008326	-1.210862	-2.198995
N	0.406467	-2.09754	-2.85015
N	-0.198213	1.222652	-2.1125
H	-0.921326	1.43911	-2.786597
H	0.695761	1.17946	-2.585665
Cl	-3.498788	0.0	0.0
