15
Coordinates from ORCA-job run
  C   -0.28579236731776      0.53351982028236      0.30462970205338
  C   0.43078255092257     -0.56370334774346     -0.49681941929874
  F   0.23615503998428      0.41064171774893      1.62016339388422
  H   0.14788035299237     -0.41863597949417     -1.54290601330401
  N   -1.65608214503322      0.30747958302518      0.26395769389903
  H   -1.97852828630442     -0.63609333787040      0.14872594506272
  H   -2.31620458492666      1.04160265974501      0.42793920943686
  N   0.12114327532973      1.83512163571890     -0.14821064667682
  H   -0.61446843205606      2.30035497125017     -0.65973060286662
  H   0.41062877216149      2.39887687464478      0.63841601887188
  N   -0.04623875127465     -1.87295599568113     -0.06318073484856
  H   0.34749134969649     -2.60196199611641     -0.64441892299834
  H   0.25284932111516     -2.03391867106146      0.89183392525220
  C   1.89044782485235     -0.39340684485116     -0.39450498387579
  N   3.05993607985834     -0.30492108959715     -0.34589456459141
