13

C	0.0	0.0	0.0
C	-0.5511	0.038353	-1.422119
Cl	1.776172	0.0	0.0
H	-1.66347	-0.049977	-1.291648
H	-0.345557	0.916341	0.481073
C	-0.450332	-1.132374	0.811166
N	-0.620034	-2.011087	1.57147
N	-0.09218	-1.117813	-2.258343
O	0.109733	-0.909553	-3.451569
O	-0.011226	-2.20182	-1.692752
C	-0.21381	1.291858	-2.078529
N	0.04087	2.336729	-2.550701
Br	-3.466205	0.0	0.0
