13

C	0.0	0.0	0.0
C	-0.620713	0.194509	-1.386403
Cl	1.788494	0.0	0.0
H	-1.719337	0.246546	-1.205669
H	-0.323947	0.838848	0.616029
C	-0.449218	-1.252517	0.612542
N	-0.678265	-2.278392	1.14171
N	-0.420436	-0.995061	-2.304804
O	0.474079	-1.78898	-2.035071
O	-1.190863	-1.06098	-3.25853
C	-0.137475	1.374967	-2.08042
N	0.230876	2.324585	-2.662824
Br	-3.500548	0.0	0.0
