13

C	0.0	0.0	0.0
C	-0.554399	0.058311	-1.418686
Cl	1.784422	0.0	0.0
H	-1.6674	-0.03682	-1.28594
H	-0.341703	0.908427	0.499399
C	-0.437615	-1.150978	0.79224
N	-0.619779	-2.053581	1.521877
N	-0.093224	-1.081483	-2.276046
O	0.076526	-0.857456	-3.471371
O	0.016103	-2.170563	-1.725462
C	-0.228307	1.323825	-2.056389
N	0.015613	2.374853	-2.520257
Br	-3.45928	0.0	0.0
