13

C	0.0	0.0	0.0
C	-0.563216	-0.251037	-1.393085
Cl	1.787369	0.0	0.0
H	-1.675277	-0.319655	-1.236624
H	-0.342922	0.993423	0.295172
C	-0.428208	-0.956043	1.024724
N	-0.601504	-1.677374	1.93509
N	-0.105335	-1.546999	-1.990485
O	0.01068	-1.593073	-3.21164
O	0.053324	-2.483177	-1.215548
C	-0.254292	0.847124	-2.293895
N	-0.035785	1.77113	-2.985787
Br	-3.47365	0.0	0.0
