13

C	0.0	0.0	0.0
C	-0.570104	0.07762	-1.411241
Cl	1.776054	0.0	0.0
H	-1.683674	-0.004071	-1.266714
H	-0.343542	0.901185	0.512703
C	-0.44103	-1.159568	0.780853
N	-0.622802	-2.064604	1.507198
N	-0.144349	-1.058382	-2.290817
O	-0.127355	-0.847347	-3.500548
O	0.085103	-2.130547	-1.741645
C	-0.239153	1.343297	-2.044805
N	0.000463	2.392036	-2.5165
Br	-3.481574	0.0	0.0
