17

C	-0.485175	-0.014414	-1.463334
C	0.0	0.0	0.0
F	-1.899859	0.249723	-1.399837
H	1.090156	0.0	0.0
N	0.181989	0.925863	-2.272188
H	0.51364	1.720746	-1.743863
H	-0.405511	1.210975	-3.043877
N	-0.36184	-1.339919	-2.007343
H	0.194103	-1.301892	-2.848601
H	-1.271073	-1.746159	-2.176245
N	-0.477632	-1.078585	0.804334
H	0.064751	-1.896856	0.555793
H	-1.458605	-1.253558	0.618564
N	-0.471639	1.300754	0.602133
O	-1.400384	1.275521	1.401244
O	0.079005	2.331381	0.208423
Br	3.53951	0.0	0.0
