17

C	-0.509174	0.297669	-1.42072
C	0.0	0.0	0.0
F	0.136368	1.426575	-1.9104
H	1.092269	0.0	0.0
N	-0.160495	-0.763473	-2.328708
H	-0.39205	-1.63284	-1.862159
H	0.852417	-0.741947	-2.420485
N	-1.930688	0.456091	-1.418539
H	-2.236515	0.424062	-2.384137
H	-2.159596	1.35809	-1.018673
N	-0.461634	-1.28956	0.401928
H	0.060315	-1.606023	1.206063
H	-1.447369	-1.257871	0.625573
N	-0.448146	1.082297	0.984508
O	-0.577683	0.743019	2.16092
O	-0.650269	2.222196	0.567767
Br	3.47828	0.0	0.0
