17

C	-0.432637	0.041979	-1.467274
C	0.0	0.0	0.0
F	-0.117362	-1.305937	-1.925031
H	1.095077	0.0	0.0
N	-1.833281	0.232634	-1.570687
H	-2.135263	0.09947	-2.528625
H	-2.267936	-0.469072	-0.979917
N	0.323739	0.96788	-2.206924
H	0.196521	0.807091	-3.197833
H	1.307369	0.86605	-1.969701
N	-0.625977	-1.144053	0.634822
H	-0.081491	-1.950035	0.350013
H	-0.533305	-1.044088	1.637242
N	-0.445078	1.253676	0.686589
O	0.127625	2.288063	0.370297
O	-1.33659	1.170165	1.534049
Br	3.505828	0.0	0.0
