17

C	-0.572226	-0.012772	-1.427065
C	0.0	0.0	0.0
F	0.178385	0.849075	-2.232949
H	1.092218	0.0	0.0
N	-0.476504	-1.33205	-2.00627
H	0.13606	-1.254764	-2.807125
H	-0.059824	-1.958988	-1.328266
N	-1.948343	0.408232	-1.41199
H	-1.978815	1.421905	-1.397732
H	-2.38168	0.064999	-2.260532
N	-0.484134	-1.124806	0.718087
H	-1.473717	-1.021129	0.902193
H	0.015607	-1.211401	1.589697
N	-0.38794	1.31944	0.680123
O	-0.740472	1.264345	1.856428
O	-0.298546	2.356428	0.028145
Br	3.491143	0.0	0.0
