17

C	-0.440838	-0.010277	-1.471247
C	0.0	0.0	0.0
F	-0.11537	1.190082	-2.098486
H	1.097143	0.0	0.0
N	0.313299	-1.079961	-2.066236
H	0.132764	-1.097139	-3.063868
H	1.306289	-0.891589	-1.926544
N	-1.861349	-0.144509	-1.55005
H	-2.119661	-0.863492	-0.882169
H	-2.135649	-0.43186	-2.481955
N	-0.551804	-1.190513	0.633236
H	-0.443888	-1.095709	1.63568
H	0.036091	-1.95744	0.324706
N	-0.48609	1.215171	0.717167
O	-1.245299	1.055871	1.675914
O	-0.071919	2.298462	0.324158
Br	3.485651	0.0	0.0
