17

C	-0.385027	-0.043883	-1.483312
C	0.0	0.0	0.0
F	-0.170961	1.283462	-1.97814
H	1.089521	0.0	0.0
N	0.491828	-0.956979	-2.117365
H	0.403375	-0.887624	-3.122653
H	1.455512	-0.749755	-1.852409
N	-1.750131	-0.402315	-1.694024
H	-2.332311	0.337656	-1.317249
H	-1.930913	-0.506595	-2.686657
N	-0.502649	-1.102337	0.760288
H	0.262813	-1.728587	0.964487
H	-1.217173	-1.584483	0.229612
N	-0.529141	1.278477	0.58996
O	-1.75336	1.438134	0.536427
O	0.256422	2.062503	1.106783
Br	3.529651	0.0	0.0
