17

C	-0.373348	-0.006112	-1.486934
C	0.0	0.0	0.0
F	0.125261	-1.226701	-1.9843
H	1.090421	0.0	0.0
N	-1.790854	-0.095257	-1.708416
H	-2.232669	0.738387	-1.345055
H	-1.968574	-0.169473	-2.702278
N	0.27704	1.095933	-2.105962
H	1.265671	1.09049	-1.854576
H	0.193451	1.029282	-3.113833
N	-0.548204	-1.074758	0.759298
H	-1.35654	-1.45288	0.282602
H	0.16071	-1.786225	0.862592
N	-0.472467	1.310774	0.580243
O	0.363039	2.147289	0.901663
O	-1.694041	1.454834	0.697294
Br	3.527212	0.0	0.0
