16

C	-0.481681	0.013245	-1.468359
C	0.0	0.0	0.0
Br	0.226362	-1.55119	-2.431115
H	1.100685	0.0	0.0
C	-1.943804	-0.056554	-1.534608
N	-3.118245	-0.060746	-1.575262
C	-0.029046	1.20389	-2.187749
N	0.328353	2.158795	-2.772432
N	-0.546155	-1.206621	0.621966
H	-0.609234	-1.044611	1.620391
H	0.128249	-1.955649	0.496997
C	-0.504806	1.23941	0.721615
H	-1.596528	1.233401	0.806948
H	-0.069931	1.251579	1.724694
H	-0.181088	2.153195	0.220592
Br	3.525861	0.0	0.0
