16

C	-0.489399	-0.014613	-1.472095
C	0.0	0.0	0.0
Br	0.287545	1.46997	-2.501005
H	1.099362	0.0	0.0
C	-0.100415	-1.259624	-2.135148
N	0.198481	-2.256215	-2.681593
C	-1.946473	0.121311	-1.527069
N	-3.112644	0.265492	-1.542852
N	-0.520862	-1.240938	0.575116
H	-0.880887	-1.075365	1.506472
H	0.237265	-1.911683	0.647585
C	-0.504328	1.214455	0.756462
H	-0.232557	2.142034	0.252606
H	-1.591645	1.181086	0.883473
H	-0.028705	1.222571	1.739716
Br	3.515643	0.0	0.0
