16

C	-0.413068	0.013348	-1.516103
C	0.0	0.0	0.0
Br	0.338625	-1.551998	-2.440107
H	1.098134	0.0	0.0
C	-1.868779	-0.078899	-1.634038
N	-3.042142	-0.16456	-1.634681
C	0.055195	1.20672	-2.215988
N	0.392702	2.186783	-2.771644
N	-0.454326	-1.170837	0.707148
H	-1.438531	-1.360516	0.553627
H	0.096103	-1.977545	0.445393
C	-0.518687	1.261843	0.673309
H	-1.61408	1.284202	0.70504
H	-0.154397	2.164881	0.17971
H	-0.143023	1.255085	1.69689
Br	3.501835	0.0	0.0
