16

C	-0.351006	-0.01092	-1.516512
C	0.0	0.0	0.0
Br	-2.337453	-0.031121	-1.782604
H	1.097898	0.0	0.0
C	0.131884	1.170809	-2.224139
N	0.487153	2.135699	-2.794461
C	0.134101	-1.232732	-2.152295
N	0.486646	-2.247358	-2.630314
N	-0.424097	-1.194805	0.690824
H	0.199471	-1.96325	0.477244
H	-1.377445	-1.451673	0.463854
C	-0.503953	1.252077	0.69235
H	-0.070727	1.260323	1.693049
H	-0.186014	2.158749	0.172635
H	-1.594155	1.250728	0.782923
Br	3.454153	0.0	0.0
