16

C	-0.452933	-0.226229	-1.469346
C	0.0	0.0	0.0
Br	0.297898	1.133375	-2.676234
H	1.109876	0.0	0.0
C	-0.007065	-1.534187	-1.947756
N	0.337159	-2.57855	-2.361828
C	-1.910524	-0.141047	-1.572857
N	-3.07972	-0.026301	-1.618738
N	-0.485071	-1.162931	0.732075
H	0.291495	-1.620482	1.190907
H	-1.178923	-0.904212	1.422758
C	-0.50523	1.313264	0.569095
H	-0.083616	1.430664	1.569835
H	-1.599111	1.323442	0.64184
H	-0.182227	2.166123	-0.028596
Br	3.488827	0.0	0.0
