16

C	-0.485516	-0.006908	-1.474791
C	0.0	0.0	0.0
Br	0.264761	-1.55043	-2.425038
H	1.099016	0.0	0.0
C	-1.945347	-0.127013	-1.515986
N	-3.120217	-0.177293	-1.514941
C	-0.087922	1.197602	-2.204544
N	0.200203	2.177131	-2.788662
N	-0.491342	-1.221168	0.62551
H	0.301307	-1.795127	0.886491
H	-1.016485	-1.006547	1.463106
C	-0.494724	1.252549	0.707985
H	-0.062805	1.266016	1.711497
H	-0.168454	2.161239	0.198829
H	-1.588126	1.261093	0.791129
Br	3.505081	0.0	0.0
