16

C	-0.439628	0.012842	-1.453819
C	0.0	0.0	0.0
Br	-2.421421	-0.013144	-1.616679
H	1.110792	0.0	0.0
C	0.008168	1.245631	-2.280253
N	-0.23763	1.439622	-3.422754
C	0.051245	-1.273783	-2.159047
N	-0.351512	-2.363923	-1.934597
N	-0.447032	-1.208782	0.687851
H	0.040587	-1.272071	1.591085
H	-1.453651	-1.148835	0.89016
C	-0.450018	1.258401	0.758292
H	-1.548706	1.341036	0.793016
H	-0.081588	1.20426	1.798791
H	-0.033924	2.176463	0.313879
Br	2.669597	0.0	0.0
