16

C	-0.476078	-0.012071	-1.479411
C	0.0	0.0	0.0
Br	0.341611	-1.502178	-2.451864
H	1.09498	0.0	0.0
C	-1.929651	-0.192237	-1.522177
N	-3.10076	-0.295935	-1.52698
C	-0.13428	1.219635	-2.191158
N	0.093037	2.222334	-2.761034
N	-0.461097	-1.231306	0.615779
H	0.286143	-1.619767	1.179878
H	-1.272602	-1.067613	1.201625
C	-0.491197	1.261766	0.70185
H	-0.107106	1.247717	1.724521
H	-1.586876	1.302341	0.739348
H	-0.117758	2.168055	0.220949
Br	3.515365	0.0	0.0
