14

C	0.0	0.0	0.0
C	-0.271545	0.043858	-1.53002
Br	1.931759	0.0	0.0
H	0.324306	-0.760379	-1.971998
H	-1.324738	-0.169091	-1.683697
C	-0.5132	1.126071	0.755401
N	-0.59277	2.106854	1.411758
N	-0.473383	-1.281378	0.598301
O	-0.514729	-1.351897	1.832095
O	-0.474702	-2.263232	-0.162524
N	0.025458	1.376507	-2.043656
H	-0.467272	1.509678	-2.916569
H	1.017318	1.469466	-2.219074
H	-2.044328	0.0	0.0
