14

C	0.0	0.0	0.0
C	-0.305665	-0.035801	-1.522038
Br	1.952424	0.0	0.0
H	-1.313871	-0.425426	-1.654426
H	0.406779	-0.724233	-1.981146
C	-0.566051	1.136995	0.698036
N	-0.642942	2.178065	1.257929
N	-0.420037	-1.277668	0.659738
O	-0.475066	-1.289328	1.889369
O	-0.433358	-2.281763	-0.062336
N	-0.093943	1.306267	-2.057691
H	-0.105278	1.258838	-3.069794
H	-0.868984	1.894403	-1.766358
H	-2.091478	0.0	0.0
