15

C	0.0	0.0	0.0
C	-0.426964	-0.046787	-1.493767
F	1.377816	0.0	0.0
H	-1.492737	-0.270497	-1.523234
C	-0.426003	1.267223	0.614051
N	-0.464903	2.33769	1.102425
C	-0.415939	-1.165315	0.798854
N	-0.460589	-2.124607	1.476021
N	0.311992	-1.223939	-2.086001
O	1.358386	-1.005446	-2.688175
O	-0.188113	-2.329399	-1.883503
N	-0.108875	1.127982	-2.226531
H	0.80174	1.494805	-1.986063
H	-0.825119	1.824768	-2.073827
Br	-3.301809	0.0	0.0
