15
Coordinates from ORCA-job run
  C   0.77516229816396      0.24313970943179     -0.30510800634294
  C   -0.50901671304234     -0.36112069603464     -0.85515549300484
  H   1.57921232176779      0.16197967764737     -1.05224586948187
  H   -0.27290405899885     -1.33030646637409     -1.29719719679656
  H   -0.84427199567655      0.28962753777263     -1.67127459119791
  N   1.28990001656102     -0.63320043116867      0.82078830935436
  O   1.34528074403398     -1.83637293993801      0.58343352756870
  O   1.65706878147148     -0.09261614840273      1.85887473387917
  N   0.55123636582078      1.56574317879979      0.21677861211373
  H   1.38844483700352      1.93087181224714      0.65130155207115
  H   0.28000865606068      2.17693484407650     -0.54309863529537
  C   -1.60160619912466     -0.49754527239099      0.19968192487184
  H   -1.78557617167015      0.45432651677604      0.69689440184726
  H   -1.32020193600700     -1.23307600139361      0.95612747827675
  H   -2.53173694636367     -0.83838532104850     -0.25980074786350
