15
Coordinates from ORCA-job run
  C   0.76361497385215      0.25416811668751     -0.46535090159937
  C   -0.55580561070482     -0.41254828397443     -0.83564123198011
  H   1.47897225697232      0.15455153837447     -1.28418999477675
  H   -0.93674590189235      0.12072171691277     -1.71061357709985
  H   -0.34278815389334     -1.44020585885903     -1.13902341497325
  N   1.38467301276727     -0.61099040639668      0.64897525799991
  O   1.81716506712200     -1.70858407830765      0.30980082820266
  O   1.36828004787235     -0.16896534646483      1.79586021118979
  N   0.61994877115425      1.61754936886102     -0.10231088980648
  H   1.52054883229318      2.05104807931896      0.05297754638489
  H   0.07958973061344      1.71123660342477      0.74715229034743
  C   -1.59143369594416     -0.39270983877737      0.28469713613593
  H   -1.88668285853980      0.62650545789349      0.54313036050634
  H   -1.22495779636829     -0.88546590113400      1.18789861772387
  H   -2.49437867530420     -0.91731116755901     -0.03336223825500
