20

C	-0.468996	-0.050963	-1.470608
C	0.0	0.0	0.0
F	-0.358767	1.283856	-1.938939
H	1.091194	0.0	0.0
C	0.455532	-0.863863	-2.354408
H	0.33625	-1.926774	-2.154724
H	0.21957	-0.651996	-3.40282
H	1.488342	-0.583873	-2.132493
C	-1.933739	-0.413822	-1.637871
H	-2.215063	-0.288645	-2.687752
H	-2.108878	-1.44818	-1.343329
H	-2.561044	0.245748	-1.033476
N	-0.369372	-1.216275	0.722194
O	-0.572864	-1.142619	1.942964
O	-0.350568	-2.29776	0.110849
C	-0.440435	1.231982	0.761228
H	-1.524381	1.279276	0.904678
H	-0.10741	2.1117	0.213603
H	0.040444	1.231392	1.738829
H	2.661839	0.0	0.0
