20

C	-0.46	0.022118	-1.461884
C	0.0	0.0	0.0
F	0.062022	-1.113205	-2.101885
H	1.091891	0.0	0.0
C	-1.967512	-0.067007	-1.648196
H	-2.195115	-0.064532	-2.717981
H	-2.349993	-0.995667	-1.216521
H	-2.481317	0.774742	-1.176983
C	0.160012	1.225397	-2.153814
H	1.22837	1.258727	-1.912475
H	0.033334	1.108873	-3.233462
H	-0.318677	2.159285	-1.845555
N	-0.484657	-1.253199	0.631229
O	-1.499417	-1.200754	1.347333
O	0.130132	-2.290503	0.398001
C	-0.454803	1.200385	0.808356
H	0.059758	2.090623	0.434884
H	-0.142058	1.060701	1.84498
H	-1.536789	1.357432	0.797234
H	2.817302	0.0	0.0
