20

C	-0.378367	-0.030304	-1.47755
C	0.0	0.0	0.0
F	-1.787776	0.10457	-1.613793
H	1.091735	0.0	0.0
C	0.271699	1.161134	-2.157086
H	1.336471	1.169995	-1.896769
H	0.155977	1.083161	-3.240869
H	-0.189174	2.094312	-1.829004
C	0.012161	-1.317879	-2.17144
H	-0.558997	-2.160519	-1.784742
H	1.075265	-1.508444	-2.004634
H	-0.189064	-1.217725	-3.241654
N	-0.475041	-1.22269	0.69027
O	0.131626	-2.274327	0.473937
O	-1.443678	-1.137918	1.456343
C	-0.487615	1.231391	0.737388
H	0.089822	2.092968	0.399644
H	-1.552505	1.409919	0.587871
H	-0.298773	1.113958	1.804888
H	2.782399	0.0	0.0
