20

C	-0.457561	0.05296	-1.461698
C	0.0	0.0	0.0
F	0.032703	-1.087708	-2.113597
H	1.091882	0.0	0.0
C	-1.964004	0.008579	-1.653067
H	-2.186122	0.017622	-2.724072
H	-2.454187	0.864738	-1.186289
H	-2.375906	-0.905999	-1.22184
C	0.197574	1.24593	-2.135472
H	1.263227	1.246589	-1.886787
H	0.07287	1.148141	-3.217586
H	-0.25563	2.187276	-1.816557
N	-0.492587	-1.260657	0.608977
O	-1.51394	-1.213108	1.315024
O	0.122362	-2.297152	0.364659
C	-0.446712	1.187053	0.831161
H	-1.524088	1.35591	0.821014
H	0.077718	2.076164	0.476979
H	-0.13693	1.025666	1.865539
H	2.834516	0.0	0.0
