20

C	-0.461755	-0.04696	-1.474125
C	0.0	0.0	0.0
F	-0.32373	1.285019	-1.942051
H	1.091199	0.0	0.0
C	0.45568	-0.88045	-2.350714
H	1.495869	-0.643775	-2.097989
H	0.254323	-0.636839	-3.398862
H	0.290762	-1.945855	-2.179753
C	-1.930985	-0.386955	-1.652193
H	-2.553417	0.280558	-1.054169
H	-2.203977	-0.259808	-2.702688
H	-2.123382	-1.417773	-1.360971
N	-0.392248	-1.212666	0.714852
O	-0.65234	-1.136311	1.925962
O	-0.363136	-2.291915	0.104578
C	-0.434264	1.235668	0.758726
H	-0.080997	2.111231	0.217418
H	-1.519396	1.298143	0.888697
H	0.034241	1.226361	1.742046
H	2.669506	0.0	0.0
