15

C	0.0	0.0	0.0
C	-0.504579	-0.068642	-1.432447
F	1.378705	0.0	0.0
H	-1.59426	-0.216598	-1.358747
H	-0.358126	-0.862865	0.559624
C	-0.414652	1.247301	0.662753
N	-0.549751	2.278216	1.20782
N	0.052204	-1.332466	-2.026342
O	0.057554	-2.334808	-1.314653
O	0.429892	-1.30981	-3.197287
C	-0.152605	1.139297	-2.269021
H	-0.651835	2.009891	-1.840114
H	0.925432	1.311673	-2.288017
H	-0.504487	1.008156	-3.290342
Br	-3.535271	0.0	0.0
