15

C	0.0	0.0	0.0
C	-0.503445	0.172102	-1.424663
F	1.380733	0.0	0.0
H	-1.587938	-0.013218	-1.387703
H	-0.35878	-0.944958	0.4058
C	-0.413364	1.112057	0.870107
N	-0.571009	1.987201	1.636532
N	0.089877	-0.957142	-2.221021
O	0.545073	-0.71365	-3.337994
O	0.049457	-2.077137	-1.715196
C	-0.18226	1.515409	-2.034286
H	-0.720258	2.280534	-1.472001
H	-0.51563	1.550295	-3.070049
H	0.888661	1.725092	-2.002974
Br	-3.540344	0.0	0.0
