15

C	0.0	0.0	0.0
C	-0.497312	0.327109	-1.400714
F	1.380838	0.0	0.0
H	-1.57904	0.121938	-1.393447
H	-0.355796	-0.985617	0.297944
C	-0.415526	1.00891	0.986002
N	-0.57803	1.797395	1.840706
N	0.124314	-0.691927	-2.314251
O	0.09071	-1.864398	-1.945741
O	0.597205	-0.311943	-3.384954
C	-0.19581	1.738203	-1.847466
H	-0.507638	1.883985	-2.880243
H	-0.763841	2.422011	-1.214393
H	0.869104	1.96473	-1.767488
Br	-3.52522	0.0	0.0
