15

C	0.0	0.0	0.0
C	-0.500013	0.086735	-1.434645
F	1.380807	0.0	0.0
H	-1.587556	-0.081814	-1.381159
H	-0.348335	-0.92366	0.46069
C	-0.42122	1.159811	0.80039
N	-0.592298	2.09634	1.487526
N	0.075301	-1.094855	-2.164856
O	0.453661	-0.937092	-3.32473
O	0.092266	-2.170481	-1.569744
C	-0.164156	1.387691	-2.126147
H	0.910629	1.579656	-2.113507
H	-0.504882	1.365386	-3.160013
H	-0.686039	2.191933	-1.606789
Br	-3.543513	0.0	0.0
