13

C	-0.443002	0.005797	-1.47285
C	0.0	0.0	0.0
Br	0.037294	-1.681948	-2.313029
H	1.095863	0.0	0.0
H	0.18137	0.747797	-1.981342
N	-1.871543	0.188082	-1.591876
H	-2.127095	1.07661	-1.169621
H	-2.128746	0.216428	-2.569029
C	-0.537967	-1.130477	0.753382
N	-0.957807	-2.033483	1.375242
C	-0.433332	1.260668	0.607464
N	-0.771477	2.288099	1.066788
Br	3.345565	0.0	0.0
