13

C	-0.342949	-0.114186	-1.50072
C	0.0	0.0	0.0
Br	-0.120494	1.724026	-2.347552
H	1.097457	0.0	0.0
H	-1.399577	-0.312572	-1.678983
N	0.480776	-1.110256	-2.03846
H	0.350414	-1.240546	-3.031345
H	1.462779	-0.948514	-1.813037
C	-0.466368	-1.216062	0.671256
N	-0.876148	-2.177421	1.207523
C	-0.547617	1.170671	0.673987
N	-1.022113	2.079594	1.246806
Br	3.363513	0.0	0.0
