13

C	-0.372998	-0.032629	-1.484179
C	0.0	0.0	0.0
Br	-2.381388	-0.473434	-1.668036
H	1.097739	0.0	0.0
H	0.094908	-0.898506	-1.949285
N	-0.004404	1.147952	-2.122772
H	-0.103451	1.109983	-3.125723
H	-0.445345	1.973557	-1.740354
C	-0.445559	-1.186331	0.725157
N	-0.774841	-2.153359	1.304027
C	-0.4937	1.219566	0.632023
N	-0.868303	2.23172	1.095754
Br	3.333188	0.0	0.0
