13

C	-0.263383	0.047464	-1.508593
C	0.0	0.0	0.0
Br	-2.188864	0.186224	-1.921416
H	1.09945	0.0	0.0
H	0.013788	-0.928314	-1.922579
N	0.433174	1.180492	-2.038301
H	1.396701	1.146037	-1.700433
H	0.440317	1.148776	-3.050049
C	-0.503075	-1.222107	0.61402
N	-0.898481	-2.21663	1.097408
C	-0.487139	1.188109	0.693236
N	-0.868195	2.136091	1.271685
Br	3.340981	0.0	0.0
