13

C	-0.493263	0.041962	-1.45266
C	0.0	0.0	0.0
Br	0.280836	-1.531734	-2.410649
H	1.094798	0.0	0.0
H	-0.029235	0.894827	-1.946356
N	-1.906829	0.119786	-1.529843
H	-2.214803	0.208815	-2.489128
H	-2.33389	-0.707234	-1.129234
C	-0.521671	-1.17662	0.69328
N	-0.981902	-2.123122	1.21511
C	-0.446816	1.217276	0.685355
N	-0.786069	2.204138	1.224023
Br	3.363441	0.0	0.0
