13

C	-0.374471	-0.015429	-1.483871
C	0.0	0.0	0.0
Br	-2.388625	-0.436214	-1.66751
H	1.09773	0.0	0.0
H	0.083987	-0.881413	-1.958282
N	0.003235	1.167818	-2.112527
H	-0.428882	1.993835	-1.720318
H	-0.102491	1.139761	-3.115324
C	-0.447509	-1.193832	0.711339
N	-0.778328	-2.166914	1.279106
C	-0.491513	1.21337	0.645948
N	-0.862564	2.221462	1.121287
Br	3.334424	0.0	0.0
