16

C	-0.436155	0.001856	-1.4758
C	0.0	0.0	0.0
F	-1.840077	-0.041202	-1.534667
H	1.095913	0.0	0.0
C	-0.018539	1.205549	-2.210842
N	0.290496	2.15981	-2.822587
C	0.044728	-1.200966	-2.175599
N	0.40985	-2.157059	-2.751044
N	-0.448908	-1.203946	0.675779
H	0.17267	-1.977447	0.462669
H	-1.398058	-1.446189	0.40877
C	-0.513161	1.24334	0.709406
H	-1.606808	1.274888	0.720075
H	-0.153425	1.20391	1.737354
H	-0.131733	2.156014	0.246083
Br	3.502351	0.0	0.0
