16

C	-0.483757	-0.027002	-1.45652
C	0.0	0.0	0.0
F	-0.069457	1.102988	-2.140971
H	1.095397	0.0	0.0
C	0.013353	-1.218481	-2.166923
N	0.379172	-2.170867	-2.748211
C	-1.964085	-0.048426	-1.490504
N	-3.137989	-0.012034	-1.499333
N	-0.478916	-1.24444	0.595095
H	0.310626	-1.768076	0.951448
H	-1.122647	-1.06537	1.354137
C	-0.487566	1.250251	0.710511
H	-0.199546	2.147744	0.160954
H	-1.576494	1.24476	0.837958
H	-0.014179	1.293727	1.693821
Br	3.501522	0.0	0.0
