13

C	0.0	0.0	0.0
C	-0.312369	-0.01901	-1.503942
Cl	1.740941	0.0	0.0
H	0.180474	0.845037	-1.948196
H	-1.386514	0.02853	-1.665309
H	0.092151	-0.93639	-1.946432
N	-0.743693	1.045364	0.703972
O	-0.706181	0.948244	1.957996
O	-0.725492	2.16213	0.090036
N	-0.356658	-1.447021	0.630339
O	0.513675	-2.307523	0.497131
O	-1.445761	-1.647494	1.143511
H	-2.121045	0.0	0.0
