13

C	0.0	0.0	0.0
C	-0.308808	0.088677	-1.496834
Cl	1.741053	0.0	0.0
H	-1.381189	0.106862	-1.656784
H	0.137667	-0.777612	-1.980847
H	0.150787	1.000124	-1.873895
N	-0.505452	1.200435	0.741473
O	-0.582064	2.234061	0.055532
O	-0.49154	1.187496	1.975714
N	-0.467864	-1.305009	0.590401
O	-0.563454	-2.238671	-0.218328
O	-0.468782	-1.441097	1.81214
H	-2.161609	0.0	0.0
