13

C	0.0	0.0	0.0
C	-0.309933	-0.193877	-1.486586
Cl	1.741052	0.0	0.0
H	0.145894	-1.130408	-1.803346
H	-1.383589	-0.2166	-1.641437
H	0.137928	0.637427	-2.028292
N	-0.506149	1.320124	0.504119
O	-0.579727	2.207751	-0.36134
O	-0.501745	1.535754	1.71879
N	-0.473476	-1.168826	0.824009
O	-0.462523	-1.074262	2.050755
O	-0.571992	-2.237561	0.205288
H	-2.164823	0.0	0.0
