15
Coordinates from ORCA-job run
  C   1.07878911023664      0.58772833696901     -0.31585982475976
  C   -0.24268774061951      0.14033646316376      0.33054677053758
  H   1.08736384460484      0.30381164399921     -1.37437323697759
  H   -0.20965747659829      0.43214132082641      1.38722278638065
  H   1.17394650259898      1.67752133142472     -0.27440179541742
  C   2.24698220780152     -0.00354421820481      0.33626878391901
  N   3.16301830193735     -0.49181358570088      0.88384332722254
  C   -0.40784496583024     -1.37350624355490      0.24656123432423
  H   -1.34384684806785     -1.68533495611712      0.71652506150278
  H   -0.43321754926833     -1.69886382735672     -0.79853389353734
  H   0.41034331618119     -1.89719941172658      0.74607330104985
  C   -1.40540056596769      0.86591984462154     -0.34041101546399
  H   -2.35534848948525      0.58555967720615      0.12101377141454
  H   -1.30143560813782      1.95147262943269     -0.26103638990647
  H   -1.46100403938553      0.60677099501751     -1.40243888028861
