15
Coordinates from ORCA-job run
  C   1.15768180006359      0.62918615465191      0.31460864243803
  C   -0.29894995863614      0.17137360113769      0.50636828065947
  H   1.21710416042182      1.72233862518162      0.31487354886574
  H   -0.62376572531744      0.59028169981991      1.46711667881169
  H   1.78187592896323      0.27095776714623      1.13962064881434
  C   1.72319129165769      0.13508978692684     -0.94163397950449
  N   2.14506159538777     -0.27818159946151     -1.95577130721175
  C   -0.38726122246231     -1.34983230582073      0.58333386519706
  H   -1.41431053891534     -1.66624697337862      0.78152237133562
  H   0.24670901983858     -1.74748725666155      1.38084304608039
  H   -0.07187039984192     -1.80512178089392     -0.35963743808009
  C   -1.19537899099882      0.72756929873171     -0.59586592893418
  H   -2.23861072955475      0.45500670895168     -0.41751346960206
  H   -0.90545093775456      0.32648552052577     -1.57119292097897
  H   -1.13702529285141      1.81858075314294     -0.64667203789081
