12
Coordinates from ORCA-job run
  C   -0.38540244450259      0.27134886663517      0.48768789557343
  C   0.72244456549276     -0.77758503783551      0.44365487060912
  Cl  -1.27667113477521      0.12495600878825      2.01035820105878
  H   0.27346944790475     -1.76414620043621      0.56987217881088
  H   1.40445662135177     -0.59163382610111      1.27746334017301
  N   -1.39968095678562     -0.00526064493632     -0.64488434700936
  O   -1.55521232702976     -1.18069264439874     -0.93919965965025
  O   -1.98367957260942      0.96633809095579     -1.09897010279038
  C   0.12640634638646      1.62468720134244      0.32930812446027
  N   0.59708584694478      2.69701039602734      0.22686073072204
  C   1.44811264710943     -0.71400919873998     -0.82180559811558
  N   2.02767096051264     -0.65101301130112     -1.84034563384194
