12
Coordinates from ORCA-job run
  C   -0.32473869099784      0.28681522637206      0.46976802046334
  C   1.07149785934917     -0.10433886417638     -0.03135647677348
  Cl  -0.70661980619476     -0.49613906235867      1.98849051931448
  H   1.27394985006201      0.44398333979855     -0.95498741015732
  H   1.80647312694498      0.19158879462626      0.72130324230833
  N   -1.32575600272890     -0.14875391543817     -0.64188822978214
  O   -2.11755152186370     -1.03865924501184     -0.40011220171389
  O   -1.16357237219955      0.46054953992400     -1.69033653858816
  C   -0.43092391440798      1.73488697141205      0.59556286944063
  N   -0.47524755288879      2.90379679679571      0.71134183847781
  C   1.15997488061817     -1.54027335044505     -0.27853359026756
  N   1.23251414430718     -2.69245623149851     -0.48925204272205
