12
Coordinates from ORCA-job run
  C   -0.37119436797283      0.26453546797441      0.50393635954747
  C   0.70570290652260     -0.81260586895024      0.40421398147282
  Cl  -1.24646336827082      0.08490540508885      2.03209621795113
  H   0.23050665556733     -1.79014114655727      0.50146591874671
  H   1.40573717672881     -0.67693786005587      1.23273611055234
  N   -1.40576329966887      0.05707558329392     -0.62528293143454
  O   -1.94336125971792      1.06253645269775     -1.06246015110704
  O   -1.61954527487850     -1.10472048906461     -0.93619068919599
  C   0.17713692713826      1.60794091020250      0.39018619973035
  N   0.67847555043522      2.66924016923516      0.32485434642687
  C   1.41294641641413     -0.72268015195804     -0.87009013432773
  N   1.97582193770261     -0.63914847190654     -1.89646522836238
