14

C	0.0	0.0	0.0
C	-0.460054	0.18421	-1.445573
F	1.390954	0.0	0.0
H	-1.552758	0.082519	-1.44744
H	-0.296321	0.891702	0.569113
N	-0.46674	-1.241174	0.521748
H	-0.248339	-1.289349	1.510436
H	-1.486295	-1.226891	0.440909
C	0.116925	-0.878175	-2.283799
N	0.586741	-1.698016	-2.979778
N	-0.114093	1.487151	-2.012091
H	0.827518	1.72845	-1.718816
H	-0.753736	2.17368	-1.625084
Br	-3.685569	0.0	0.0
