14

C	0.0	0.0	0.0
C	-0.555395	-0.142847	-1.412007
F	1.393715	0.0	0.0
H	-1.619205	-0.380979	-1.251469
H	-0.350925	0.947456	0.412125
N	-0.464722	-1.079873	0.799034
H	0.097317	-1.902823	0.62904
H	-0.463366	-0.858113	1.782697
C	0.094272	-1.27101	-2.081997
N	0.600508	-2.178905	-2.627891
N	-0.353411	1.097046	-2.177467
H	-1.076791	1.733225	-1.850282
H	-0.576996	0.911823	-3.149583
Br	-3.855067	0.0	0.0
