14

C	0.0	0.0	0.0
C	-0.172264	0.342681	-1.512203
F	1.423706	0.0	0.0
H	0.538246	1.165887	-1.679305
H	-0.335847	0.817947	0.637206
N	-0.50589	-1.230438	0.448179
H	-0.513303	-1.871168	-0.339008
H	-1.481344	-1.068351	0.705544
C	-1.426473	0.857752	-2.07658
N	-2.156789	1.38592	-2.831746
N	0.211598	-0.863653	-2.262717
H	1.214483	-0.975716	-2.175572
H	-0.017769	-0.748293	-3.242121
Br	-3.660136	0.0	0.0
