14

C	0.0	0.0	0.0
C	-0.487513	-0.345729	-1.402127
F	1.412559	0.0	0.0
H	-1.584167	-0.38817	-1.308433
H	-0.33769	1.006036	0.252967
N	-0.481127	-0.928562	0.941282
H	-0.018194	-1.822421	0.86068
H	-0.467774	-0.587637	1.888506
C	0.008585	-1.682169	-1.762933
N	0.399303	-2.760338	-2.014444
N	-0.114494	0.61891	-2.432342
H	0.825454	0.950972	-2.249403
H	-0.752264	1.403244	-2.365585
Br	-3.83155	0.0	0.0
