14

C	0.0	0.0	0.0
C	-0.320566	0.073878	-1.531641
F	1.410542	0.0	0.0
H	0.58037	-0.309332	-2.022611
H	-0.317093	0.903929	0.520305
N	-0.510017	-1.140124	0.659557
H	-1.425422	-0.909137	1.036485
H	-0.666541	-1.876778	-0.018967
C	-0.436765	1.487573	-1.948594
N	-0.506489	2.606302	-2.302425
N	-1.425066	-0.789533	-1.901785
H	-2.279198	-0.511426	-1.405694
H	-1.603824	-0.706602	-2.895949
Br	-4.035405	0.0	0.0
