15

C	-0.187635	-0.198567	-1.513467
C	0.0	0.0	0.0
Br	-0.262311	1.663021	-2.493808
H	1.0961	0.0	0.0
H	-1.165055	-0.579371	-1.819324
N	0.894747	-0.976408	-1.909663
H	1.7708	-0.664401	-1.437561
H	0.975189	-1.116718	-2.904662
N	-0.469304	-1.122949	0.771956
H	-1.32915	-1.504276	0.397703
H	0.257887	-1.825404	0.74774
N	-0.706011	1.203679	0.497158
O	-0.062144	2.151543	0.932593
O	-1.938783	1.145074	0.457841
F	2.665781	0.0	0.0
