15

C	-0.20448	0.194626	-1.496908
C	0.0	0.0	0.0
Br	-2.013778	1.169525	-1.897951
H	1.105063	0.0	0.0
H	-0.476493	-0.770011	-1.92464
N	0.890609	0.845958	-2.068862
H	1.073237	0.538095	-3.010993
H	1.71587	0.745422	-1.453819
N	-0.589029	-1.199271	0.485926
H	-1.553957	-1.03263	0.749661
H	-0.08595	-1.493466	1.313648
N	-0.400048	1.227556	0.769914
O	-1.194183	1.094446	1.705573
O	0.113773	2.29062	0.440607
F	2.620521	0.0	0.0
