15

C	-0.266978	-0.04062	-1.528079
C	0.0	0.0	0.0
Br	-0.808207	1.730672	-2.311099
H	1.093029	0.0	0.0
H	-1.14514	-0.651719	-1.738648
N	0.891725	-0.537758	-2.183998
H	0.800105	-1.535309	-2.317005
H	1.720646	-0.347963	-1.596336
N	-0.470572	-1.24474	0.540997
H	-1.422047	-1.13504	0.876139
H	0.124688	-1.497345	1.321
N	-0.572646	1.184751	0.710761
O	0.06206	2.231461	0.672083
O	-1.661643	1.04985	1.290449
F	2.640009	0.0	0.0
