15

C	-0.501806	0.079683	-1.434862
C	0.0	0.0	0.0
Br	0.157875	-1.581438	-2.398234
H	1.093955	0.0	0.0
H	0.01579	0.876638	-1.959608
N	-1.907121	0.236952	-1.545493
H	-2.198086	0.301453	-2.511839
H	-2.403756	-0.530603	-1.111653
N	-0.41973	-1.111407	0.788656
H	-1.236414	-1.59809	0.447862
H	0.361037	-1.750394	0.837577
N	-0.457155	1.302108	0.613081
O	-0.120889	2.3227	0.008263
O	-1.107503	1.303279	1.654637
F	2.559156	0.0	0.0
