15

C	-0.247864	-0.176979	-1.505957
C	0.0	0.0	0.0
Br	-0.306888	1.585804	-2.431734
H	1.091146	0.0	0.0
H	-1.225879	-0.607995	-1.727509
N	0.818317	-0.954275	-2.062688
H	1.6784	-0.732764	-1.532707
H	0.605527	-1.939092	-1.978539
N	-0.417669	-1.161157	0.746842
H	0.37572	-1.780047	0.83898
H	-1.209033	-1.640697	0.335389
N	-0.716005	1.173895	0.56008
O	-1.948529	1.103682	0.546363
O	-0.076157	2.120447	1.003138
F	2.64005	0.0	0.0
