15

C	-0.610796	0.031632	-1.395502
C	0.0	0.0	0.0
Br	0.108869	-1.512599	-2.37817
H	1.099911	0.0	0.0
H	-0.255177	0.898866	-1.944396
N	-2.051471	-0.031658	-1.436622
H	-2.326649	-0.713282	-0.73362
H	-2.406895	0.879015	-1.164498
N	-0.490079	-1.149535	0.749305
H	0.324818	-1.735279	0.898706
H	-0.777549	-0.82016	1.663963
N	-0.406196	1.254308	0.677021
O	-0.450005	2.287132	-0.00048
O	-0.640943	1.23736	1.891028
F	2.532961	0.0	0.0
