15

C	-0.078686	-0.063818	-1.533115
C	0.0	0.0	0.0
Br	-1.922897	0.24799	-2.214036
H	1.098266	0.0	0.0
H	0.106971	-1.112742	-1.773796
N	0.881371	0.745218	-2.234441
H	1.755397	0.529468	-1.72182
H	0.68533	1.710834	-1.989466
N	-0.543248	-1.094987	0.728189
H	0.136145	-1.841996	0.739396
H	-1.426213	-1.415961	0.350591
N	-0.543984	1.29036	0.493798
O	-1.464811	1.283381	1.310942
O	-0.058293	2.321696	0.016659
F	2.605913	0.0	0.0
