16

C	-0.536589	-0.046078	-1.439115
C	0.0	0.0	0.0
F	-0.361152	1.240149	-1.952504
H	1.088192	0.0	0.0
H	-0.372465	-0.867015	0.547991
C	0.311277	-0.997305	-2.253955
H	1.355334	-0.684	-2.204699
H	0.245386	-2.01422	-1.856954
H	-0.045462	-0.987564	-3.285673
N	-1.938649	-0.346271	-1.580558
H	-2.45652	0.12291	-0.845139
H	-2.078586	-1.343374	-1.478096
N	-0.5498	1.190969	0.687654
O	0.1669	2.168402	0.855773
O	-1.743588	1.128812	1.019173
Br	3.591777	0.0	0.0
