16

C	-0.435133	0.025105	-1.46465
C	0.0	0.0	0.0
F	-0.251053	-1.289328	-1.970914
H	1.089193	0.0	0.0
H	-0.383148	0.880079	0.513046
C	-1.897926	0.340726	-1.695475
H	-2.526095	-0.391546	-1.189537
H	-2.110482	0.305935	-2.767699
H	-2.127988	1.336881	-1.317209
N	0.412891	0.95976	-2.105674
H	1.391479	0.761196	-1.899956
H	0.261882	0.952538	-3.106466
N	-0.559669	-1.179388	0.693979
O	-1.691544	-1.04835	1.176478
O	0.098102	-2.212088	0.727156
Br	3.56108	0.0	0.0
