16

C	-0.44869	0.027414	-1.46972
C	0.0	0.0	0.0
F	-0.347898	-1.282818	-1.939839
H	1.089935	0.0	0.0
H	-0.366393	0.893567	0.507172
C	-1.885452	0.459375	-1.669709
H	-2.03385	1.485652	-1.322743
H	-2.55177	-0.193548	-1.105503
H	-2.118916	0.399959	-2.73417
N	0.445288	0.824858	-2.262517
H	0.27282	1.80909	-2.099645
H	1.409248	0.627928	-1.992329
N	-0.571855	-1.156272	0.722673
O	-1.709396	-1.010424	1.19011
O	0.081563	-2.191577	0.784229
Br	3.548801	0.0	0.0
