16

C	-0.381907	-0.032014	-1.471321
C	0.0	0.0	0.0
F	-1.774685	-0.196226	-1.583664
H	1.089856	0.0	0.0
H	-0.400497	-0.886183	0.485358
C	-0.031059	1.219708	-2.251678
H	-0.602012	2.082405	-1.911739
H	-0.260683	1.038592	-3.306464
H	1.033725	1.429804	-2.137747
N	0.236497	-1.233549	-1.976744
H	1.207295	-1.259266	-1.670106
H	0.237676	-1.207754	-2.989931
N	-0.531585	1.166042	0.731748
O	-1.38794	0.952836	1.593842
O	-0.091943	2.279871	0.447955
Br	3.488634	0.0	0.0
