16

C	-0.538482	-0.110971	-1.434959
C	0.0	0.0	0.0
F	-0.395445	1.196316	-1.922906
H	1.088173	0.0	0.0
H	-0.397377	0.902487	0.460589
C	0.291665	-1.013495	-2.315844
H	-0.076602	-0.937161	-3.341102
H	0.232827	-2.046501	-1.971668
H	1.335551	-0.70065	-2.260912
N	-1.935728	-0.438445	-1.52362
H	-2.447827	-0.079856	-0.72731
H	-2.06294	-1.440027	-1.561389
N	-0.501248	-1.134802	0.804465
O	-1.325565	-0.889328	1.690427
O	-0.11486	-2.265329	0.51599
Br	3.546793	0.0	0.0
