16

C	-0.375011	-0.043124	-1.481217
C	0.0	0.0	0.0
F	-1.757701	-0.264081	-1.569011
H	1.090358	0.0	0.0
H	-0.400878	0.879006	0.500347
C	-0.063477	1.310034	-2.085513
H	0.992688	1.547799	-1.935292
H	-0.676167	2.083429	-1.617809
H	-0.282909	1.268208	-3.153372
N	0.270577	-1.072998	-2.248042
H	1.268388	-0.871121	-2.245443
H	0.163665	-1.949069	-1.7483
N	-0.507083	-1.161486	0.763017
O	-0.299009	-2.292203	0.321049
O	-1.112074	-0.932168	1.810419
Br	3.480249	0.0	0.0
