19

C	-0.480383	-0.015812	-1.455833
C	0.0	0.0	0.0
Br	0.136325	1.717798	-2.285643
H	1.089828	0.0	0.0
C	0.217618	-1.097179	-2.269971
H	-0.139152	-2.082055	-1.954341
H	-0.005373	-0.961488	-3.332211
H	1.297483	-1.040569	-2.098338
N	-1.919584	-0.019355	-1.524101
H	-2.301206	-0.56181	-0.756187
H	-2.236829	-0.402295	-2.408093
N	-0.416131	-1.301966	0.593317
O	-1.447382	-1.337454	1.286702
O	0.28652	-2.292497	0.376281
C	-0.523877	1.136824	0.852268
H	-0.023998	2.051597	0.536732
H	-0.254897	0.95001	1.893965
H	-1.60309	1.267802	0.779595
H	2.745361	0.0	0.0
