19

C	-0.501245	-0.039711	-1.457243
C	0.0	0.0	0.0
Br	0.178797	1.608191	-2.324139
H	1.0901	0.0	0.0
C	0.100792	-1.216541	-2.201203
H	-0.122918	-1.125331	-3.26463
H	-0.336501	-2.149053	-1.831607
H	1.179294	-1.241353	-2.021624
N	-1.946681	-0.002631	-1.647444
H	-2.303803	0.87694	-1.290554
H	-2.345168	-0.734324	-1.062287
N	-0.438275	-1.285037	0.612578
O	-1.553169	-1.324856	1.168004
O	0.314858	-2.257907	0.531931
C	-0.510063	1.143658	0.850044
H	-0.161555	0.996905	1.875113
H	-1.598741	1.222413	0.868434
H	-0.070593	2.071942	0.484826
H	2.77705	0.0	0.0
