19

C	-0.497564	0.104708	-1.437687
C	0.0	0.0	0.0
Br	0.069213	-1.588217	-2.476692
H	1.089361	0.0	0.0
C	-2.007728	0.130623	-1.605502
H	-2.457027	-0.777453	-1.203942
H	-2.415911	0.993176	-1.074165
H	-2.269838	0.208049	-2.663242
N	0.135652	1.246064	-1.984025
H	-0.031064	1.315383	-2.980308
H	1.142368	1.194082	-1.812616
N	-0.485271	-1.24425	0.658499
O	-1.571888	-1.199666	1.257126
O	0.216746	-2.24997	0.589191
C	-0.408842	1.196049	0.847262
H	0.046912	2.088377	0.419792
H	-1.48719	1.328806	0.931992
H	0.005117	1.053723	1.848831
H	2.77643	0.0	0.0
