19

C	-0.522403	0.092683	-1.430814
C	0.0	0.0	0.0
Br	0.219993	-1.443021	-2.582452
H	1.089386	0.0	0.0
C	-2.027184	-0.057232	-1.559846
H	-2.345869	-1.043262	-1.217143
H	-2.521602	0.709544	-0.957669
H	-2.333521	0.056	-2.603831
N	-0.052923	1.328957	-1.953325
H	-0.241617	1.378243	-2.94778
H	0.955286	1.377224	-1.807586
N	-0.485274	-1.236358	0.660515
O	0.060261	-2.300255	0.369378
O	-1.409047	-1.141757	1.484565
C	-0.395678	1.208548	0.836448
H	0.103508	2.085363	0.427485
H	-1.469914	1.385148	0.885268
H	-0.022936	1.049809	1.850324
H	2.720972	0.0	0.0
