17

C	0.0	0.0	0.0
C	-0.25532	0.187872	-1.508418
F	1.389778	0.0	0.0
H	0.338705	-0.571137	-2.014483
C	-0.387444	1.092905	0.992868
H	0.370124	1.874978	0.958155
H	-0.391364	0.64354	1.988757
H	-1.384705	1.444553	0.765723
C	-0.472394	-1.330879	0.39531
N	-0.55754	-2.436277	0.788874
N	0.307647	1.479689	-2.020169
O	0.092928	2.51508	-1.403105
O	0.927976	1.397936	-3.082751
N	-1.630305	0.049896	-2.110551
O	-2.208753	1.068722	-2.456714
O	-1.934548	-1.100488	-2.389781
F	-2.410006	0.0	0.0
