17

C	0.0	0.0	0.0
C	-0.680713	-0.028723	-1.352802
F	1.375265	0.0	0.0
H	-1.826732	0.017524	-1.009105
C	-0.44737	1.231381	0.783165
H	-1.537863	1.225513	0.794949
H	-0.033984	1.159107	1.791094
H	-0.057649	2.129932	0.302679
C	-0.421353	-1.209216	0.744342
N	-0.649405	-2.156327	1.399664
N	-0.400556	-1.243671	-2.154647
O	-1.050521	-1.34601	-3.194528
O	0.423202	-2.061903	-1.746554
N	-0.234194	1.120066	-2.182924
O	0.743644	0.955395	-2.913967
O	-0.859522	2.172391	-2.06345
F	-2.827366	0.0	0.0
