17

C	0.0	0.0	0.0
C	-0.595588	0.012834	-1.396025
F	1.376893	0.0	0.0
H	-1.72074	0.079875	-1.166763
C	-0.437339	1.235752	0.778502
H	-0.075569	1.130194	1.803519
H	-1.526778	1.265503	0.740357
H	0.020822	2.120661	0.33312
C	-0.447829	-1.2141	0.711102
N	-0.641197	-2.167295	1.368813
N	-0.267933	-1.188966	-2.212134
O	0.470295	-2.053299	-1.745373
O	-0.787722	-1.218873	-3.325916
N	-0.040447	1.167813	-2.15898
O	1.014568	0.992914	-2.769235
O	-0.657024	2.228614	-2.092767
F	-2.743105	0.0	0.0
