17

C	0.0	0.0	0.0
C	-0.579508	0.010408	-1.40501
F	1.375772	0.0	0.0
H	-1.700176	0.098666	-1.198686
C	-0.435356	1.237491	0.774264
H	-1.52458	1.271138	0.734074
H	-0.074706	1.132862	1.80001
H	0.028623	2.118715	0.327566
C	-0.459776	-1.217287	0.698073
N	-0.671781	-2.185525	1.328956
N	-0.263577	-1.208486	-2.203623
O	-0.812241	-1.264307	-3.302455
O	0.502046	-2.052127	-1.74361
N	0.01692	1.141802	-2.174337
O	1.057785	0.923826	-2.794317
O	-0.55538	2.22637	-2.101493
F	-2.728733	0.0	0.0
