17

C	0.0	0.0	0.0
C	-0.555158	-0.01603	-1.439201
F	1.394231	0.0	0.0
H	-1.266865	-0.819009	-1.567146
C	-0.340491	1.184602	0.905319
H	0.023472	0.921733	1.902425
H	-1.415705	1.320225	0.905308
H	0.200702	2.059841	0.552301
C	-0.403523	-1.270459	0.628367
N	-0.478787	-2.329458	1.132383
N	0.602554	-0.260035	-2.386722
O	1.107686	0.690707	-2.974532
O	0.961343	-1.430634	-2.46119
N	-1.246249	1.204422	-1.945024
O	-0.884797	2.30771	-1.554087
O	-2.077604	0.99237	-2.822198
F	-2.444386	0.0	0.0
