16

C	0.0	0.0	0.0
C	-0.233291	0.120727	-1.53575
Cl	1.865291	0.0	0.0
H	0.352073	0.967769	-1.893066
H	-0.270504	0.96312	0.433154
N	-0.618297	-1.033014	0.723922
H	-0.633848	-1.878453	0.17049
H	-1.596821	-0.745559	0.881085
C	-1.667809	0.236351	-2.002765
H	-2.113034	1.148984	-1.609499
H	-2.309691	-0.547426	-1.604824
H	-1.679802	0.258045	-3.098509
N	0.381861	-1.042399	-2.255331
O	1.127908	-0.802205	-3.203293
O	0.064579	-2.176081	-1.894318
H	-3.613852	0.0	0.0
