16

C	0.0	0.0	0.0
C	-0.41455	0.004426	-1.473271
Cl	1.844449	0.0	0.0
H	-0.055604	0.930072	-1.925097
H	-0.272258	0.967216	0.420868
N	-0.578527	-1.026709	0.743572
H	-0.487577	-0.926734	1.741152
H	-0.345705	-1.948898	0.410776
C	-1.902356	-0.217304	-1.682321
H	-2.17115	0.05431	-2.707349
H	-2.566475	0.31059	-0.976095
H	-2.152881	-1.262102	-1.505542
N	0.325183	-1.062198	-2.22766
O	0.861848	-0.747281	-3.288653
O	0.308341	-2.204087	-1.765154
H	-4.413783	0.0	0.0
