16

C	0.0	0.0	0.0
C	-0.52653	0.146021	-1.425523
Cl	1.779189	0.0	0.0
H	-1.621036	0.246735	-1.262258
H	-0.280166	0.913916	0.537046
N	-0.546074	-1.200256	0.55382
H	-0.279704	-1.23247	1.528971
H	-1.576496	-1.010345	0.50494
C	-0.16472	-0.982496	-2.356055
H	-0.566743	-0.793069	-3.353293
H	-0.594051	-1.898372	-1.960626
H	0.916458	-1.10588	-2.438292
N	-0.059359	1.445857	-1.97781
O	-0.546728	2.479291	-1.517068
O	0.794756	1.433864	-2.86687
H	-3.012453	0.0	0.0
