16

C	0.0	0.0	0.0
C	-0.512874	0.040758	-1.443069
Cl	1.789614	0.0	0.0
H	-1.607007	0.198877	-1.263471
H	-0.295687	0.941785	0.460498
N	-0.545807	-1.062384	0.783773
H	-1.570808	-0.865732	0.739769
H	-0.379488	-1.948501	0.317883
C	-0.25453	-1.19606	-2.267528
H	-0.634035	-1.062098	-3.280233
H	0.810211	-1.430193	-2.328978
H	-0.789704	-2.034509	-1.818887
N	0.005648	1.260362	-2.11692
O	0.541677	1.158225	-3.225644
O	-0.145041	2.330419	-1.524038
H	-2.98229	0.0	0.0
