16

C	0.0	0.0	0.0
C	-0.535148	0.073973	-1.417276
Cl	1.783394	0.0	0.0
H	-1.638121	0.172992	-1.231678
H	-0.275259	0.936442	0.493772
N	-0.538177	-1.175405	0.627659
H	-0.283902	-1.160071	1.61974
H	-1.569734	-1.005528	0.571861
C	-0.193302	-1.11364	-2.28315
H	0.880023	-1.175079	-2.472808
H	-0.711602	-1.054368	-3.241617
H	-0.512857	-2.01013	-1.751604
N	-0.094317	1.359448	-2.033188
O	0.462327	1.334821	-3.136945
O	-0.338464	2.395041	-1.409588
H	-3.003185	0.0	0.0
