13
Coordinates from ORCA-job run
  C   -0.34378060838391     -0.08526400153581     -0.30242407832631
  C   0.76179707688348     -0.60078102384770      0.60375781880687
  H   -0.15756833734463     -0.36062136869110     -1.34878326601350
  H   0.65029329777799     -1.68461727112565      0.70900281544977
  H   0.65353993831942     -0.14962481508357      1.59090493871191
  N   -0.34733786774087      1.42802972557218     -0.32573731978630
  O   -1.14311707990784      1.92118562008914     -1.12047470191258
  O   0.39118645490151      2.04068563214363      0.43654954350428
  N   -1.63741501710080     -0.45802311674996      0.21723165767583
  H   -2.36101944280761     -0.14881006050468     -0.42104023293973
  H   -1.70021694515172     -1.46417579905596      0.30766763785947
  C   2.08748658045960     -0.31940561293245      0.05924526706608
  N   3.14515195009539     -0.11757790827808     -0.40590008009579
