13
Coordinates from ORCA-job run
  C   -0.35545342339906     -0.06463259881326     -0.29544431508773
  C   0.77726394715028     -0.64583021956168      0.53394388988980
  H   -0.21419776146636     -0.27880055801905     -1.36290581807557
  H   0.70827131437253     -0.25954395276083      1.55174632826486
  H   0.65976120975506     -1.73347741246905      0.57237153017382
  N   -0.34160771329200      1.44696600449533     -0.22696363611868
  O   0.42455860343686      2.00465276183710      0.55028964047841
  O   -1.15737897967701      1.99511193142046     -0.96367900132705
  N   -1.63273997078892     -0.45451711143937      0.25183513659465
  H   -2.37646394260021     -0.09947439034440     -0.33764373248803
  H   -1.70519102546563     -1.46357832907145      0.28398826504872
  C   2.08566352972989     -0.33750123306856     -0.03707811695047
  N   3.12951421224458     -0.10837489220524     -0.52046017040273
