14

C	-0.300433	0.024981	-1.534335
C	0.0	0.0	0.0
Cl	0.131537	-1.589044	-2.177663
H	1.097218	0.0	0.0
C	-1.728818	0.250726	-1.792905
N	-2.87178	0.452366	-1.976946
N	0.48861	1.013006	-2.218073
H	0.195671	1.940983	-1.9256
H	1.463604	0.879409	-1.93952
C	-0.570271	-1.132416	0.712954
N	-1.048802	-2.036939	1.290198
C	-0.44783	1.264304	0.578665
N	-0.80473	2.303817	0.995072
Cl	3.147701	0.0	0.0
