14

C	-0.279593	-0.106783	-1.51581
C	0.0	0.0	0.0
Cl	-2.022226	-0.46566	-1.838562
H	1.098916	0.0	0.0
C	-0.021708	1.195446	-2.160153
N	0.226384	2.211729	-2.697758
N	0.524388	-1.1855	-2.000132
H	1.486827	-1.049305	-1.678322
H	0.502194	-1.224491	-3.011624
C	-0.465041	-1.193712	0.699483
N	-0.827719	-2.139191	1.29404
C	-0.545943	1.209488	0.598079
N	-0.99258	2.181708	1.082848
Cl	3.142237	0.0	0.0
