14

C	-0.531611	-0.007195	-1.468354
C	0.0	0.0	0.0
Cl	0.16753	1.417834	-2.284595
H	1.095979	0.0	0.0
C	-0.057888	-1.223823	-2.141387
N	0.244574	-2.21518	-2.693785
N	-1.967994	0.053394	-1.613817
H	-2.313484	0.884127	-1.143576
H	-2.382672	-0.768103	-1.184768
C	-0.509264	-1.19041	0.677491
N	-0.963568	-2.150488	1.180924
C	-0.500466	1.193357	0.677639
N	-0.950807	2.148436	1.193092
Cl	3.129705	0.0	0.0
