14

C	-0.507098	-0.019796	-1.461125
C	0.0	0.0	0.0
Cl	0.310641	1.364943	-2.322228
H	1.095459	0.0	0.0
C	-0.079197	-1.249452	-2.136872
N	0.189817	-2.234006	-2.718162
N	-1.930086	0.053111	-1.502648
H	-2.247926	0.908315	-1.059483
H	-2.263701	0.029952	-2.458795
C	-0.486157	-1.182052	0.710538
N	-0.860426	-2.137257	1.282409
C	-0.487087	1.211127	0.657575
N	-0.91486	2.184178	1.158309
Cl	3.13831	0.0	0.0
