14

C	-0.286995	0.034088	-1.524536
C	0.0	0.0	0.0
Cl	0.076176	-1.653372	-2.174656
H	1.097839	0.0	0.0
C	-1.701304	0.268916	-1.836154
N	-2.832455	0.468269	-2.084478
N	0.530659	1.047977	-2.063171
H	0.47064	1.092509	-3.07195
H	1.498746	0.917777	-1.75884
C	-0.555655	-1.15726	0.686242
N	-1.011005	-2.070297	1.268104
C	-0.468774	1.23817	0.619489
N	-0.841281	2.227223	1.132332
Cl	3.1556	0.0	0.0
