13

C	0.031284	-0.038022	0.041126
C	-0.552963	-0.400339	-1.319957
F	1.42559	0.173514	-0.116657
H	-0.345004	0.452441	-1.972136
H	-1.655762	-0.410033	-1.188085
N	-0.606494	1.119729	0.506777
H	-1.63621	1.07096	0.188561
H	-0.523246	1.201854	1.511623
C	-0.031788	-1.19512	0.981222
N	-0.104257	-2.061587	1.771858
C	0.0186	-1.60912	-1.890772
N	0.461319	-2.583732	-2.374119
F	-2.897764	0.644753	-0.482619
