13

C	0.017804	-0.019959	0.020243
C	-0.518346	-0.068625	-1.40781
F	1.421414	0.088977	0.004272
H	-1.623996	-0.003934	-1.263187
H	-0.227977	-1.004171	-1.892849
N	-0.556118	1.076008	0.694235
H	-1.601526	0.97309	0.503176
H	-0.368325	1.007104	1.687933
C	-0.226775	-1.345395	0.667679
N	-0.387409	-2.381087	1.198433
C	-0.016303	1.049968	-2.193824
N	0.375791	1.916555	-2.882113
F	-2.868986	0.356615	-0.119526
