13

C	0.00379	-0.011056	0.003403
C	-0.486216	-0.085752	-1.452368
F	1.404725	0.056172	-0.006911
H	-0.14218	-1.002768	-1.939307
H	-1.593393	-0.074545	-1.308091
N	-0.526109	1.067648	0.763665
H	-0.28788	1.925316	0.271639
H	-1.562833	0.902747	0.644344
C	-0.346601	-1.290955	0.666252
N	-0.513939	-2.335757	1.172605
C	-0.026593	1.071316	-2.204843
N	0.336635	2.011732	-2.80805
F	-2.781698	0.13813	-0.065387
