13

C	0.012584	-0.025124	0.011116
C	-0.53377	0.165104	-1.401176
F	1.415761	0.094935	0.004566
H	-0.245735	-0.675036	-2.038379
H	-1.638779	0.203328	-1.240978
N	-0.563021	0.93573	0.86475
H	-1.609212	0.867098	0.660958
H	-0.371778	0.698947	1.831528
C	-0.219284	-1.442026	0.429352
N	-0.388865	-2.54123	0.807918
C	-0.038375	1.400624	-1.992048
N	0.34917	2.370948	-2.527521
F	-2.880187	0.373791	-0.053474
