13
Coordinates from ORCA-job run
  C   -0.65277999333221     -0.29469072074263     -0.11778162728195
  C   0.86285799619477     -0.30719956743461      0.08439488595056
  F   -1.19191807486452     -0.95511071017579      1.01572389418497
  H   1.33575853756751     -0.03311969257080     -0.86160854554054
  H   1.15661149974693     -1.33270915186636      0.33956140141957
  C   -1.02273978992977     -1.13032211658474     -1.27665240486883
  N   -1.28470196804125     -1.77739993917225     -2.22019877135729
  N   -1.15775127953488      1.00054914495467     -0.23253754597869
  H   -0.50342022498330      1.72434093585048      0.01722712465921
  H   -1.81597888260911      1.19952821950831     -0.96272686646200
  N   1.19762191501783      0.69721862435090      1.08522540789806
  H   2.20014615584414      0.82043920307795      1.13445863263800
  H   0.87529410892389      0.38747577080486      1.99391441473892
