13
Coordinates from ORCA-job run
  C   -0.65092964219492     -0.17844863900164      0.04816703274698
  C   0.83635873847479     -0.48367637290559      0.16991651740792
  F   -1.27961098863518     -0.36559776085865      1.25601515159525
  H   0.93573169931424     -1.52911886038837      0.47345256511685
  H   1.26503434265060     -0.39172083747329     -0.84292439723011
  C   -1.27667993008439     -1.13041221980852     -0.91105097479006
  N   -1.74568713431718     -1.84358423794751     -1.71790594516662
  N   -0.84630019008727      1.20291900798975     -0.31196462709420
  H   -0.50743020907344      1.37392641183764     -1.25157285022971
  H   -1.83448104293177      1.42696606264375     -0.28144259902689
  N   1.42315433938698      0.37142515543675      1.18280252201742
  H   1.26268597488641      1.34069868636865      0.94322604356266
  H   2.41915404261112      0.20662360410703      1.24028156109049
