13
Coordinates from ORCA-job run
  C   -0.71733344585761     -0.18204773674015      0.01503069965518
  C   0.59113934148024     -0.28015631422483      0.78380014465746
  F   -1.73417576523578     -0.62004775580925      0.88556020992395
  H   0.67468268329994     -1.29749233815286      1.17126215123284
  H   0.49767019601237      0.39829235312094      1.64814643049621
  C   -0.73418104571453     -1.09258944324385     -1.14533961223673
  N   -0.79894487071379     -1.80854497840813     -2.07229371052285
  N   -0.93203340079270      1.14791858005194     -0.42803678094408
  H   -1.02913508845771      1.76545421371787      0.36958594812529
  H   -1.75399569034269      1.22176642090815     -1.01394865132163
  N   1.69015958331786     -0.01078304729257     -0.12070922883047
  H   1.66717880067692      0.95489750779716     -0.41904013478943
  H   2.57796870232748     -0.19866746172441      0.32398253455426
