18
Coordinates from ORCA-job run
  C   -0.76955395217552     -0.33851963218903      0.30951296282486
  C   0.75594549392074     -0.26825798062706      0.41772225094685
  F   -1.18375070139431     -1.48670290130587      0.92394982861011
  H   1.00562264888391     -0.56477538539559      1.43784188425600
  N   -1.25702159409949      0.80849415553985      1.19354263168826
  O   -1.66806624107183      1.81854913274300      0.63067815111495
  O   -1.13796467359125      0.64047120168304      2.40175859105523
  C   -1.38537021561931     -0.25667737545029     -1.05854265710554
  H   -1.04683211734236      0.61943676214524     -1.60555216946619
  H   -2.46971614704554     -0.21097451362607     -0.95399810091158
  H   -1.12061301315320     -1.15359339651915     -1.61749093318306
  C   1.36157520338151      1.06934433429599      0.04562263141123
  H   1.06825122706644      1.82970356243363      0.77049604367803
  H   1.05719392459937      1.38576211207930     -0.95048142893078
  H   2.44984574245620      0.99186763218536      0.06170804475657
  N   1.31400128440067     -1.35673398444014     -0.45273836352938
  O   1.45396178283476     -1.10125736904654     -1.64771967763605
  O   1.57349134794922     -2.42613635450566      0.09269031042048
