18
Coordinates from ORCA-job run
  C   -0.76181921166036     -0.16642579416983      0.33260143352727
  C   0.73904760179215     -0.44368218785117      0.15815145029238
  F   -1.05776835730730     -0.55524281340019      1.60869967094690
  H   0.85945838968532     -1.50473461714711      0.38939192991392
  N   -0.96422757495273      1.33969519664133      0.27236847190395
  O   -1.26212197437928      1.93038268550485      1.30014542151365
  O   -0.77560450505920      1.82993302671703     -0.83728728597690
  C   -1.72212650421602     -0.82347343931774     -0.62218558254037
  H   -1.58613359510363     -0.46021028861898     -1.63713070119375
  H   -1.56748601532745     -1.90213241277663     -0.60502338256257
  H   -2.73678473149113     -0.60058556921811     -0.28531855981410
  C   1.60655834637511      0.42080120978983      1.04708383852038
  H   1.26464215808626      0.33415040720845      2.07907810088865
  H   2.64446369254911      0.09136782535578      0.99067549805478
  H   1.56692363838878      1.46502079804191      0.73987920469362
  N   1.14920458372768     -0.33443512514352     -1.28673363767036
  O   1.81031605756887      0.63870622095390     -1.63245994324502
  O   0.79445800132380     -1.26013512256980     -2.01493592725243
