18
Coordinates from ORCA-job run
  C   -0.76949341076136     -0.15779389045819      0.31895170586578
  C   0.73121488343075     -0.45205979930213      0.17118126847547
  F   -1.09244946281575     -0.54317920161168      1.58940412748213
  H   0.83498340446423     -1.51490611706666      0.40215430518040
  N   -0.95437698194650      1.35041824566542      0.25518791837903
  O   -1.26386955481258      1.94463122079278      1.27740854526732
  O   -0.74186886611472      1.83782568162090     -0.85139916482183
  C   -1.71947370680788     -0.80461426045609     -0.65307965578231
  H   -2.73766108167028     -0.56992926467903     -0.33544927222807
  H   -1.56053394995342     -0.44421026638345     -1.66567773095664
  H   -1.57735222306099     -1.88494816828522     -0.63190949411872
  C   1.59210412271297      0.40125058942118      1.07702607835097
  H   2.62771888747670      0.06238638845912      1.03666779312170
  H   1.56736709941877      1.44679203305733      0.77276308053226
  H   1.23236147786853      0.31463179193098      2.10293580993619
  N   1.16831815676945     -0.34464274323113     -1.26598934745245
  O   1.84396522359515      0.62317072967034     -1.59820954285589
  O   0.81804598220694     -1.26582296914446     -2.00196642437535
