18
Coordinates from ORCA-job run
  C   -0.66953687478625      0.32542974002688      0.06874566822984
  C   0.74494111200765     -0.13033160444395     -0.28356550112554
  F   -0.59198498928147      1.36089766295513      0.94995849247627
  H   0.69851070021239     -0.69090796264595     -1.21879423966323
  N   -1.35577823829857      0.85052479253156     -1.19201769956681
  O   -1.80992614494388      1.98235846088423     -1.16690919658996
  O   -1.43273805719124      0.03695998414399     -2.10571241200755
  C   -1.56240546272852     -0.75333354903385      0.63103659324551
  H   -2.56771736800019     -0.34555939071949      0.75368724851084
  H   -1.19245541882243     -1.05868978966540      1.60931036431063
  H   -1.60350811758496     -1.61231838252281     -0.03779556443278
  C   1.41827606151790     -0.91317246013870      0.82215800581175
  H   0.92890833821334     -1.88071296839790      0.94176035393801
  H   1.38641672933613     -0.36750930326327      1.76501572653673
  H   2.46302735850675     -1.08959893390594      0.56894665798753
  N   1.53080482415598      1.11798922757545     -0.61519484257306
  O   1.16289541329162      1.72423795016705     -1.61806116667751
  O   2.45027013439575      1.44273652645296      0.12743151158933
