18
Coordinates from ORCA-job run
  C   -0.77530732030014     -0.14701289173220      0.30974603574250
  C   0.72177510104462     -0.46507827003321      0.17645239967874
  F   -1.11867660171099     -0.53639643306315      1.57368844398472
  H   0.80516129234188     -1.53046891811241      0.40404450309858
  N   -0.93513439904263      1.36456880724690      0.25533006303118
  O   -0.70066979037682      1.85721261820404     -0.84438854627649
  O   -1.24836081700169      1.95560434244376      1.27827883607342
  C   -1.72490369629690     -0.77070061915393     -0.67757037864514
  H   -1.60216672150915     -1.85349775742669     -0.66169517729691
  H   -1.54744288619806     -0.40660918450856     -1.68582133687081
  H   -2.74252409124885     -0.51996779148954     -0.37058063919584
  C   1.58701801746483      0.36936707221696      1.09580449905317
  H   2.61684909119510      0.01223739824624      1.06626730020840
  H   1.58432541748695      1.41622514096787      0.79508824429152
  H   1.21379190526200      0.28529362414919      2.11710611055895
  N   1.17658391592935     -0.35898128482670     -1.25495167206866
  O   0.81978699685542     -1.27124836823035     -1.99893241838466
  O   1.87089458610506      0.59945251510178     -1.57586626698268
