18
Coordinates from ORCA-job run
  C   -0.79750037689463      0.32368954098221      0.24727569537771
  C   0.71050559727843      0.25066489691504      0.49999348692989
  F   -1.40113234248118      0.72004386156032      1.40726553226958
  H   0.97079400697020      1.14472995912792      1.06911994180650
  N   -0.95428864451361      1.49147700166877     -0.72603794638699
  O   -0.78237123730514      2.60892138980636     -0.25267761250951
  O   -1.17848156331969      1.21974305728578     -1.90157878807646
  C   -1.48678939540090     -0.90383637340256     -0.27782111695968
  H   -2.52521034654191     -0.65568115196101     -0.49919764541720
  H   -1.46247600936917     -1.67651630883654      0.48980782411061
  H   -1.01457174203500     -1.28088820640801     -1.18127257316878
  C   1.55938703280856      0.09711022190860     -0.74524067235922
  H   1.49483439517788      0.99793363815527     -1.35685003312013
  H   1.25212116414936     -0.76270010590746     -1.33795471036016
  H   2.60328120701799     -0.04025777800474     -0.45899894323005
  N   0.94990464397456     -0.89365026244943      1.44148558423858
  O   1.02250565647516     -0.62375149002213      2.63742166129380
  O   1.03948795400911     -2.01603189041839      0.94626031556152
