18
Coordinates from ORCA-job run
  C   -0.77423810222403     -0.14030481890518      0.31584465658408
  C   0.71857093815388     -0.47194335486686      0.16919943539642
  F   -1.11043084371040     -0.52763072084990      1.58227845866368
  H   0.79471964421042     -1.53909265655654      0.39089058005612
  N   -0.92014303334462      1.37263555593427      0.26415719105720
  O   -1.21645898028254      1.96614465405337      1.29074605456718
  O   -0.69270600852425      1.86366600692345     -0.83787863078166
  C   -1.73794403672643     -0.75469757292012     -0.66376709646024
  H   -2.75061260868539     -0.49719409598245     -0.34616201420884
  H   -1.56745231919295     -0.38993007746688     -1.67291468574671
  H   -1.62325283091774     -1.83842979890194     -0.65140414048172
  C   1.59903235533750      0.35118810799125      1.08424396005859
  H   1.60194098870627      1.39956432004489      0.78882380842165
  H   2.62562361531869     -0.01398578791999      1.04309999383881
  H   1.23474527024182      0.26542483573269      2.10861817997154
  N   1.16248803561271     -0.36364846501187     -1.26587851558282
  O   1.86466986074781      0.58849185917612     -1.58829222961596
  O   0.79044805527923     -1.26925799047433     -2.01060500573731
