16

C	-0.378368	0.015744	-1.480602
C	0.0	0.0	0.0
Br	-2.51656	0.161589	-1.589091
H	1.097635	0.0	0.0
C	0.00828	1.25747	-2.143379
N	0.305033	2.255984	-2.687809
N	0.085256	-1.088334	-2.165164
H	-0.074999	-1.971623	-1.70333
H	-0.113549	-1.106572	-3.153561
C	-0.456474	-1.252691	0.588635
N	-0.817486	-2.273904	1.045275
C	-0.464044	1.211527	0.80065
H	-0.010716	1.162033	1.792268
H	-1.549845	1.250843	0.89493
H	-0.105255	2.123539	0.31947
Cl	3.232444	0.0	0.0
