16

C	-0.513936	0.002078	-1.452595
C	0.0	0.0	0.0
Br	0.142821	1.592058	-2.400109
H	1.095372	0.0	0.0
C	0.018905	-1.152584	-2.194704
N	0.327616	-2.130902	-2.770307
N	-1.964088	0.052042	-1.483605
H	-2.284982	0.007015	-2.444392
H	-2.31978	-0.763906	-0.991459
C	-0.490037	-1.234842	0.613325
N	-0.965241	-2.198774	1.090363
C	-0.469377	1.208176	0.814603
H	-0.112384	1.091133	1.839186
H	-1.555598	1.306319	0.81062
H	-0.01926	2.113028	0.406921
Cl	3.275901	0.0	0.0
