16

C	-0.251704	-0.030444	-1.523532
C	0.0	0.0	0.0
Br	-2.177002	-0.355617	-1.909318
H	1.099326	0.0	0.0
C	0.039911	1.286921	-2.100185
N	0.25812	2.34681	-2.558245
N	0.51905	-1.031931	-2.219048
H	0.285923	-1.940407	-1.827968
H	1.501139	-0.851052	-1.989436
C	-0.439921	-1.262256	0.582441
N	-0.801598	-2.273543	1.059897
C	-0.556131	1.200781	0.751554
H	-0.265049	1.134524	1.80166
H	-1.646495	1.243321	0.685875
H	-0.131239	2.119384	0.343232
Cl	3.255037	0.0	0.0
