16

C	-0.537403	-0.212118	-1.438184
C	0.0	0.0	0.0
Br	0.132876	1.239129	-2.583891
H	1.10807	0.0	0.0
C	-0.012197	-1.466576	-1.989474
N	0.339088	-2.501485	-2.423637
N	-1.981356	-0.23966	-1.590345
H	-2.345299	-1.015791	-1.043847
H	-2.368857	0.624453	-1.228755
C	-0.490954	-1.129241	0.788533
N	-0.963802	-2.010205	1.408372
C	-0.449762	1.309185	0.651444
H	-0.029074	1.351788	1.657335
H	-0.055218	2.155742	0.090888
H	-1.537809	1.391656	0.731984
Cl	3.265218	0.0	0.0
