16

C	-0.30263	0.203948	-1.498256
C	0.0	0.0	0.0
Br	-0.057146	-1.582369	-2.467349
H	1.107674	0.0	0.0
C	-1.705725	0.533715	-1.760111
N	-2.831661	0.825332	-1.927177
N	0.564823	1.20421	-1.975772
H	1.525554	1.002701	-1.689499
H	0.499535	1.33162	-2.977527
C	-0.559125	-1.222777	0.551113
N	-1.047513	-2.155554	1.071935
C	-0.461404	1.209973	0.822464
H	-1.550912	1.296438	0.837728
H	-0.099985	1.095206	1.845673
H	-0.028068	2.116442	0.401193
Cl	3.283258	0.0	0.0
