14
Coordinates from ORCA-job run
  C   0.56218162474739      0.37134039327899     -0.50018600176044
  C   -0.51554179939292     -0.10344719755518      0.53982519979918
  Cl  -0.27963611087463      0.52138753380486     -2.07474740898316
  H   0.00213694230510     -0.31912533909740      1.47935085565739
  N   1.71034112696814     -0.45880968824188     -0.65787491718731
  H   2.34181410862981     -0.37448709456270      0.12934101562834
  H   1.45338729625003     -1.42772283126185     -0.80017509877951
  C   1.00116840466783      1.70084727208535     -0.06113654841867
  N   1.37921477477160      2.74161606551341      0.33244614106953
  N   -1.10754075928086     -1.42199462739191      0.09099751217089
  O   -0.32673453336502     -2.37052890012621      0.11570347406552
  O   -2.27575076713929     -1.44371669992205     -0.26623243113044
  C   -1.56580884866831      0.88027680117504      0.74233211868854
  N   -2.37923145961890      1.70636431230157      0.93235608918010
