14
Coordinates from ORCA-job run
  C   0.57074709165291      0.30717290948081     -0.43141972472512
  C   -0.50634962193387     -0.07833417277238      0.61367380367984
  Cl  -0.24538826941800      0.22368215848362     -2.07515003366026
  H   0.00320856994039     -0.22312345646475      1.57219223642852
  N   1.72596404976213     -0.49202751088312     -0.29258793389990
  H   1.51691626108447     -1.47592061868491     -0.40136379179548
  H   2.45751056180794     -0.20295535773693     -0.92978920433897
  C   0.93216398606559      1.71197450418401     -0.21969953234208
  N   1.25282044616971      2.82858236852203     -0.04259488538244
  N   -1.12145468216107     -1.42871959475231      0.27537975994561
  O   -2.33381441789100     -1.49335036144028      0.15324133727209
  O   -0.32390420913127     -2.35570958904340      0.17877083243056
  C   -1.55353595781790      0.92396846381391      0.73164503669995
  N   -2.37388380813001      1.75376025729370      0.86770209968767
