13

C	-0.338306	0.112461	-1.488829
C	0.0	0.0	0.0
F	-0.184274	-1.170921	-2.042845
H	1.093809	0.0	0.0
H	-1.383923	0.386525	-1.678759
H	-0.398194	-0.933918	0.404797
C	0.644911	1.044976	-2.162438
H	1.639917	0.774815	-1.792103
H	0.435382	2.078736	-1.869629
H	0.575498	0.963985	-3.249692
C	-0.535174	1.130261	0.732167
N	-0.983033	2.059199	1.297588
F	2.642327	0.0	0.0
