13

C	-0.433703	0.049441	-1.45783
C	0.0	0.0	0.0
F	-0.09449	1.314948	-1.953242
H	1.093035	0.0	0.0
H	0.16518	-0.672244	-2.022265
H	-0.373216	0.893983	0.511997
C	-1.913059	-0.141565	-1.716301
H	-2.129486	-0.033978	-2.783177
H	-2.477446	0.616735	-1.167808
H	-2.24094	-1.12787	-1.383177
C	-0.517977	-1.185599	0.653739
N	-0.9438	-2.154892	1.167671
F	2.586425	0.0	0.0
