19

C	0.0	0.0	0.0
C	-0.308191	-0.158645	-1.533228
Br	1.986698	0.0	0.0
H	0.355112	0.569441	-2.030119
C	-0.514363	1.335535	0.495355
H	-1.608479	1.239074	0.477939
H	-0.172225	1.535821	1.514911
H	-0.188745	2.156578	-0.151492
C	-0.553195	-1.130778	0.834954
H	-1.644792	-1.046085	0.723478
H	-0.282863	-1.002307	1.888032
H	-0.208764	-2.097377	0.472988
N	-1.656348	0.133972	-1.949577
H	-2.373365	-0.086912	-1.20297
H	-1.73285	1.136613	-2.075279
N	-0.006482	-1.531836	-1.949515
H	0.993873	-1.652708	-2.052406
H	-0.450553	-1.636405	-2.853197
F	-3.314972	0.0	0.0
