19

C	0.0	0.0	0.0
C	-0.307238	0.139869	-1.536423
Br	1.986712	0.0	0.0
H	0.368186	-0.58462	-2.024028
C	-0.561102	1.137194	0.81954
H	-0.221439	2.10227	0.448582
H	-0.297288	1.020829	1.87511
H	-1.651452	1.044515	0.701043
C	-0.510792	-1.331407	0.510912
H	-1.605262	-1.23776	0.490442
H	-0.181616	-2.159694	-0.124851
H	-0.170761	-1.51731	1.533901
N	-0.023913	1.514177	-1.962898
H	-0.443214	1.59847	-2.880911
H	0.97769	1.655287	-2.036319
N	-1.648761	-0.175672	-1.955224
H	-1.712735	-1.181044	-2.066098
H	-2.36915	0.053135	-1.215056
F	-3.302627	0.0	0.0
