19

C	0.0	0.0	0.0
C	-0.309324	0.12822	-1.536814
Br	1.986531	0.0	0.0
H	0.365709	0.925892	-1.893282
C	-0.508504	1.224731	0.732976
H	-1.603164	1.136959	0.699158
H	-0.179134	2.148864	0.246842
H	-0.165782	1.232466	1.771472
C	-0.553596	-1.262987	0.616102
H	-0.21508	-2.14863	0.08173
H	-1.645985	-1.158472	0.525358
H	-0.27844	-1.330615	1.673594
N	-1.651771	0.51343	-1.894228
H	-1.719117	1.521077	-1.802987
H	-2.369947	0.148512	-1.20828
N	-0.031465	-1.151649	-2.195337
H	0.96949	-1.285803	-2.283108
H	-0.439949	-1.067086	-3.1182
F	-3.303353	0.0	0.0
