19

C	0.0	0.0	0.0
C	-0.526945	-0.20375	-1.427163
Br	1.986919	0.0	0.0
H	-1.612656	-0.082758	-1.252708
C	-0.476344	1.34259	0.528014
H	-0.126051	1.502611	1.55296
H	-1.572786	1.247368	0.500712
H	-0.139937	2.157381	-0.112079
C	-0.495058	-1.10518	0.912956
H	-0.180361	-0.919094	1.943765
H	-1.592658	-1.028495	0.822431
H	-0.12977	-2.089885	0.612664
N	-0.306007	-1.538575	-1.992847
H	-0.957427	-2.17992	-1.555295
H	0.634538	-1.851008	-1.763822
N	-0.045771	0.845733	-2.315496
H	-0.5191	0.697893	-3.200536
H	0.943872	0.685853	-2.487502
F	-3.020585	0.0	0.0
