19

C	0.0	0.0	0.0
C	-0.544466	0.130026	-1.43472
Br	1.970916	0.0	0.0
H	-1.627101	0.000611	-1.254111
C	-0.497109	1.160328	0.844983
H	-0.105023	2.113252	0.484015
H	-0.195576	1.034529	1.889302
H	-1.593751	1.095018	0.753471
C	-0.496081	-1.30312	0.605898
H	-0.153768	-1.40284	1.63985
H	-1.593085	-1.207841	0.564467
H	-0.145565	-2.173752	0.045051
N	-0.083646	-0.869593	-2.387503
H	0.917936	-0.996543	-2.275401
H	-0.537888	-1.749774	-2.182173
N	-0.222997	1.445315	-2.005752
H	-0.883868	2.112088	-1.620245
H	-0.443032	1.357821	-2.992219
F	-3.045708	0.0	0.0
