19

C	0.0	0.0	0.0
C	-0.5412	-0.038959	-1.443187
Br	1.967476	0.0	0.0
H	-1.62402	0.083162	-1.261597
C	-0.5009	1.261157	0.68529
H	-0.159019	1.297358	1.723448
H	-0.15392	2.16657	0.179812
H	-1.597738	1.162156	0.636304
C	-0.501441	-1.212123	0.765836
H	-0.204868	-1.154103	1.817571
H	-0.108289	-2.139823	0.345473
H	-1.597753	-1.138291	0.673624
N	-0.222872	-1.318321	-2.092516
H	-0.888952	-2.003611	-1.751552
H	-0.43809	-1.169639	-3.072776
N	-0.073545	1.014477	-2.331978
H	0.929433	1.124297	-2.213987
H	-0.517434	1.884881	-2.069232
F	-3.044284	0.0	0.0
