19

C	0.0	0.0	0.0
C	-0.3045	0.05883	-1.542246
Br	1.987295	0.0	0.0
H	0.371069	-0.690079	-1.990064
C	-0.557848	1.179817	0.759061
H	-1.648699	1.083889	0.647645
H	-0.216034	2.123612	0.338764
H	-0.291743	1.118301	1.818914
C	-0.511821	-1.302048	0.57943
H	-1.60626	-1.208006	0.55383
H	-0.171091	-1.434531	1.610636
H	-0.182502	-2.16285	-0.011691
N	-0.021365	1.407991	-2.041206
H	0.979261	1.546365	-2.119651
H	-0.43743	1.440392	-2.963632
N	-1.645635	-0.278367	-1.949763
H	-1.709616	-1.288947	-1.992252
H	-2.36443	-0.007485	-1.223185
F	-3.29281	0.0	0.0
