17

C	-0.397984	-0.012554	-1.468215
C	0.0	0.0	0.0
F	0.09352	1.085411	-2.081956
H	1.092581	0.0	0.0
C	0.073609	-1.230649	-2.137028
N	0.402454	-2.217282	-2.683275
N	-1.927888	0.006201	-1.701571
O	-2.403642	0.990847	-2.238866
O	-2.518759	-1.0003	-1.331432
C	-0.503104	-1.150753	0.848606
H	-0.041841	-1.058246	1.834024
H	-0.171871	-2.096583	0.416847
H	-1.588347	-1.151289	0.939446
N	-0.482204	1.289559	0.59102
O	-1.694832	1.508413	0.501505
O	0.332137	2.010152	1.154762
Br	3.407061	0.0	0.0
