17

C	-0.553129	0.022642	-1.41812
C	0.0	0.0	0.0
F	-1.887466	0.303705	-1.403801
H	1.092172	0.0	0.0
C	0.113743	0.904497	-2.378426
N	0.580278	1.561131	-3.233349
N	-0.416961	-1.406878	-1.976103
O	0.708169	-1.732355	-2.32256
O	-1.431402	-2.089844	-1.982136
C	-0.494609	-1.177034	0.814309
H	-0.047272	-2.092384	0.424363
H	-1.582881	-1.26288	0.807396
H	-0.14723	-1.05402	1.837583
N	-0.394265	1.304509	0.63172
O	-0.355435	2.302723	-0.084199
O	-0.685894	1.305618	1.823668
Br	3.343026	0.0	0.0
