13

C	0.0	0.0	0.0
C	-0.514927	-0.029518	-1.437612
F	1.374588	0.0	0.0
H	-1.618483	0.002776	-1.297818
H	-0.215243	-0.964307	-1.919497
N	-0.529747	1.139128	0.660353
H	-1.563486	0.959026	0.556473
H	-0.288857	1.089412	1.645264
C	-0.362976	-1.29623	0.658734
N	-0.528856	-2.30707	1.233508
C	0.007503	1.091702	-2.206485
N	0.426277	1.960226	-2.87626
F	-2.766545	0.0	0.0
