13

C	0.0	0.0	0.0
C	-0.524089	0.254809	-1.408592
F	1.384116	0.0	0.0
H	-1.623562	0.127614	-1.276602
H	-0.296565	1.296092	-1.650264
N	-0.535683	1.002237	0.854035
H	-0.320835	0.75173	1.814749
H	-1.570574	0.843339	0.702357
C	-0.344072	-1.392806	0.430318
N	-0.502267	-2.482376	0.838811
C	0.053526	-0.623972	-2.412077
N	0.511801	-1.307473	-3.250691
F	-2.773214	0.0	0.0
