13

C	0.0	0.0	0.0
C	-0.482334	-0.067946	-1.461
F	1.38342	0.0	0.0
H	-0.132628	-0.984611	-1.945237
H	-1.587943	-0.071624	-1.323245
N	-0.509512	1.097556	0.749631
H	-0.293213	1.947636	0.234561
H	-1.540786	0.911183	0.666472
C	-0.403906	-1.266029	0.664207
N	-0.558335	-2.311758	1.173861
C	-0.016169	1.089277	-2.20974
N	0.350885	2.028544	-2.81256
F	-2.73177	0.0	0.0
