19

C	0.0	0.0	0.0
C	-0.527914	0.006965	-1.454433
Br	1.978221	0.0	0.0
H	-1.614063	-0.184546	-1.277725
C	-0.439808	1.285084	0.682213
H	-1.535972	1.31158	0.603084
H	0.012805	2.170883	0.237079
H	-0.152428	1.219038	1.732545
N	-0.483159	-1.089917	0.797353
H	-1.508779	-0.93028	0.80437
H	-0.338498	-1.956549	0.290053
N	0.017602	-1.150961	-2.217635
O	-0.276277	-2.286276	-1.829449
O	0.740382	-0.933345	-3.1944
C	-0.336141	1.287692	-2.235628
H	0.705639	1.613634	-2.239212
H	-0.652595	1.144888	-3.269921
H	-0.967817	2.058017	-1.792596
H	-3.090027	0.0	0.0
