19

C	0.0	0.0	0.0
C	-0.601231	-0.012487	-1.393841
Br	2.049959	0.0	0.0
H	-1.706305	-0.200679	-1.115541
C	-0.427988	1.256138	0.727188
H	-1.530371	1.242549	0.665598
H	-0.000205	2.159795	0.294679
H	-0.122875	1.192348	1.774857
N	-0.418112	-1.110068	0.746185
H	-0.013882	-1.126546	1.669749
H	-0.313496	-1.986091	0.258189
N	-0.088021	-1.150234	-2.197526
O	-0.206976	-2.293228	-1.737619
O	0.416382	-0.923187	-3.301548
C	-0.469592	1.28249	-2.161913
H	-0.820737	1.143361	-3.183643
H	-1.105651	2.02888	-1.686114
H	0.564056	1.6369	-2.200533
H	-3.131203	0.0	0.0
