19

C	0.0	0.0	0.0
C	-0.247612	0.026611	-1.550526
Br	1.967242	0.0	0.0
H	0.295554	-0.835834	-1.935059
C	-0.495873	1.196285	0.78858
H	-0.080871	2.140529	0.442014
H	-1.591611	1.185351	0.692014
H	-0.234604	1.048966	1.841797
N	-0.558313	-1.251104	0.445002
H	-1.586605	-1.088468	0.392702
H	-0.341701	-1.356559	1.433244
N	0.423761	1.192808	-2.219967
O	1.232918	0.942313	-3.114511
O	0.072711	2.328221	-1.901058
C	-1.663241	0.017219	-2.097127
H	-2.18904	-0.880745	-1.78577
H	-2.261124	0.841589	-1.721148
H	-1.588695	0.046282	-3.191817
H	-3.395227	0.0	0.0
