19

C	0.0	0.0	0.0
C	-0.242179	0.015527	-1.559665
Br	1.979937	0.0	0.0
H	0.182799	-0.920845	-1.92999
C	-0.520559	1.213707	0.740134
H	-1.616427	1.192648	0.645651
H	-0.254867	1.114432	1.796141
H	-0.118422	2.139471	0.333894
N	-0.561687	-1.166488	0.594968
H	-1.582374	-0.993233	0.644427
H	-0.409437	-1.980364	0.005303
N	0.563338	1.05448	-2.296469
O	0.400318	2.236929	-1.998376
O	1.28306	0.664442	-3.217939
C	-1.660697	0.193396	-2.056419
H	-1.669876	0.008348	-3.137122
H	-2.36275	-0.454072	-1.525652
H	-2.022615	1.198402	-1.849503
H	-3.479848	0.0	0.0
