19

C	0.0	0.0	0.0
C	-0.348825	0.000278	-1.554359
Cl	1.798942	0.0	0.0
H	0.562694	0.345286	-2.053521
C	-0.427306	1.284866	0.696892
H	-0.017984	2.175556	0.212312
H	-1.52196	1.303624	0.683374
H	-0.079643	1.27099	1.734415
N	-0.542558	-1.176165	0.62935
H	-1.563491	-1.073924	0.481563
H	-0.397856	-1.08627	1.631964
C	-1.46707	0.938994	-1.97883
H	-1.623467	0.788547	-3.052896
H	-1.202274	1.986253	-1.807127
H	-2.38751	0.70373	-1.427513
N	-0.636809	-1.332882	-2.078427
H	-0.047834	-1.996009	-1.581836
H	-1.590138	-1.566961	-1.811967
H	-3.394186	0.0	0.0
