16

C	0.0	0.0	0.0
C	-0.447403	0.0094	-1.459951
Br	1.996527	0.0	0.0
H	-0.004205	-0.837714	-2.000107
H	-1.535784	-0.135241	-1.373613
N	-0.493647	1.125724	0.732367
H	-1.515465	0.959352	0.753413
H	-0.3515	1.940283	0.138411
C	-0.446455	-1.278228	0.679111
H	-0.103866	-1.285857	1.716033
H	-1.546167	-1.269681	0.649348
H	-0.058703	-2.159398	0.161128
N	-0.177618	1.300385	-2.095329
H	0.594359	1.229308	-2.743621
H	-1.000005	1.605459	-2.599734
H	-3.267555	0.0	0.0
