16

C	0.0	0.0	0.0
C	-0.343996	-0.036355	-1.504607
Br	1.98434	0.0	0.0
H	-0.112504	-1.060394	-1.844869
H	0.355446	0.632559	-2.018827
N	-0.452424	1.234145	0.566479
H	-1.334649	1.471836	0.117358
H	-0.630831	1.11369	1.554148
C	-0.488482	-1.230538	0.741399
H	-0.177379	-1.195305	1.790056
H	-1.585635	-1.209212	0.691327
H	-0.104055	-2.150403	0.293967
N	-1.700906	0.419011	-1.765161
H	-2.013976	0.047898	-2.655394
H	-2.419679	0.130399	-1.057242
H	-3.627164	0.0	0.0
