16

C	0.0	0.0	0.0
C	-0.284253	0.142788	-1.520314
Br	1.968049	0.0	0.0
H	0.392148	0.926666	-1.888652
H	0.051185	-0.792138	-1.997213
N	-0.506112	1.08715	0.789911
H	-1.513895	0.914675	0.885185
H	-0.41697	1.947595	0.258989
C	-0.503593	-1.30539	0.579167
H	-0.228069	-1.371811	1.634098
H	-1.597636	-1.296873	0.491188
H	-0.087813	-2.159127	0.040598
N	-1.657668	0.506834	-1.829885
H	-2.341493	0.301263	-1.065798
H	-1.978921	-0.030721	-2.626574
H	-3.493047	0.0	0.0
