16

C	0.0	0.0	0.0
C	-0.467742	-0.034306	-1.444501
Br	1.98239	0.0	0.0
H	-1.565582	-0.07623	-1.343759
H	-0.193708	0.926184	-1.903403
N	-0.514771	1.214066	0.574187
H	-1.54444	1.102538	0.456189
H	-0.34609	1.190863	1.576978
C	-0.421729	-1.256424	0.741238
H	-0.077755	-1.220285	1.779789
H	-1.519926	-1.242525	0.713444
H	-0.039878	-2.154607	0.255395
N	0.000804	-1.211821	-2.173766
H	-0.576818	-1.329662	-2.996616
H	0.954455	-1.059482	-2.482394
H	-3.197704	0.0	0.0
