16

C	0.0	0.0	0.0
C	-0.448374	-0.101112	-1.46278
Br	1.973461	0.0	0.0
H	-0.033205	-1.012607	-1.903691
H	-1.542206	-0.198224	-1.393829
N	-0.541229	1.219215	0.535777
H	-1.57095	1.066735	0.425947
H	-0.361577	1.245289	1.536416
C	-0.430132	-1.243199	0.762666
H	-0.101642	-1.189897	1.805668
H	-0.028635	-2.156698	0.313903
H	-1.528911	-1.239031	0.72189
N	-0.126007	1.036951	-2.313906
H	-0.5246	1.85367	-1.861512
H	0.881362	1.17047	-2.287024
H	-3.161983	0.0	0.0
