12
Coordinates from ORCA-job run
  C   0.39811246702960      0.26959673784397      0.24353794402783
  C   -0.65212911301200     -0.12261312020709     -0.79041509651179
  F   0.77397830720656      1.55168627951636      0.07243801559993
  H   -0.89915120977724     -1.17947009081461     -0.66961605624330
  H   -0.21521586934671      0.02634515904630     -1.78305513208687
  C   -0.03575952158832      0.04084054809243      1.62288131108024
  N   -0.40539339180632     -0.13052599677155      2.72486822305877
  N   1.62379317683887     -0.62730573311435     -0.01301434404424
  O   1.42697940520192     -1.81802583961561      0.18634041045628
  O   2.63707746164387     -0.08034679925660     -0.41115019622026
  C   -1.84692872127227      0.70294709105935     -0.64858073621767
  N   -2.80736299111796      1.36687176422143     -0.53423434289892
