12
Coordinates from ORCA-job run
  C   0.37704869887843      0.18721004209976      0.28288460504467
  C   -0.61411628265755      0.00439038571130     -0.85457370937953
  F   0.80982242282456      1.47579800019062      0.32274640413379
  H   -0.12258639134568      0.30495393726585     -1.78182328681359
  H   -0.88414781599739     -1.05186842166478     -0.93969343461362
  C   -0.16957001477144     -0.20382064088882      1.58311365774107
  N   -0.66750504913069     -0.52137171710840      2.59851975913114
  N   1.63717882136942     -0.65258316076575      0.01275720016576
  O   2.29465733334664     -0.96769117248903      0.99542666656259
  O   1.90711146152704     -0.85968549839606     -1.16397292102326
  C   -1.80583144259006      0.81452285141268     -0.62068768389043
  N   -2.76206174145328      1.46814539463262     -0.43469725705859
