12
Coordinates from ORCA-job run
  C   0.29865385976136      0.26098282711448      0.48131867726045
  C   -1.02230832526773      0.21333058709701     -0.27826813704392
  F   0.85064351806680      1.48712360277632      0.40380406006260
  H   -1.71081191092178      0.91988391657273      0.19354782298966
  H   -1.44367805572346     -0.79105167183069     -0.20106939956809
  C   0.13439951952437     -0.14217714268555      1.88004000697569
  N   -0.03154101123352     -0.44306172164070      3.00342690303116
  N   1.26246078056127     -0.74265477561829     -0.17858645109853
  O   2.26910804841040     -0.29100652713582     -0.69326395886445
  O   0.88303547027696     -1.90419471282445     -0.12460010479404
  C   -0.82437901195167      0.57432783992349     -1.67945158654830
  N   -0.66558288150299      0.85749777825145     -2.80689783240224
