12
Coordinates from ORCA-job run
  C   0.38221202294725      0.26156046770400      0.27813454141002
  C   -0.63222754488274     -0.07071286509324     -0.81104891602350
  F   0.70509958322420      1.56864072605156      0.24017568060774
  H   -0.18505307376247      0.19425302150122     -1.77460810504264
  H   -0.83383107046235     -1.14399770047242     -0.80029428157018
  C   -0.06370891530999     -0.11920499260822      1.61943346419264
  N   -0.44196156020166     -0.41529993179208      2.69157220731269
  N   1.64939872240374     -0.55462040986776     -0.03925192350450
  O   2.64476653347428      0.07035507705101     -0.36035489847817
  O   1.50019730293930     -1.76633745226154      0.03630989867460
  C   -1.86536192861807      0.68440973010870     -0.61615198003825
  N   -2.85853007175148      1.28995432967877     -0.46291568754046
