12
Coordinates from ORCA-job run
  C   0.39307914192602      0.30808312020892      0.37428999165073
  C   -1.03450677759100      0.26928674469896     -0.15924637303695
  F   1.01863740568534      1.43571300327382     -0.01434193516015
  H   -1.51314013841207     -0.65663780503475      0.16655155375521
  H   -1.57997239137297      1.11531161563556      0.26799744731420
  C   0.43057234530148      0.17477649286350      1.83263155442739
  N   0.42722787373134      0.09385805924137      3.00458453623301
  N   1.15411636212756     -0.89251704802597     -0.21932685925197
  O   0.69777354246624     -1.98003775849152      0.10515364688025
  O   2.09522839994435     -0.64710856156791     -0.95185981268598
  C   -1.04232623982528      0.35772597010101     -1.61698452032177
  N   -1.04768952398103      0.42254616709702     -2.78844922980396
