12
Coordinates from ORCA-job run
  C   0.41337705421350      0.28600127982681      0.37025532955688
  C   -1.01133905870583      0.34589213980745     -0.16911336684001
  F   1.12389123526487      1.35532103473732     -0.03745276127387
  H   -1.56271437440745     -0.53038403553086      0.17794405757316
  H   -1.48915051945710      1.24341822132916      0.23331258725000
  C   0.43756063579824      0.17917352490436      1.83107510634880
  N   0.43243442341025      0.12272605596692      3.00450950648439
  N   1.08217437830486     -0.98005317391924     -0.19680672262194
  O   2.03907801879794     -0.82153747346102     -0.93270595835564
  O   0.54488887217796     -2.02302113469147      0.14921794042566
  C   -1.00709875063871      0.39645394184603     -1.62868977911605
  N   -1.00210191475851      0.42600961918454     -2.80154593943139
