12
Coordinates from ORCA-job run
  C   0.43014484977825      0.12572444137915      0.24343523934534
  C   -0.67145143273342      0.10511156922089     -0.80314607203605
  F   1.08685018397898      1.31592562424128      0.20813297582399
  H   -0.21851086566075      0.31431618057845     -1.77422936940726
  H   -1.11805293907923     -0.89226225699143     -0.84500259146734
  C   -0.06191754604741     -0.14022303818249      1.59603744612666
  N   -0.50951961096980     -0.34177032068903      2.66328613656398
  N   1.49159463891896     -0.93250319789653     -0.10369267044866
  O   2.16438814816469     -1.34744849698514      0.83016653649429
  O   1.61546743947262     -1.20348089937931     -1.29176180582262
  C   -1.69141028371676      1.10072849178010     -0.48760167744301
  N   -2.51658258210614      1.89588190292407     -0.23662414772932
