12
Coordinates from ORCA-job run
  C   0.38551685032118      0.32688761353771      0.36585138265398
  C   -1.04695318790730      0.22651807023512     -0.14641264047349
  F   0.95987041200025      1.47481428287141     -0.04261837787694
  H   -1.61900543257828      1.05577592238934      0.27876756402713
  H   -1.48440373539017     -0.71327073842294      0.19658600200954
  C   0.44969161606024      0.21031234356764      1.82474076053845
  N   0.46681845572900      0.14099015656220      2.99732248460713
  N   1.18474352894255     -0.84811542116777     -0.22791714930603
  O   2.10310652334595     -0.57311764122479     -0.97843242696771
  O   0.77755779116002     -1.94945810409316      0.11456122937821
  C   -1.07731625016628      0.29803614568086     -1.60480907603865
  N   -1.09962657151715      0.35062737006439     -2.77663975255164
