12
Coordinates from ORCA-job run
  C   0.43289195505370      0.27582331353260      0.35587271745875
  C   -0.98144503119365      0.40893945886165     -0.19778099348967
  F   1.22316760552609      1.26252913172459     -0.10873776479535
  H   -1.39333726948453      1.36119149805919      0.14784386053625
  H   -1.59729243185491     -0.40254503500670      0.19534242553304
  C   0.44182731152164      0.25508844493300      1.82062960586601
  N   0.41967965282608      0.26863282292650      2.99509696413475
  N   1.00725049663098     -1.06855627731897     -0.12913728899088
  O   1.97839922767085     -1.02639222450970     -0.86229803905955
  O   0.39034428479010     -2.04588382415822      0.27132140573578
  C   -0.96739243263427      0.37397898448404     -1.65775340222989
  N   -0.95409336885206      0.33819370647200     -2.83039949069925
