12
Coordinates from ORCA-job run
  C   0.38514654407251      0.29489661088985      0.23548365062215
  C   -0.64837031010139     -0.17198838935607     -0.78456523916452
  F   0.69154716072169      1.59139173610800      0.03750928333558
  H   -0.83550594654029     -1.23890255373442     -0.64543011069175
  H   -0.22604642125972     -0.01496935649136     -1.78238145230732
  C   -0.02906152202618      0.07042282363722      1.62142444388700
  N   -0.38594598690976     -0.09602369032166      2.72836539717725
  N   1.65509960962069     -0.54074220686407     -0.01244032282009
  O   1.52288019285615     -1.73632926986636      0.21008328257348
  O   2.63514984100503      0.05131252567872     -0.42899790453614
  C   -1.88569409175186      0.58889033545514     -0.64672003968855
  N   -2.87919906968688      1.20204143486500     -0.53133098838709
