12
Coordinates from ORCA-job run
  C   0.42606626933809      0.14409920821053      0.24181141057251
  C   -0.68159852977044      0.05997968980417     -0.79551037061200
  F   1.03677819273508      1.35729075364556      0.17478114808156
  H   -1.09958609483505     -0.95070076423677     -0.80375550726124
  H   -0.23965778088883      0.25377317133345     -1.77483283269585
  C   -0.04684174835845     -0.11060781545810      1.60311173771571
  N   -0.48639344695087     -0.30457577307527      2.67509395798048
  N   1.52204732878841     -0.88115157629879     -0.09804663368822
  O   2.15870381463188     -1.33316198559749      0.84416204607984
  O   1.70267433060154     -1.09236064903103     -1.29076151634038
  C   -1.72636073301665      1.03650935594122     -0.50378009822863
  N   -2.56683160227473      1.82190638476252     -0.27327334160376
