12
Coordinates from ORCA-job run
  C   0.47875941086010      0.34376794640317      0.40362975756859
  C   -0.63847155224182      0.76059088853866     -0.54587491417225
  F   1.30078192061522      1.40552502668752      0.58573081504370
  H   -1.18543006740488      1.58551504203965     -0.08098047825320
  H   -0.16351027038780      1.13007705029312     -1.45951410844770
  C   0.00036200171355     -0.15366737846750      1.69272467952754
  N   -0.41374164299253     -0.48279593139747      2.74179584219974
  N   1.29877500919341     -0.75361919806535     -0.29098960346560
  O   2.04302514021650     -0.35279992645321     -1.17265200987449
  O   1.09051484847222     -1.90626137452149      0.06182573477175
  C   -1.54126341943630     -0.34512390575240     -0.84465334409935
  N   -2.26880137860767     -1.23220823930470     -1.09104237079872
