12
Coordinates from ORCA-job run
  C   0.48406904764888      0.33468285415585      0.40494286302832
  C   -0.60075030079260      0.77030769182199     -0.57329048938002
  F   1.34154825754499      1.36974731752936      0.57693183592022
  H   -0.09590977359535      1.10077979225733     -1.48593671027476
  H   -1.12436275378749      1.62570162332624     -0.13745555349120
  C   -0.03244289701900     -0.11524769997442      1.69658278931806
  N   -0.47432784292404     -0.40408848071985      2.74625076253821
  N   1.27377400091268     -0.80781796301687     -0.25111449642740
  O   1.01331733272674     -1.94387513572608      0.12069892785137
  O   2.04975287072923     -0.45479211817084     -1.12586597837644
  C   -1.53941505172828     -0.30693426430899     -0.86519750332453
  N   -2.29725288971575     -1.16946361717372     -1.10754644738182
