12
Coordinates from ORCA-job run
  C   0.26101421272565      0.05591564559461      0.46839663400881
  C   -0.51457620834591      0.40993547654429     -0.79602087565548
  F   0.17131039158865      1.05125731058791      1.37171180792973
  H   -0.37421983601331     -0.37975508176246     -1.53736459341506
  H   -0.09965079446806      1.34285669680439     -1.19117277681061
  C   -0.15165180348502     -1.21629170842810      1.06339698425411
  N   -0.50703619754623     -2.23038180078632      1.53858206136714
  N   1.73817189586313     -0.08340599506141      0.05400529679000
  O   1.96157016733581     -1.01142353537366     -0.71124990584540
  O   2.51778634916565      0.74309904919087      0.49418355893229
  C   -1.93177772363708      0.58716932667067     -0.49806926544675
  N   -3.07094045318325      0.73002461601919     -0.25639892610878
