12
Coordinates from ORCA-job run
  C   0.43454074053535      0.22257677995794      0.22834826840780
  C   -0.69035768547181     -0.04603924895873     -0.76607941247642
  F   0.94167493137676      1.45695210936875      0.04504713252517
  H   -0.27737789418844      0.06423223515916     -1.77408717449956
  H   -1.04505964715207     -1.07128600557809     -0.64096400086502
  C   0.02941994220723      0.03519788482393      1.62254308067522
  N   -0.31634270842683     -0.09987275971589      2.73725152943529
  N   1.54404982984496     -0.80123452727362     -0.07510974087160
  O   1.22545079527990     -1.96463917991056      0.12861615038361
  O   2.59553671336481     -0.36599758569980     -0.51043163956269
  C   -1.78227687545755      0.90269136292734     -0.57467284762687
  N   -2.65925814191232      1.66641893489958     -0.41946134552492
