12
Coordinates from ORCA-job run
  C   0.36228632512566      0.12944620301800      0.33327463816688
  C   -0.61042526225587      0.19809939684941     -0.83237522226279
  F   0.69668831855831      1.38450898306195      0.73677785479189
  H   -0.79507640510156     -0.80934091068710     -1.21574672680676
  H   -0.14298980292011      0.78344732894244     -1.62657172672066
  C   -0.15470548470009     -0.64428026449194      1.46286811016512
  N   -0.62802059422444     -1.26165088266251      2.34310138659576
  N   1.68140897158847     -0.50964504746531     -0.13359944527810
  O   2.34439009920603     -1.07335437440858      0.72649959607897
  O   1.98069774082643     -0.32834860364516     -1.30730816994107
  C   -1.86377042735817      0.81641326821703     -0.41119355030559
  N   -2.87148347874465      1.31470490327175     -0.07572674448365
