12
Coordinates from ORCA-job run
  C   0.32809851494154      0.10520801524520      0.37781781557813
  C   -0.59070813560660      0.27890413472682     -0.82056594983942
  F   0.48283208115665      1.29243881160917      1.02250667461457
  H   -0.62944280558570     -0.65374442999856     -1.39063593809502
  H   -0.16321502252742      1.05265077372550     -1.46126204178323
  C   -0.13901006251236     -0.92121166112605      1.31048159006795
  N   -0.57228569354509     -1.74159137843188      2.03105968009498
  N   1.73578715695325     -0.27768329549374     -0.11152947924860
  O   2.40489288718483     -0.97652615694389      0.63769883660626
  O   2.08070171086596      0.21652943668738     -1.17757662391826
  C   -1.93021781729312      0.65902879757746     -0.38296432576993
  N   -3.00743281403193      0.96599695242260     -0.03403023830742
