12
Coordinates from ORCA-job run
  C   0.39997837121348      0.17091051433265      0.31937904946739
  C   -0.64797038531337      0.15027677595380     -0.78856580043660
  F   0.79021227919570      1.43387833645727      0.57734702409635
  H   -0.90463866607686     -0.88537254959971     -1.02184257098051
  H   -0.20398846633965      0.61213620569321     -1.67648457656803
  C   -0.04474035216938     -0.49050624274565      1.54727133588172
  N   -0.42391517164230     -1.00697532831526      2.53203681868334
  N   1.61757051872386     -0.60743599115222     -0.21355050243504
  O   2.63886003030033      0.02763452779604     -0.40871749464830
  O   1.40687365644847     -1.79528796742471     -0.41592757473106
  C   -1.83632915240508      0.89560589924383     -0.38701118251245
  N   -2.79191266193523      1.49413581976074     -0.06293452581680
