12
Coordinates from ORCA-job run
  C   0.33459102549632      0.25136785735764      0.46318008250287
  C   -0.97284298030400      0.35147119844752     -0.31479935966642
  F   1.07977710518329      1.35999296520924      0.29016683207875
  H   -1.55506948151612     -0.55837957471158     -0.15492390172699
  H   -1.53693915500399      1.20222158335502      0.07747145907522
  C   0.10047346924003      0.00589000412115      1.88821200476779
  N   -0.11737190511374     -0.16088363083150      3.03048808076219
  N   1.12438733355884     -0.94963163985055     -0.08975297435019
  O   0.55967850172658     -2.02483695187904      0.05587792183078
  O   2.19252751944498     -0.71433266740395     -0.62472789253103
  C   -0.71088002096580      0.54309510587096     -1.73859198424244
  N   -0.49733141174641      0.69202575031508     -2.88260026850055
