12
Coordinates from ORCA-job run
  C   0.49189489463169      0.33609706418604      0.39434826671016
  C   -0.63067067538420      0.76925955582969     -0.54162130077677
  F   1.33367017897862      1.38436958431625      0.56347557006496
  H   -1.15210441402379      1.60961528117243     -0.07505180672602
  H   -0.16282135059041      1.12120666133747     -1.46572761161717
  C   0.02057675557723     -0.15059957117144      1.69020015917230
  N   -0.39077998262686     -0.47143711328440      2.74286836562412
  N   1.28447717305075     -0.77638361040739     -0.30790462028625
  O   2.02803321587227     -0.38988664805330     -1.19644957208706
  O   1.05742932387345     -1.92481824371407      0.04711188152919
  C   -1.56276655541668     -0.31834970936059     -0.81530304295263
  N   -2.31793856394207     -1.18907325085069     -1.03594628865483
