12
Coordinates from ORCA-job run
  C   0.38182437119087      0.23978535831535      0.29531889598427
  C   -0.66747292528326      0.01215155702809     -0.78782290620155
  F   0.63546464274068      1.55484057629836      0.43758508016317
  H   -0.28511084096340      0.44460153310152     -1.71813770072182
  H   -0.81112463439925     -1.06089905378161     -0.93126802315471
  C   0.02215293933152     -0.35678120207520      1.58285311619343
  N   -0.28994361473843     -0.82363799614317      2.61483083836835
  N   1.67244862373201     -0.44716292354197     -0.19032399837748
  O   1.58964125492721     -1.66371109178870     -0.28731866575510
  O   2.61790058063981      0.27419489105771     -0.45501220659498
  C   -1.92626476512578      0.65539853203585     -0.42618527651728
  N   -2.93851563205199      1.17121981949376     -0.13351915338630
