12
Coordinates from ORCA-job run
  C   0.46954015546480      0.32824298408967      0.42779086065039
  C   -0.62641767693937      0.78191671264560     -0.52972828946959
  F   1.28696586572985      1.38140254508092      0.66910113719501
  H   -1.18445221247284      1.58825506068414     -0.04585385244238
  H   -0.13144613329848      1.18659655952968     -1.41755855394384
  C   -0.03752046899018     -0.21898265093085      1.68525398348066
  N   -0.47494651098416     -0.58821785090698      2.71128853277614
  N   1.30455945391991     -0.74259766617362     -0.29077473816372
  O   2.07002244042256     -0.30886034779678     -1.13799762932121
  O   1.08532198678394     -1.90782011681297      0.01025556838730
  C   -1.52103193996806     -0.31143128888053     -0.89208193263043
  N   -2.24159495966796     -1.18850394052829     -1.18969508651835
