12
Coordinates from ORCA-job run
  C   0.49400011360492      0.33616449809481      0.39105294896624
  C   -0.62645734545022      0.76971120173567     -0.54725693248251
  F   1.34690153920521      1.37781032175008      0.54499847147150
  H   -1.14291501909534      1.61628917297520     -0.08647096856209
  H   -0.15567640764963      1.11261663408834     -1.47339227296011
  C   0.02291490249358     -0.12986838768866      1.69448467638189
  N   -0.38364290197417     -0.43254346687091      2.75440739459555
  N   1.27317529257741     -0.79265374555876     -0.30004878520205
  O   1.03986139372813     -1.93417506043932      0.07278917302736
  O   2.01359116559570     -0.42470311047451     -1.19912451623476
  C   -1.56343885280851     -0.31503216322147     -0.81589318047992
  N   -2.31831388022709     -1.18561589439047     -1.03754600852111
