16

C	0.0	0.0	0.0
C	-0.434137	-0.182522	-1.463625
Cl	1.81176	0.0	0.0
H	-0.013913	-1.134291	-1.812571
H	-1.523567	-0.281966	-1.432249
C	-0.456255	1.321646	0.585198
H	-0.118344	1.392407	1.619986
H	-0.048184	2.160914	0.020302
H	-1.549382	1.350284	0.553157
N	-0.462479	-1.070632	0.847654
H	-0.304427	-1.956839	0.375843
H	-1.476629	-0.952139	0.920916
N	-0.087356	0.864166	-2.414955
H	0.87532	1.145725	-2.274891
H	-0.677145	1.668684	-2.245238
Br	-3.900357	0.0	0.0
