16

C	0.0	0.0	0.0
C	-0.437642	-0.112204	-1.46738
Cl	1.808219	0.0	0.0
H	-1.521114	-0.259645	-1.458066
H	0.03187	-1.014232	-1.868932
C	-0.433089	1.302945	0.653078
H	-0.078111	1.333246	1.687266
H	-1.526382	1.335996	0.643187
H	-0.026577	2.171636	0.131147
N	-0.460736	-1.18777	0.676899
H	-1.480361	-1.178	0.582413
H	-0.255518	-1.105123	1.668194
N	-0.136944	1.018254	-2.334344
H	-0.759963	1.782799	-2.108802
H	0.813411	1.330064	-2.17465
Br	-3.890629	0.0	0.0
