16
Coordinates from ORCA-job run
  C   1.12237517693398      0.08613994190464     -0.03595981899063
  C   -0.37297800024132     -0.05193766744301     -0.31258631183385
  H   1.25721742042716      0.76488089756580      0.81465617790050
  H   -0.49172853778036     -0.78122283525702     -1.12778549850187
  H   1.60156281487969      0.56386533603760     -0.90596236222263
  N   1.71516143247374     -1.20413737102137      0.31964054886878
  H   2.67389819312311     -1.07284703859504      0.61847247012582
  H   1.74015259343141     -1.79610722738032     -0.50273419361141
  C   -0.94871695459634      1.28138493085434     -0.78116131666224
  H   -2.01483637747752      1.19363363650529     -1.00639616337397
  H   -0.44406419183199      1.64553296123910     -1.68077466207571
  H   -0.83602309907356      2.04182863035659     -0.00143558828599
  C   -1.11169815457371     -0.57500963294371      0.91412428125336
  H   -0.67558708483054     -1.51252902169702      1.25861002037122
  H   -1.04167154196228      0.14990069001967      1.73249258949177
  H   -2.17206368890148     -0.73337623014553      0.69779982754685
