16
Coordinates from ORCA-job run
  C   1.02483005530168     -0.46713098395633     -0.48472998055834
  C   -0.47606830232201     -0.17204483671240     -0.47241110598456
  H   1.46170905168086     -0.02385374965748     -1.38579896235261
  H   -0.90494552931595     -0.68585297309087     -1.34362203132520
  H   1.17206208950295     -1.55653516893082     -0.56164550593847
  N   1.69181411814365      0.12491955189038      0.67846864716195
  H   1.56793158394038     -0.47466366595706      1.48467947611270
  H   2.68780622155856      0.18556693228235      0.50910749783129
  C   -0.74378165609639      1.32389577233762     -0.60714892985113
  H   -0.26335026988792      1.86374961831577      0.21035338519224
  H   -0.34435432368040      1.71075347626092     -1.54946234822095
  H   -1.81649227772784      1.53603226072216     -0.58579064901644
  C   -1.13525335646725     -0.73607193634419      0.78458461803952
  H   -2.22185546253206     -0.62572231115983      0.73926530739551
  H   -0.78814596356936     -0.20294858859459      1.67376515523648
  H   -0.91390597852890     -1.80109339740562      0.91038542627800
