16

C	0.0	0.0	0.0
C	-0.517028	0.130605	-1.43059
Cl	1.803875	0.0	0.0
H	-0.070284	1.04128	-1.84814
H	-1.602987	0.254857	-1.260165
C	-0.502371	1.148073	0.861524
H	-1.599863	1.040787	0.800384
H	-0.12809	1.060567	1.884794
H	-0.155312	2.092577	0.431643
C	-0.401749	-1.285107	0.586684
N	-0.594373	-2.336088	1.074973
C	-0.234488	-1.075347	-2.313676
H	-0.812735	-1.934126	-1.966174
H	-0.538222	-0.866599	-3.343769
H	0.824769	-1.349475	-2.323453
F	-2.857672	0.0	0.0
