16

C	0.0	0.0	0.0
C	-0.523917	0.277162	-1.407715
Cl	1.803688	0.0	0.0
H	-0.069467	1.218659	-1.738493
H	-1.607735	0.391596	-1.219066
C	-0.507419	1.04576	0.980738
H	-1.6044	0.943489	0.902166
H	-0.141652	0.840314	1.98977
H	-0.160223	2.033328	0.665597
C	-0.396672	-1.341751	0.449941
N	-0.57695	-2.437716	0.832608
C	-0.262939	-0.842825	-2.403592
H	-0.87582	-1.709436	-2.15319
H	-0.539101	-0.521697	-3.41187
H	0.785144	-1.151126	-2.424684
F	-2.864651	0.0	0.0
