16

C	0.0	0.0	0.0
C	-0.258441	-0.097014	-1.545116
Cl	1.803481	0.0	0.0
H	0.485516	-0.800624	-1.929608
H	0.037819	0.88978	-1.924397
C	-0.652234	1.195382	0.644545
H	-0.343061	2.107437	0.125706
H	-1.743641	0.991566	0.519732
H	-0.382873	1.268334	1.701595
C	-0.402157	-1.244579	0.664334
N	-0.624932	-2.26539	1.200616
C	-1.624208	-0.492351	-2.089757
H	-2.445535	-0.005009	-1.546749
H	-1.789016	-1.563743	-1.942324
H	-1.616444	-0.285575	-3.16809
F	-3.157256	0.0	0.0
