18

C	-0.52701	-0.033529	-1.450139
C	0.0	0.0	0.0
Br	0.010145	-1.767858	-2.242162
H	1.093744	0.0	0.0
C	-2.048317	0.0635	-1.557134
H	-2.518187	-0.739519	-0.988856
H	-2.375359	1.031032	-1.173944
H	-2.354216	-0.022768	-2.600416
C	0.088588	0.963748	-2.326921
N	0.475607	1.722083	-3.138113
C	-0.472774	-1.127308	0.901203
H	-1.552537	-1.109784	1.067501
H	0.02718	-1.023977	1.861624
H	-0.181978	-2.083452	0.473196
N	-0.38584	1.314528	0.627231
O	-0.56305	2.284119	-0.11302
O	-0.461259	1.359344	1.853062
Br	3.394022	0.0	0.0
