15
Coordinates from ORCA-job run
  C   0.57228093811955     -0.40021073635251     -0.32039974842197
  C   -0.85970124331885      0.19057772918697     -0.27925315026874
  Br  0.70943035582048     -1.52234534171617     -1.91926169218767
  H   -1.01420859910973      0.69699059485229     -1.23778161506103
  C   1.64647420177839      0.68076541470977     -0.38765676425002
  H   2.63098737278986      0.22330417987300     -0.48541152489083
  H   1.47024622718012      1.31919607176135     -1.25618533479713
  H   1.62689828723787      1.28935031417833      0.51906086515719
  C   0.75842255552877     -1.25685047656092      0.84766645985688
  N   0.87606134678116     -1.90868694500502      1.81914758955196
  C   -0.92010602546640      1.21326749350556      0.78729239103995
  N   -0.99495794648280      2.03247322845714      1.62693977598303
  N   -1.85225552440634     -0.85423841840763     -0.14527677999586
  H   -1.87676071168379     -1.20701384729203      0.80496002793589
  H   -2.77181123476828     -0.50057926119012     -0.37684049965165
