15
Coordinates from ORCA-job run
  C   0.54654755640707     -0.41206250837014     -0.49594645576486
  C   -0.94926247919070     -0.11994848831815     -0.21042183210555
  Br  0.81181749557597     -0.37533101418390     -2.44020161296171
  H   -1.53395220994588     -0.88422524728044     -0.73117251346513
  C   1.47342126625870      0.60026312693338      0.16288450519309
  H   1.24775405220768      1.60564434549479     -0.19832274801967
  H   2.51249883206607      0.36807075348147     -0.07129520581387
  H   1.34338147524604      0.55306747011167      1.24660853137828
  C   0.83877966060757     -1.76748910927032     -0.03837596119916
  N   1.08479443384553     -2.85552718649488      0.33136390810320
  C   -1.32776076738127      1.19546551758736     -0.75751206396969
  N   -1.67586462639110      2.26162211691068     -1.10810944939841
  N   -1.18211599800740     -0.23742662072153      1.21915021486018
  H   -2.11268409773301     -0.58636904465968      1.40559115483032
  H   -1.07635459356528      0.65424588877971      1.68575952833297
