15
Coordinates from ORCA-job run
  C   0.59727500239682     -0.39235744250816     -0.28349333624040
  C   -0.86847441915661      0.11033142585083     -0.29621569166600
  Br  0.80717787936519     -1.65997547822820     -1.76119149225432
  H   -1.05176408057045      0.50619193278861     -1.30058219906968
  C   1.60207327571273      0.74101991083571     -0.46395259983106
  H   2.61348840378954      0.33831730648216     -0.51864521968934
  H   1.38858600796637      1.27601135225202     -1.39197827276151
  H   1.54230405068294      1.43577328704144      0.37673687378627
  C   0.83410429522456     -1.11318805711170      0.96433277499591
  N   0.99351075501886     -1.65564573986118      1.99527899520383
  C   -0.99403374018884      1.22738675448943      0.66481395925449
  N   -1.13494926793751      2.08991008376449      1.45102960718374
  N   -1.79545101420409     -0.97383274306461     -0.05218234429746
  H   -2.73472534534135     -0.70167749588192     -0.31301852092562
  H   -1.79912180275823     -1.22926509684891      0.92906746631115
