15
Coordinates from ORCA-job run
  C   0.47818872179913     -0.34400196235024     -0.32647240228133
  C   -0.93212539413838      0.09680551194301      0.18658036140013
  Br  0.76768336163542      0.40936672101426     -2.11517089899907
  H   -1.04629806905386     -0.38884614886110      1.16502974596746
  C   1.58517690878100      0.14431825618302      0.60062789117417
  H   1.41783348255678     -0.24858288534541      1.60831056511017
  H   1.59948476293302      1.23413204995118      0.62982328096818
  H   2.55630802035130     -0.20239314812402      0.24726934300217
  C   0.51397725329189     -1.79779403428103     -0.43945560186491
  N   0.54457340864156     -2.97323602716300     -0.46542202221347
  C   -1.97484796992933     -0.44999772847614     -0.69271193302585
  N   -2.81087419492593     -0.89391892923183     -1.38710131180757
  N   -1.14752779180869      1.51055706521421      0.36847482433447
  H   -0.98022900591979      2.02152551814561     -0.48948411311548
  H   -0.57032349421409      1.88306574138148      1.10970227135099
