15
Coordinates from ORCA-job run
  C   0.54765866494652     -0.40832137939799     -0.23504296697725
  C   -0.88198216348392      0.17797594397475     -0.15238298793585
  Br  0.53207432018903     -1.74980821184828     -1.67839640736805
  H   -1.08199013922261      0.63277472129916     -1.13584612954199
  C   1.58826624134544      0.65141650963794     -0.57782374531982
  H   1.64726093208685      1.38377654076043      0.23089450313118
  H   2.56724488181560      0.18929831385711     -0.70544589813038
  H   1.31407400427530      1.15685059192427     -1.50622485842355
  C   0.88333292864225     -1.09423131774540      1.00816969331147
  N   1.21071165257991     -1.59834490514434      2.01812826631495
  C   -0.88326932859934      1.25801540660196      0.84311224089048
  N   -0.88980321491560      2.13441294652245      1.62467367049904
  N   -1.83356223823640     -0.84101172414691      0.25329538991579
  H   -2.00838663480156     -1.47352001467699     -0.51777239312918
  H   -2.71062990662148     -0.41828342161816      0.53066162276319
