15
Coordinates from ORCA-job run
  C   0.53854750093100     -0.36548952804712     -0.21466512666299
  C   -0.92120078794142      0.19224208379042     -0.28435236290902
  Br  0.68344211654111     -1.75752927531796     -1.59670636291474
  H   -1.05223150070895      0.56975907320605     -1.30532851704027
  C   1.59097792412384      0.70251705128145     -0.48416037595848
  H   1.55882858578902      1.46012732877586      0.30203019672981
  H   2.58654344994698      0.25865476199482     -0.50701767951287
  H   1.39532863026766      1.17547017257466     -1.44915438397676
  C   0.73609699503302     -1.00790524204135      1.07977917677506
  N   0.85283351893932     -1.49494629473980      2.14372281396601
  C   -1.00867093703076      1.33620468951495      0.63602062408537
  N   -1.05158766746969      2.24087079823266      1.38344304027729
  N   -1.99545000078056     -0.72531764101227      0.00413952543073
  H   -1.99285749433758     -1.49282043902974     -0.65527746702638
  H   -1.91960033330299     -1.09283753918264      0.94552689873729
