15
Coordinates from ORCA-job run
  C   0.56158640479893     -0.39483646456434     -0.23172691612969
  C   -0.88169540219385      0.15923426236061     -0.16029866423453
  Br  0.58867794630740     -1.73306537853736     -1.67809111064113
  H   -1.08215241514465      0.61186163590299     -1.14473668096567
  C   1.58019618832413      0.68931257031093     -0.56381898637297
  H   1.61542659421940      1.42128547775772      0.24668976997060
  H   2.57074238488279      0.25037878382278     -0.68398985209431
  H   1.30234896722935      1.19011967525048     -1.49362400117192
  C   0.90059410465471     -1.07622022111852      1.01288419886308
  N   1.20386182420251     -1.58119114127402      2.02986991511626
  C   -0.91627338560525      1.23605769879579      0.83804619887972
  N   -0.95614625020056      2.10043739213929      1.63180306408018
  N   -1.81488825151517     -0.88087816919979      0.23386318558406
  H   -1.96736109758796     -1.51584972855785     -0.54000455533577
  H   -2.70391761237176     -0.47764639308870      0.50213443445210
