15
Coordinates from ORCA-job run
  C   0.57135933861495     -0.39041965462720     -0.33522752132365
  C   -0.87395167926815      0.16221291648954     -0.25284832707802
  Br  0.67894955368207     -1.55013896928693     -1.90932752758056
  H   -1.07931127600881      0.63772708961949     -1.21758876840859
  C   1.61071786111688      0.71769331148690     -0.47158221997311
  H   1.38328996932066      1.32766950749491     -1.34863045961179
  H   2.60356711072519      0.28534475695566     -0.59584099698715
  H   1.60831148699780      1.34921057046058      0.41957984140998
  C   0.82664181182812     -1.21065347835556      0.84591731886587
  N   0.99877254770130     -1.83395249603039      1.82792516788169
  C   -0.92191499577984      1.20827495237750      0.79177547924535
  N   -1.00098284359774      2.01413762585569      1.64393081798167
  N   -1.83119889337759     -0.90440145088213     -0.05218925972807
  H   -2.76889425576951     -0.58042205104492     -0.25254196961058
  H   -1.80635573618532     -1.23328263051309      0.90664842491691
