15
Coordinates from ORCA-job run
  C   0.55839378598222     -0.39281459167957     -0.23490499219630
  C   -0.88724261856821      0.15224141350102     -0.15001400389299
  Br  0.57851447809630     -1.73694253762425     -1.67616764153446
  H   -1.10312877732529      0.59789796351627     -1.13436757115884
  C   1.56736974574462      0.69564678935178     -0.58195283488802
  H   1.60655077073526      1.43132399275681      0.22496135051122
  H   1.27730576560316      1.19078804116128     -1.51103772546916
  H   2.55900447057189      0.26151354868230     -0.71000343872257
  C   0.91654875787626     -1.06690556595292      1.00847481004338
  N   1.26020974522465     -1.56022499633930      2.01833805315102
  C   -0.91734392668402      1.23551143246176      0.84153867924307
  N   -0.95015922834104      2.11596071281322      1.61781832807007
  N   -1.80791368310634     -0.89226134209018      0.26198147398731
  H   -1.95868317091297     -1.53751189544894     -0.50371226036640
  H   -2.69942611489649     -0.49422296510929      0.53004777322263
