15
Coordinates from ORCA-job run
  C   0.57549309055237     -0.35187309677255     -0.47897441468461
  C   -0.93514134855668     -0.04978423072305     -0.27144534064684
  Br  0.93620936969184     -0.32424230653901     -2.40604449025361
  H   -1.49744302597073     -0.72187923500220     -0.93512447661420
  C   1.48155211237442      0.64227198563233      0.23278321219152
  H   1.22540100901987      0.64789683613274      1.29327374277025
  H   2.52630378902539      0.35658643990728      0.10741445440091
  H   1.33530303654864      1.64003688625850     -0.18391665018653
  C   0.80972881200872     -1.71368800615930     -0.00617645926682
  N   0.96770971992219     -2.79992856083803      0.41517582128957
  C   -1.22469545886127      1.32676294067394     -0.68259740394110
  N   -1.47665711595798      2.43500399300986     -0.97699385771278
  N   -1.24291028125643     -0.21275061955562      1.14515432220770
  H   -1.41319249764981     -1.19055353490508      1.34921080385854
  H   -2.06766121089059      0.31614050888016      1.39926073658801
