15
Coordinates from ORCA-job run
  C   0.55827258254484     -0.18212310098404     -0.33193875567526
  C   -0.95281262314315     -0.03601387457175      0.04597476230660
  Br  1.00043895311587      1.14351207506304     -1.70929088111690
  H   -1.14098109666484     -0.82653746789517      0.78480801864897
  C   1.45822150453596      0.04258573242565      0.87753315376415
  H   1.33406174121815      1.05720793307198      1.25670392592115
  H   1.20325502243677     -0.67687843239915      1.66175516421158
  H   2.50400347623119     -0.09558979694399      0.60320029568731
  C   0.78293144694603     -1.50887052119146     -0.89472221638620
  N   0.94701125557720     -2.60431069921909     -1.29007001419630
  C   -1.78911724464466     -0.32856277076834     -1.12629227731878
  N   -2.45851828331886     -0.55744335452974     -2.06317791265932
  N   -1.36176056069542      1.21767925862808      0.62820890203899
  H   -1.13983792721536      1.99584518593382      0.01940724097042
  H   -0.94316824692371      1.36049983338018      1.53690059380359
