15
Coordinates from ORCA-job run
  C   0.56553332101060     -0.40254189350829     -0.48067516031529
  C   -0.94231126245319     -0.12251919106225     -0.24819848396440
  Br  0.90408749087039     -0.34199750650170     -2.41268106762372
  H   -1.50211799995190     -0.88271944321475     -0.80123800775258
  C   1.46070722200836      0.60649698627954      0.22502353811692
  H   1.28754455665087      0.54714758018050      1.30209444162800
  H   1.24525480144247      1.61473236935374     -0.13428813379598
  H   2.50925088666803      0.38079357394267      0.02995809500375
  C   0.84715968414518     -1.76205763820373     -0.02862146856333
  N   1.08474077442594     -2.85412971165326      0.33458503157581
  C   -1.30443806741477      1.19922363047336     -0.79001697737518
  N   -1.61240391786320      2.28011417212495     -1.13292282483792
  N   -1.22856758143431     -0.26040270808133      1.16973335460955
  H   -2.15895835376211     -0.62753178021565      1.31703167243717
  H   -1.15448155434237      0.62639156008623      1.65121599085720
