15
Coordinates from ORCA-job run
  C   0.55095758667909     -0.39930202902799     -0.50057965108214
  C   -0.94800842974766     -0.09901646620198     -0.23795976453045
  Br  0.86192165570694     -0.29068460591481     -2.43527617058694
  H   -1.52927523469590     -0.83379886284978     -0.80308057410096
  C   1.47464271057909      0.57343696312241      0.21930238593940
  H   1.31605824357065      0.48693140501210      1.29676233746691
  H   2.51595916476607      0.33462585176468      0.00235277171323
  H   1.27223532130692      1.59504274602972     -0.10845318778454
  C   0.81462243788395     -1.77536896261651     -0.09013701324211
  N   1.03713362913133     -2.88037099167734      0.24230028364400
  C   -1.29408119999991      1.24315202055785     -0.73775371906150
  N   -1.58518054841658      2.34022046911342     -1.04196863786872
  N   -1.21613905882832     -0.27029804093622      1.17997159880551
  H   -1.12026224527041      0.60206994650645      1.68354767220115
  H   -2.15058403266524     -0.62563944288195      1.33097166848712
