15
Coordinates from ORCA-job run
  C   0.52538111147684     -0.35797581236639     -0.47125803361686
  C   -1.00686392582065     -0.07269575915341     -0.32450767643668
  Br  0.96747071542662     -0.34708932271519     -2.38149140518755
  H   -1.52561763834031     -0.77241372333887     -0.98843785594671
  C   1.40098883015389      0.65600119525644      0.25409530892482
  H   1.17106384293804      0.64937569660857      1.32275124190160
  H   2.45396910080366      0.40205439137197      0.13073041120921
  H   1.22806082410821      1.65448309870577     -0.15024375477857
  C   0.76192397079781     -1.70782654854035      0.03165522206569
  N   0.90349517066713     -2.78210283235015      0.48858692679364
  C   -1.28533791557711      1.29049009428124     -0.79393191879832
  N   -1.48154179501142      2.39739269571763     -1.13207858558973
  N   -1.54401416735760     -0.23685423506825      1.00704453271833
  H   -1.14018037884081      0.41214330149400      1.66892808795652
  H   -1.42979774542427     -1.18698223990299      1.33715749878459
