15
Coordinates from ORCA-job run
  C   0.55352156309289     -0.38108688834735     -0.48308709867126
  C   -0.94362820850163     -0.04588426044661     -0.23294422799192
  Br  0.84161525132472     -0.44137143407840     -2.42167229608122
  H   -1.54025375510124     -0.73800066662653     -0.84397915320771
  C   1.50018954051067      0.62772529088522      0.15072515769711
  H   2.53523190703894      0.32056091541743     -0.00165383698609
  H   1.35229952676563      1.60914536158156     -0.30263934805341
  H   1.28511264810345      0.68250614150810      1.21893814283459
  C   0.78345503280710     -1.72591566148684      0.03818540618883
  N   0.92489492303919     -2.80032486748280      0.49409395700786
  C   -1.22937335859704      1.31496933868337     -0.69579576693478
  N   -1.48122788549732      2.41034352247952     -1.03504133079663
  N   -1.19965459709425     -0.14062937247502      1.19999816699379
  H   -1.37822738851278     -1.10519362070128      1.45378255906988
  H   -2.00495519937834      0.41415620108966      1.46108966893099
