15
Coordinates from ORCA-job run
  C   0.58156383336446     -0.15731582707648     -0.39954970867080
  C   -0.83460794471693     -0.07068094000833      0.21991409444243
  Br  0.70698412287927      1.13827738032664     -1.87293941984569
  H   -0.84734626596729     -0.81824260685495      1.02305138878494
  C   1.65864038009607      0.15164652517219      0.63302938160264
  H   1.59992991290913     -0.58335156015995      1.44140519609113
  H   1.49363319302413      1.14652485861305      1.04167706887223
  H   2.64636762739953      0.09297728456507      0.17538868845464
  C   0.77396656079178     -1.48786297213817     -0.96834786765475
  N   0.94162267538963     -2.58055211096293     -1.36878583684186
  C   -1.86271991786626     -0.46152811195560     -0.76450767915762
  N   -2.72676254608511     -0.72006628343398     -1.51804301531158
  N   -1.04864507993526      1.23097446829319      0.82231465783141
  H   -1.22743718922549      1.92113539334691      0.10180692110528
  H   -1.85618936205764      1.19806450227331      1.43258613029759
