15
Coordinates from ORCA-job run
  C   0.57119049940904     -0.12511040415971     -0.33439124902977
  C   -0.95475731684150     -0.02972058386642     -0.00432821481991
  Br  1.08600417199721      1.42867948110298     -1.41663613119489
  H   -1.18223493433918     -0.94091027954406      0.56515978627648
  C   1.41448136168634     -0.14472802496957      0.93522390120338
  H   1.11696957434857     -0.99383649702712      1.55831162062597
  H   1.28030089604309      0.78312646461635      1.49180143596652
  H   2.47105297282029     -0.24659278551624      0.68738687459141
  C   0.81643666058340     -1.32534653554729     -1.12606210146844
  N   1.00226490836681     -2.32756383927467     -1.71286837286896
  C   -1.73750121763462     -0.08775495769343     -1.24662420584197
  N   -2.36541504873876     -0.13116390555090     -2.23755239904899
  N   -1.38291195662960      1.09981171572437      0.78230209453176
  H   -1.12942118527323      1.97411752733344      0.33909259365706
  H   -1.00545938579786      1.06599262437226      1.71918436742034
