15
Coordinates from ORCA-job run
  C   0.55591559304705     -0.27962307552246     -0.36794712798394
  C   -0.79700145173825     -0.01728176270056      0.33662120315700
  Br  0.39884188931306      0.25417920032068     -2.25417131788768
  H   -0.65263894251522     -0.34130160643647      1.37503558727063
  C   1.68403893983501      0.50999337269140      0.28429578591260
  H   1.78470743037342      0.19436863217971      1.32711393853570
  H   2.62461943106065      0.31986485305815     -0.23300574878641
  H   1.44749832213957      1.57167789667506      0.25338202393299
  C   0.83972179357201     -1.71120963458542     -0.34105540892097
  N   1.08815024574538     -2.85786210917517     -0.26327996855566
  C   -1.86300869516545     -0.85835569551232     -0.24231834715582
  N   -2.76097552898369     -1.47501626588167     -0.68326040282515
  N   -1.09731288659275      1.40130554296316      0.35257546141735
  H   -1.41629944603593      1.69851397893078     -0.56246476156269
  H   -1.83725669405483      1.58774667299507      1.01847908345206
