15
Coordinates from ORCA-job run
  C   0.53251663747555     -0.36232911696690     -0.23167643872282
  C   -0.92871505789330      0.19522273670338     -0.25715838777014
  Br  0.64095822809334     -1.74212978886239     -1.62952150902990
  H   -1.08655504024002      0.58327734636797     -1.27033692485210
  C   1.57689573070452      0.70846104537557     -0.52019606738011
  H   1.35557294943874      1.18878108019661     -1.47590299559657
  H   1.56503391916363      1.45996371037606      0.27236569540376
  H   2.57183374725321      0.26572182482292     -0.57270862385621
  C   0.76475879437395     -1.01692250444118      1.05079420620460
  N   0.90853554810450     -1.51567848138823      2.10605333735980
  C   -0.99140391654761      1.32905364558071      0.67781165783200
  N   -1.01300018363568      2.22299389918622      1.43893831126279
  N   -1.99493666140407     -0.72562761482700      0.04988800250588
  H   -1.89058004204347     -1.10788018186737      0.98271811784680
  H   -2.01291465284330     -1.48290760025638     -0.62106838120777
