15
Coordinates from ORCA-job run
  C   0.50066490732270     -0.37471944964501     -0.48342568115262
  C   -1.01816916192802     -0.04280016342921     -0.30337264575392
  Br  0.89948293994180     -0.37724711111292     -2.40323786195170
  H   -1.57258903465340     -0.72750134628105     -0.95395559741897
  C   1.42247526762081      0.61253852439096      0.22158090342923
  H   2.46417508538863      0.32650188734718      0.07497216441265
  H   1.27075998756114      1.61569677610664     -0.17972882123946
  H   1.21602514174273      0.61251471680272      1.29498403696765
  C   0.71162831343456     -1.73001444587151      0.01617500259878
  N   0.87534667556229     -2.80098357452384      0.47335757930960
  C   -1.26670496962419      1.32791576862781     -0.76731973213857
  N   -1.44659879698312      2.44125561072308     -1.09312471302679
  N   -1.52967617054902     -0.18916996403318      1.04062908369492
  H   -1.43534880008555     -1.14137731548158      1.37109186027511
  H   -1.09247138475132      0.44939008637992      1.69137442199408
