17

C	-0.152339	0.116639	-1.54276
C	0.0	0.0	0.0
Cl	0.084477	1.867996	-1.986919
H	1.093957	0.0	0.0
N	0.926262	-0.595995	-2.200262
H	1.777429	-0.395198	-1.639357
H	0.733289	-1.586665	-2.070445
N	-1.464004	-0.245562	-2.019119
H	-1.413364	-0.30622	-3.030763
H	-1.697889	-1.164301	-1.654784
C	-0.449853	-1.332151	0.364027
N	-0.842721	-2.40985	0.629669
C	-0.648904	1.068934	0.865242
H	-0.599005	0.777554	1.918233
H	-1.696103	1.228824	0.589879
H	-0.10413	2.004896	0.7487
F	2.63743	0.0	0.0
