17

C	-0.169184	0.12831	-1.537735
C	0.0	0.0	0.0
Cl	-0.067385	-1.62205	-2.238933
H	1.096054	0.0	0.0
N	-1.411648	0.628943	-2.082081
H	-2.183735	0.071027	-1.734535
H	-1.513238	1.582293	-1.752447
N	0.897391	0.936953	-1.961132
H	1.764736	0.658289	-1.461839
H	0.987434	0.927924	-2.967615
C	-0.647412	-1.144635	0.596662
N	-1.233408	-2.021408	1.11866
C	-0.433341	1.287044	0.706717
H	0.095375	2.125734	0.251636
H	-1.514617	1.459158	0.657003
H	-0.143536	1.234859	1.758676
F	2.643502	0.0	0.0
