17

C	-0.101442	-0.062619	-1.528233
C	0.0	0.0	0.0
Cl	-1.787311	-0.84553	-2.067274
H	1.097399	0.0	0.0
N	-0.070033	1.253337	-2.088769
H	0.015766	1.182974	-3.096316
H	-0.929045	1.750161	-1.88182
N	0.928469	-0.920691	-1.972456
H	1.081838	-0.845805	-2.970036
H	1.781487	-0.682248	-1.420224
C	-0.455274	-1.226042	0.628768
N	-0.821545	-2.170355	1.225658
C	-0.598008	1.230796	0.657517
H	-0.451262	1.174828	1.7381
H	-1.674024	1.320364	0.466312
H	-0.080945	2.118526	0.291936
F	2.648196	0.0	0.0
