17

C	-0.160225	-0.093045	-1.549894
C	0.0	0.0	0.0
Cl	-0.191956	1.725822	-2.197339
H	1.096531	0.0	0.0
N	0.941966	-0.801809	-1.999605
H	1.022999	-0.808694	-3.005714
H	1.803012	-0.549266	-1.473542
N	-1.3717	-0.630383	-2.125802
H	-2.170582	-0.097456	-1.801319
H	-1.454474	-1.584454	-1.788567
C	-0.490298	-1.253894	0.546724
N	-0.924241	-2.248569	1.001895
C	-0.608069	1.18818	0.729362
H	-0.567621	1.010699	1.806595
H	-0.031825	2.084075	0.507373
H	-1.651332	1.364004	0.447437
F	2.656943	0.0	0.0
