17

C	-0.141317	0.099439	-1.528209
C	0.0	0.0	0.0
Cl	0.081088	-1.789757	-2.200004
H	1.095025	0.0	0.0
N	-1.401372	0.521177	-2.009006
H	-2.104206	-0.16401	-1.756502
H	-1.387349	0.602463	-3.018871
N	0.934709	0.853403	-1.987686
H	1.790271	0.599438	-1.442929
H	1.074523	0.766109	-2.982931
C	-0.653975	-1.139353	0.601932
N	-1.262838	-2.000604	1.123387
C	-0.455735	1.300423	0.667824
H	0.058265	2.131958	0.186521
H	-0.167656	1.279393	1.721702
H	-1.53516	1.454548	0.590473
F	2.648991	0.0	0.0
