17

C	-0.568585	0.024978	-1.415422
C	0.0	0.0	0.0
Cl	0.388208	1.274272	-2.383052
H	1.093422	0.0	0.0
N	-0.338414	-1.22535	-2.089972
H	-0.650467	-1.159426	-3.05207
H	-0.8811	-1.938001	-1.614014
N	-1.96663	0.388328	-1.417652
H	-2.090117	1.295154	-0.982317
H	-2.286332	0.465579	-2.377983
C	-0.486914	-1.193854	0.665809
N	-0.880472	-2.165789	1.201024
C	-0.344121	1.242964	0.824911
H	-0.032412	2.131355	0.270839
H	0.257489	1.210424	1.734688
H	-1.400964	1.324661	1.102688
F	2.548129	0.0	0.0
