17

C	-0.140809	-0.030603	-1.545196
C	0.0	0.0	0.0
Cl	0.085298	1.749967	-2.115187
H	1.095114	0.0	0.0
N	0.940759	-0.754016	-2.14772
H	0.743907	-1.73783	-1.986392
H	1.785722	-0.51539	-1.593963
N	-1.37843	-0.539777	-2.020203
H	-1.386695	-0.483512	-3.031849
H	-2.15274	-0.005375	-1.647668
C	-0.448925	-1.284497	0.516909
N	-0.8078	-2.301952	0.986496
C	-0.611748	1.151247	0.786023
H	-0.51623	0.949322	1.85588
H	-0.072885	2.070672	0.564893
H	-1.674815	1.302662	0.563067
F	2.636977	0.0	0.0
