17

C	-0.525547	-0.02851	-1.428857
C	0.0	0.0	0.0
Cl	0.312351	-1.33903	-2.347239
H	1.093695	0.0	0.0
N	-1.939991	-0.37044	-1.459956
H	-2.311991	-0.198753	-2.388285
H	-2.43188	0.213024	-0.79128
N	-0.15974	1.211874	-2.106223
H	-0.255866	1.083266	-3.107061
H	-0.809197	1.933497	-1.812269
C	-0.499668	-1.125039	0.769043
N	-0.881896	-2.000253	1.456242
C	-0.307983	1.321144	0.714568
H	-1.372215	1.594338	0.761726
H	0.263331	2.107842	0.221166
H	0.066349	1.245962	1.737033
F	2.549008	0.0	0.0
