17

C	-0.150776	0.224702	-1.511085
C	0.0	0.0	0.0
Cl	0.02496	-1.610902	-2.339039
H	1.096916	0.0	0.0
N	-1.414293	0.702766	-1.938571
H	-2.120556	0.013688	-1.705562
H	-1.417239	0.823435	-2.945255
N	0.931634	0.991515	-1.922371
H	1.78905	0.684215	-1.411843
H	1.053959	1.011467	-2.924461
C	-0.640555	-1.186572	0.519371
N	-1.188714	-2.092595	1.031344
C	-0.447664	1.243883	0.774802
H	-1.527354	1.407471	0.723933
H	-0.148621	1.137075	1.820623
H	0.064118	2.11056	0.355848
F	2.645052	0.0	0.0
