17

C	-0.172577	0.091061	-1.536552
C	0.0	0.0	0.0
Cl	-0.067329	-1.589862	-2.217014
H	1.095598	0.0	0.0
N	-1.458945	0.6102	-1.940704
H	-1.585854	1.517838	-1.505085
H	-1.422896	0.750421	-2.94621
N	0.94823	0.813649	-2.114339
H	1.787925	0.532756	-1.568954
H	0.798144	1.799332	-1.918917
C	-0.627288	-1.135612	0.638952
N	-1.138612	-2.011779	1.234332
C	-0.407766	1.295604	0.705811
H	0.090056	2.144836	0.23023
H	-1.490392	1.459953	0.720893
H	-0.051839	1.26005	1.737659
F	2.641227	0.0	0.0
