17

C	0.029845	-0.005947	-1.537287
C	0.0	0.0	0.0
Cl	-1.637698	0.075236	-2.276094
H	1.100305	0.0	0.0
N	0.786375	1.122493	-2.057798
H	1.672827	1.061563	-1.537815
H	0.330167	1.995083	-1.814867
N	0.668671	-1.235877	-1.918993
H	1.546697	-1.224903	-1.386631
H	0.908987	-1.145471	-2.901188
C	-0.570903	-1.207373	0.561516
N	-1.037057	-2.146531	1.09482
C	-0.571939	1.248414	0.649194
H	-0.01176	2.129631	0.329854
H	-0.471909	1.176662	1.735345
H	-1.630802	1.387086	0.405619
F	2.648958	0.0	0.0
