15

C	-0.493875	0.052797	-1.449539
C	0.0	0.0	0.0
F	-0.197015	-1.182646	-2.021052
H	1.093217	0.0	0.0
H	-0.301637	0.925446	0.505539
N	-1.926953	0.211761	-1.630619
H	-2.198234	1.11689	-1.264032
H	-2.397146	-0.495611	-1.07261
C	0.267889	1.11715	-2.207387
H	0.016111	2.113121	-1.830718
H	0.003091	1.056943	-3.264771
H	1.338019	0.951637	-2.05608
C	-0.573075	-1.127551	0.714379
N	-1.070742	-2.036301	1.269498
H	2.850792	0.0	0.0
