15

C	-0.381637	0.146361	-1.480071
C	0.0	0.0	0.0
F	-0.204764	1.494159	-1.808341
H	1.092074	0.0	0.0
H	-0.299589	-0.996445	0.345626
N	0.520427	-0.59974	-2.320454
H	0.311092	-1.587792	-2.228485
H	1.464804	-0.464261	-1.943388
C	-1.829013	-0.183412	-1.789012
H	-2.053793	-1.223891	-1.538604
H	-2.010087	-0.021484	-2.853046
H	-2.484226	0.467574	-1.206438
C	-0.592124	1.002419	0.865202
N	-1.091966	1.802462	1.566691
H	2.840837	0.0	0.0
