13
Coordinates from ORCA-job run
  C   -0.71981131573534     -0.06581716550673     -0.05202766541952
  C   0.71842541906499     -0.03208681716264      0.48532829323304
  H   -1.02164407835879     -1.11375218988700     -0.12973737609875
  H   1.11998387770608      0.98010258479531      0.50929425774299
  H   0.74840962146533     -0.48646343215184      1.47742069923221
  C   -0.74403254082487      0.50648714369455     -1.40604526695214
  N   -0.72796520059063      0.98832864525770     -2.47613421377676
  N   -1.68577506174756      0.62753366492229      0.78248665866825
  H   -1.41427243285453      1.59100487860329      0.93614589787919
  H   -1.77989141266769      0.16343363799333      1.67710950858098
  N   1.61745681307771     -0.84534545883579     -0.38478034338261
  O   1.28635771367882     -2.01804063971169     -0.55084772721911
  O   2.60175859778646     -0.29438485201079     -0.86821272248777
