13
Coordinates from ORCA-job run
  C   -0.65299599585409     -0.15839662992681     -0.07673760043438
  C   0.81194010442113     -0.25745837994018     -0.48424047521073
  H   -0.91827818751761     -1.09328661504870      0.42330225894866
  H   1.18129471530246      0.67190988049846     -0.91593191073473
  H   0.98329477873121     -1.09192129838227     -1.16650521440341
  C   -1.47770588221019     -0.03035684487967     -1.29532440839575
  N   -2.13795608802037      0.12423110731368     -2.25473124630488
  N   -0.80713779960519      0.92378055326146      0.87956131437401
  H   -1.70553046066055      0.86827678064752      1.34214430675477
  H   -0.74564159611938      1.82367284519027      0.41794748081783
  N   1.62135853586047     -0.52085761894348      0.74229107795497
  O   2.55806277503211      0.23517101430783      0.97527836945878
  O   1.28929510064000     -1.49276479409810      1.41394604717487
