13
Coordinates from ORCA-job run
  C   -0.64616761113072     -0.04069939570847      0.07667631974202
  C   0.84324823954507      0.13592244689905      0.36027159090330
  H   -0.92199710880174     -1.08177811909017      0.27988410021488
  H   1.04358866800695     -0.02353450280187      1.42258055671869
  H   1.18604354421874      1.12424501359393      0.06301447381905
  C   -0.91142850962698      0.20953881796389     -1.34473525765889
  N   -1.13072056392240      0.41544502569808     -2.47932867345327
  N   -1.36048803437028      0.94667773059920      0.88931516898401
  H   -2.30167070736818      1.07442620802021      0.53828270222627
  H   -1.43297372341720      0.60342190660215      1.84036591613621
  N   1.66756106336435     -0.86789370241080     -0.37620533271670
  O   1.21522301729715     -2.00813434485735     -0.45822735824792
  O   2.74978172620524     -0.48863708450786     -0.81189420666765
