14

C	-0.387325	-0.254348	-1.44721
C	0.0	0.0	0.0
F	0.099961	0.844682	-2.180468
H	1.094797	0.0	0.0
H	0.147851	-1.131793	-1.80814
N	-1.788788	-0.410187	-1.622011
H	-1.997901	-0.598176	-2.595802
H	-2.260922	0.444034	-1.347584
N	-0.352611	-1.122705	0.847985
O	-0.181613	-2.249294	0.363033
O	-0.639297	-0.906548	2.033827
C	-0.547924	1.239894	0.493758
N	-0.963367	2.291951	0.818616
H	2.433367	0.0	0.0
