14

C	-0.396663	-0.00591	-1.466157
C	0.0	0.0	0.0
F	0.066344	1.2131	-1.995311
H	1.091699	0.0	0.0
H	0.149316	-0.794313	-1.980455
N	-1.795255	-0.154827	-1.655301
H	-2.283115	0.614228	-1.214946
H	-2.016485	-0.15633	-2.642559
N	-0.344732	-1.254769	0.646805
O	-0.169713	-2.28033	-0.02439
O	-0.634359	-1.243402	1.850549
C	-0.553103	1.134058	0.703327
N	-1.000906	2.096403	1.210817
H	2.442702	0.0	0.0
