14

C	-0.3307	0.053426	-1.492402
C	0.0	0.0	0.0
F	-0.113159	-1.255359	-1.988077
H	1.092333	0.0	0.0
H	-1.384881	0.254071	-1.703678
N	0.527876	1.017562	-2.044461
H	0.472701	1.037447	-3.053266
H	1.486817	0.84412	-1.725304
N	-0.594408	-1.238093	0.590252
O	-1.822346	-1.33436	0.533343
O	0.161125	-2.071657	1.073448
C	-0.531307	1.151934	0.700688
N	-0.93594	2.090694	1.28053
H	2.700727	0.0	0.0
