14

C	-0.342507	-0.029784	-1.491532
C	0.0	0.0	0.0
F	-1.700644	-0.292928	-1.647434
H	1.091664	0.0	0.0
H	-0.161626	0.984344	-1.862229
N	0.411008	-0.944023	-2.293569
H	1.380006	-0.644528	-2.216057
H	0.366952	-1.846124	-1.834119
N	-0.382074	-1.203593	0.7362
O	-0.613923	-1.096687	1.943658
O	-0.326898	-2.285591	0.138096
C	-0.513555	1.177721	0.665373
N	-0.874051	2.182813	1.157874
H	2.490573	0.0	0.0
