15

C	-0.568642	0.032181	-1.377258
C	0.0	0.0	0.0
F	-1.907382	-0.172246	-1.421869
H	1.091238	0.0	0.0
H	-0.324078	-0.955776	0.425448
N	-0.300917	1.318838	-2.126892
O	-1.015438	1.519429	-3.105825
O	0.60825	2.028739	-1.724349
N	0.06073	-1.065471	-2.220066
O	0.927413	-0.745061	-3.024348
O	-0.340194	-2.198373	-1.971786
N	-0.507303	1.15488	0.742376
H	-0.990448	0.848288	1.574513
H	0.307135	1.685611	1.032927
H	2.818859	0.0	0.0
