15

C	-0.57827	-0.085684	-1.373535
C	0.0	0.0	0.0
F	-1.888463	0.254779	-1.430346
H	1.091236	0.0	0.0
H	-0.317333	0.974449	0.384514
N	0.136841	0.869568	-2.318387
O	0.812069	0.403685	-3.226928
O	-0.037929	2.054849	-2.060152
N	-0.451821	-1.459708	-1.994884
O	-1.323288	-1.775985	-2.799894
O	0.521197	-2.120774	-1.667053
N	-0.521731	-1.116816	0.793118
H	-0.972691	-0.765683	1.625952
H	0.286046	-1.65787	1.085901
H	2.822721	0.0	0.0
