15

C	-0.61464	-0.05874	-1.357323
C	0.0	0.0	0.0
F	-1.936288	-0.387509	-1.339005
H	1.088143	0.0	0.0
H	-0.311194	-0.911384	0.522141
N	-0.489472	1.264302	-2.081435
O	0.657753	1.61422	-2.30849
O	-1.520454	1.859301	-2.358128
N	0.019341	-1.096122	-2.262584
O	-0.086755	-0.918168	-3.47338
O	0.51102	-2.069582	-1.706092
N	-0.431903	1.241369	0.641014
H	0.39374	1.641561	1.074748
H	-1.126602	1.072491	1.353909
H	2.799111	0.0	0.0
