15

C	-0.483454	-0.10544	-1.405852
C	0.0	0.0	0.0
F	-1.798684	-0.451561	-1.517405
H	1.08912	0.0	0.0
H	-0.358158	0.94187	0.421408
N	-0.324321	1.163301	-2.21646
O	0.29134	2.095068	-1.711749
O	-0.845364	1.144686	-3.329073
N	0.303675	-1.155776	-2.16088
O	-0.086774	-2.313991	-2.032479
O	1.312024	-0.769791	-2.740487
N	-0.389245	-1.150947	0.806735
H	-1.195178	-1.631644	0.431668
H	0.39536	-1.792954	0.819257
H	2.754196	0.0	0.0
