15

C	-0.403411	0.034951	-1.442569
C	0.0	0.0	0.0
F	0.010532	-1.035647	-2.125087
H	1.092556	0.0	0.0
H	-0.377339	0.895184	0.495817
N	-1.923947	0.083539	-1.595088
O	-2.49303	-1.00143	-1.701524
O	-2.465436	1.181992	-1.493401
N	0.081391	1.275642	-2.179431
O	0.205808	1.16196	-3.394658
O	0.266309	2.283855	-1.513231
N	-0.405855	-1.224038	0.673299
H	0.339865	-1.901092	0.547922
H	-1.26589	-1.617847	0.312994
H	2.758599	0.0	0.0
