15

C	-0.474901	-0.030566	-1.415483
C	0.0	0.0	0.0
F	0.00814	-1.043025	-2.121511
H	1.097503	0.0	0.0
H	-0.358589	0.913898	0.470909
N	-2.008377	-0.125489	-1.503097
O	-2.48028	-0.894086	-2.331689
O	-2.637788	0.589301	-0.730625
N	-0.164513	1.2582	-2.176628
O	-0.365887	2.30491	-1.568974
O	0.222209	1.143221	-3.333661
N	-0.47981	-1.226412	0.639957
H	0.340177	-1.71534	0.98454
H	-1.06495	-1.001641	1.430868
H	2.829825	0.0	0.0
