15

C	-0.51634	-0.009683	-1.401317
C	0.0	0.0	0.0
F	0.061238	-0.956339	-2.155009
H	1.092451	0.0	0.0
H	-0.314318	-0.948998	0.454186
N	-2.0289	-0.267765	-1.51561
O	-2.449789	-0.501178	-2.644262
O	-2.694711	-0.242556	-0.485328
N	-0.333065	1.327802	-2.09869
O	-1.268572	2.116848	-2.031587
O	0.747645	1.501309	-2.642822
N	-0.421509	1.195743	0.705321
H	-1.221489	1.025448	1.295133
H	0.363829	1.505115	1.265174
H	2.811489	0.0	0.0
