15

C	-0.465995	-0.005297	-1.421032
C	0.0	0.0	0.0
F	-0.174483	-1.160705	-2.036404
H	1.097731	0.0	0.0
H	-0.344037	-0.954744	0.408465
N	-1.978901	0.178432	-1.514927
O	-2.41487	1.273317	-1.848166
O	-2.636005	-0.801519	-1.184617
N	0.109379	1.118142	-2.267935
O	0.100129	0.932957	-3.479732
O	0.499721	2.117693	-1.68081
N	-0.612035	1.108414	0.738523
H	0.026129	1.892796	0.676247
H	-0.648933	0.843162	1.714621
H	2.846694	0.0	0.0
