15

C	-0.473927	-0.02036	-1.416994
C	0.0	0.0	0.0
F	0.0177	0.96308	-2.157178
H	1.09385	0.0	0.0
H	-0.36302	-0.893017	0.504347
N	-0.169726	-1.336199	-2.132049
O	0.147332	-1.263254	-3.313684
O	-0.309549	-2.359435	-1.471904
N	-2.005302	0.082878	-1.504077
O	-2.63513	-0.674592	-0.772176
O	-2.474379	0.903605	-2.282917
N	-0.485617	1.247585	0.593733
H	0.333195	1.781647	0.864272
H	-1.013068	1.048588	1.431519
H	2.831839	0.0	0.0
