17

C	0.0	0.0	0.0
C	-0.438489	-0.20702	-1.470697
Br	1.957153	0.0	0.0
H	0.400783	0.057159	-2.11853
H	-0.231411	1.044503	0.219084
C	-0.685204	-0.867416	1.028726
H	-1.766755	-0.768189	0.866943
H	-0.456517	-0.508406	2.033174
H	-0.392201	-1.911806	0.946257
C	-1.653011	0.609833	-1.859798
H	-2.52595	0.388412	-1.239796
H	-1.399072	1.667829	-1.75101
H	-1.914248	0.423318	-2.900494
N	-0.627669	-1.675976	-1.783456
O	-1.513404	-1.992679	-2.570259
O	0.181754	-2.459436	-1.287218
Cl	-4.454741	0.0	0.0
