17

C	0.0	0.0	0.0
C	-0.431977	0.511644	-1.403799
Br	1.956201	0.0	0.0
H	0.445371	0.540294	-2.051379
H	-0.280555	0.760591	0.724751
C	-0.492913	-1.348979	0.49661
H	-1.581198	-1.361952	0.405375
H	-0.061476	-2.162666	-0.077625
H	-0.212823	-1.458396	1.547006
C	-1.068065	1.882641	-1.310183
H	-0.383004	2.538984	-0.766497
H	-2.015274	1.789955	-0.780785
H	-1.246754	2.302617	-2.298444
N	-1.309686	-0.435765	-2.202275
O	-0.986836	-1.622058	-2.205744
O	-2.164233	0.062883	-2.921623
Cl	-3.766262	0.0	0.0
