17

C	0.0	0.0	0.0
C	-0.542411	-0.076306	-1.420525
Br	1.955666	0.0	0.0
H	-1.626066	0.091388	-1.303333
H	-0.284583	0.960785	0.425463
C	-0.480507	-1.155395	0.860213
H	-0.032891	-2.096097	0.532688
H	-0.191344	-0.989077	1.900195
H	-1.569641	-1.206427	0.794314
C	-0.267274	-1.365024	-2.161523
H	-0.618571	-1.291262	-3.189662
H	-0.814467	-2.172039	-1.672822
H	0.798311	-1.600557	-2.178985
N	-0.029093	1.111516	-2.187634
O	-0.2082	2.21597	-1.678934
O	0.533925	0.925403	-3.267352
Cl	-3.7036	0.0	0.0
