18

C	-0.583671	-0.004694	-1.421984
C	0.0	0.0	0.0
F	0.073292	-0.966467	-2.119281
H	1.090836	0.0	0.0
C	-2.065645	-0.27349	-1.493664
H	-2.625053	0.469573	-0.929588
H	-2.385094	-0.252693	-2.536731
H	-2.238712	-1.266857	-1.084038
N	-0.295085	1.312843	-2.132976
O	0.666432	1.359903	-2.883204
O	-1.085343	2.225376	-1.899319
N	-0.43847	-1.17553	0.686413
H	0.314938	-1.494406	1.281507
H	-1.259455	-0.975605	1.243896
N	-0.438719	1.271636	0.704035
O	0.232733	2.278168	0.514578
O	-1.451587	1.211592	1.410063
Br	3.43305	0.0	0.0
