18

C	-0.569093	-0.013623	-1.426264
C	0.0	0.0	0.0
F	-0.272958	-1.268136	-1.921121
H	1.097109	0.0	0.0
C	-2.048607	0.212649	-1.53973
H	-2.54389	-0.477902	-0.858262
H	-2.355466	0.014492	-2.567258
H	-2.300926	1.242013	-1.297563
N	0.192399	0.931953	-2.350597
O	-0.449577	1.799708	-2.941603
O	1.388136	0.702188	-2.466941
N	-0.566023	-1.126798	0.717572
H	-0.365587	-0.979646	1.700484
H	-0.030625	-1.936899	0.425171
N	-0.395451	1.268176	0.676676
O	-0.351406	2.289638	-0.007086
O	-0.678263	1.226909	1.871637
Br	3.471477	0.0	0.0
