18

C	-0.50308	0.066744	-1.44742
C	0.0	0.0	0.0
F	-1.87196	0.208883	-1.443493
H	1.08806	0.0	0.0
C	0.13534	1.102092	-2.331104
H	1.219929	1.037932	-2.239897
H	-0.17244	0.938186	-3.366527
H	-0.190591	2.089029	-2.007402
N	-0.240314	-1.316116	-2.037128
O	0.894775	-1.523501	-2.448549
O	-1.168495	-2.120664	-2.026132
N	-0.466484	-1.103799	0.757061
H	0.242551	-1.818791	0.806899
H	-1.3554	-1.469653	0.454529
N	-0.476753	1.297381	0.633613
O	-1.475174	1.255239	1.345481
O	0.155776	2.314897	0.349872
Br	3.437004	0.0	0.0
