18

C	-0.46955	0.002866	-1.446609
C	0.0	0.0	0.0
F	0.321872	-0.908744	-2.112345
H	1.088094	0.0	0.0
C	-1.902362	-0.336537	-1.734763
H	-2.56548	0.383639	-1.259894
H	-2.075704	-0.330338	-2.809904
H	-2.086606	-1.341147	-1.351173
N	-0.087126	1.343283	-2.075946
O	-0.838383	1.833299	-2.915072
O	0.999921	1.795135	-1.737107
N	-0.493142	-1.139758	0.692665
H	0.033274	-1.292964	1.54432
H	-1.481264	-1.064202	0.911592
N	-0.402722	1.270728	0.707836
O	0.278856	1.578185	1.684107
O	-1.352991	1.937622	0.269327
Br	2.753661	0.0	0.0
