18

C	-0.443314	-0.064686	-1.46179
C	0.0	0.0	0.0
F	-0.066114	1.068463	-2.109839
H	1.091827	0.0	0.0
C	0.119835	-1.271761	-2.157051
H	-0.231812	-2.180148	-1.677414
H	-0.174537	-1.253748	-3.209
H	1.207536	-1.209686	-2.072166
N	-1.973228	-0.074328	-1.516775
O	-2.541372	0.986338	-1.753223
O	-2.525192	-1.148299	-1.283876
N	-0.437088	-1.130066	0.740255
H	0.159314	-1.243653	1.549224
H	-1.402381	-1.039685	1.028534
N	-0.49099	1.324998	0.575594
O	-1.536024	1.284212	1.233318
O	0.158805	2.334469	0.336843
Br	3.437464	0.0	0.0
