18

C	-0.423905	-0.097566	-1.471452
C	0.0	0.0	0.0
F	0.164758	-1.234039	-2.030361
H	1.107016	0.0	0.0
C	-1.92316	-0.217621	-1.672973
H	-2.289323	-1.126112	-1.194616
H	-2.433376	0.651029	-1.24899
H	-2.143316	-0.268122	-2.743812
C	0.179662	1.088989	-2.206541
H	1.247279	1.134485	-1.976473
H	-0.294452	2.028386	-1.917777
H	0.045425	0.935265	-3.280717
N	-0.406292	-1.090166	0.87405
O	-0.306201	-0.887153	2.093335
O	-0.689863	-2.187802	0.37207
C	-0.426563	1.255147	0.577455
N	-0.741666	2.316558	0.977603
H	2.43366	0.0	0.0
