15
Coordinates from ORCA-job run
  C   -0.59395210669753     -0.29797879056690      0.01441385353172
  C   0.83325808510083      0.28015255229219      0.12404690066426
  F   -0.49172487174863     -1.54479644609539     -0.57014369053937
  H   0.80804063567787      1.22281497401016      0.67605281403547
  C   -1.17160085216007     -0.46231635952551      1.35932638182798
  N   -1.69485599129994     -0.57343194962959      2.40491512480300
  C   -1.48595226627949      0.57952543003110     -0.84331385429306
  H   -1.07618214802706      0.64026273229696     -1.85240448524154
  H   -2.47815115317747      0.12946143638064     -0.89071859255455
  H   -1.57219597130421      1.58160479358407     -0.41905791829466
  C   1.42372723955546      0.46032518965631     -1.19464597404026
  N   1.86277727363260      0.64995525490474     -2.26699783354473
  N   1.68745706110542     -0.66185399839114      0.94934782611794
  O   2.29814952211541     -1.53626525869990      0.35060151678304
  O   1.65020554350679     -0.46745956024775      2.15957793074477
