15
Coordinates from ORCA-job run
  C   -0.59313065873594     -0.36650529758936     -0.07084447580674
  C   0.78554723720918      0.30407357299797      0.08697755470286
  F   -0.46833451947316     -1.48928673039294     -0.85654849031327
  H   0.66963108402984      1.27534725571065      0.57370094387362
  C   -1.08348934842992     -0.76067922554355      1.26064163690529
  N   -1.49689023698364     -1.01490743917812      2.33013690708339
  C   -1.56792969104704      0.58335290103550     -0.74530031851832
  H   -1.72374995983282      1.48165678555923     -0.14578182571952
  H   -2.52257413890677      0.07169730637698     -0.87176051109290
  H   -1.18398314374374      0.85687149745487     -1.72989180724551
  C   1.43529690490219      0.45956279513497     -1.20823592593509
  N   1.94310759653822      0.59846683783121     -2.25787593394427
  N   1.71025882517272     -0.48458852559507      0.99755109724167
  O   2.39415851957099      0.18728358816337      1.76075531427083
  O   1.70208152972989     -1.70134532196571      0.87547583449795
