15
Coordinates from ORCA-job run
  C   -0.57986743244776      0.31068316579853     -0.51791126152424
  C   0.92175964900658     -0.02940337069353     -0.36172545934786
  F   -0.67818659715706      1.57403157725780     -1.06416603952361
  H   1.43485865846634      0.24278426353708     -1.29050841412261
  C   -1.12717689490986     -0.63565523134279     -1.50939843549489
  N   -1.58152056382025     -1.37764863193137     -2.29882646884607
  C   -1.36383494896882      0.24393886491880      0.77790787329996
  H   -2.41401267747275      0.44509191852972      0.56416547091053
  H   -0.99475756812545      1.00117794442501      1.46792554794448
  H   -1.28002304815888     -0.74761597486273      1.22681787477683
  C   1.10436523396141     -1.44325650271362     -0.06310952983316
  N   1.19757511599509     -2.59004198765539      0.17439431625309
  N   1.60929526448887      0.79902952432944      0.72159080370025
  O   2.55644568946698      0.26850103792215      1.28597584491110
  O   1.19508011967554      1.93738340248091      0.88786787689622
