15
Coordinates from ORCA-job run
  C   -0.58496666740588     -0.31176246969293      0.05752195443188
  C   0.82458274259716      0.31739517541426      0.07926662630733
  F   -0.44984086526050     -1.61696324314995     -0.37182004569380
  H   0.77465162005460      1.31849683377975      0.51442592769165
  C   -1.14533003413590     -0.32666052933654      1.41951533663525
  N   -1.65329147167746     -0.32323137924362      2.47840591047607
  C   -1.51005775160202      0.42793092933676     -0.89024696174142
  H   -2.48914517718458     -0.05202119441447     -0.86990715955296
  H   -1.62185980353018      1.47196765406122     -0.59165406333168
  H   -1.11071331694273      0.37497101235789     -1.90401396780897
  C   1.39914110638025      0.35503099192217     -1.25807801073713
  N   1.82423013109657      0.42727548189517     -2.35022910576553
  N   1.71459490388272     -0.49258808188809      1.00171801655507
  O   2.34654406492820     -1.41461459441362      0.50514818926273
  O   1.68246051879975     -0.15422658662800      2.17994735327151
