15
Coordinates from ORCA-job run
  C   -0.58930609650633     -0.26266351318249     -0.45203118469785
  C   0.89563478775189      0.16340580829685     -0.39824773752438
  F   -0.83455617815830     -0.49193975025581     -1.79719019556135
  H   1.01397612583708      1.03479929886955     -1.04538019087106
  C   -0.80495758108880     -1.52209214698996      0.27491196387531
  N   -1.02463768245293     -2.51909869864015      0.85556600839281
  C   -1.52368450258497      0.82279419857978      0.04153548615610
  H   -1.31179469371519      1.75845656075222     -0.47838408032492
  H   -1.42277455102126      0.97584781930603      1.11648564052343
  H   -2.54828145444619      0.51631144948754     -0.17332375912832
  C   1.78948455169720     -0.91141712042028     -0.80267359342848
  N   2.50626072063164     -1.77183888908292     -1.15610950431437
  N   1.22356311033621      0.62252071918985      1.00031806878361
  O   1.41704844493210     -0.25208821377759      1.83702197357421
  O   1.21302499878785      1.83600247786739      1.18050110454527
