14

C	-0.401713	0.008424	-1.437924
C	0.0	0.0	0.0
Cl	-2.181945	-0.207511	-1.692648
H	1.096017	0.0	0.0
H	-0.121797	0.914874	-1.968332
H	-0.33471	-0.937696	0.452313
N	0.295587	-1.110082	-2.163719
O	0.042477	-2.258445	-1.817418
O	0.919717	-0.79075	-3.19024
C	-0.517288	1.210845	0.760815
H	-1.609532	1.237192	0.813339
H	-0.12038	1.19081	1.777397
H	-0.16722	2.136824	0.296359
Br	3.278172	0.0	0.0
