14

C	-0.557115	-0.03374	-1.406777
C	0.0	0.0	0.0
Cl	0.012652	-1.404462	-2.354775
H	1.092228	0.0	0.0
H	-1.64799	-0.063832	-1.404972
H	-0.340907	0.940741	0.442972
N	-0.24449	1.275068	-2.115304
O	0.592816	1.319349	-3.0014
O	-0.904505	2.224178	-1.690829
C	-0.499896	-1.178126	0.828279
H	-0.12131	-2.120669	0.430562
H	-1.594269	-1.225855	0.862475
H	-0.127079	-1.082917	1.849811
Br	3.640641	0.0	0.0
