14

C	-0.472541	-0.139857	-1.423221
C	0.0	0.0	0.0
Cl	0.176124	1.108859	-2.486882
H	1.091863	0.0	0.0
H	-0.235767	-1.108153	-1.858504
H	-0.32064	0.98109	0.364234
N	-1.979906	-0.064692	-1.436563
O	-2.57317	-1.133675	-1.576579
O	-2.506848	1.022957	-1.234404
C	-0.529924	-1.117648	0.890967
H	-0.054184	-1.05045	1.871197
H	-1.613959	-1.072808	1.030132
H	-0.281049	-2.097037	0.474691
Br	3.562148	0.0	0.0
