12

C	0.0	0.0	0.0
C	-0.544114	0.084032	-1.419573
Cl	1.774189	0.0	0.0
H	0.280325	0.055593	-2.149239
H	-0.351583	-0.917301	0.449475
H	-0.348547	0.836428	0.588455
C	-1.319444	1.296415	-1.651999
N	-1.72406	2.355675	-1.959787
N	-1.358643	-1.131253	-1.797993
O	-2.150215	-0.987595	-2.720525
O	-1.044058	-2.201647	-1.293364
F	-2.399423	0.0	0.0
