12

C	0.0	0.0	0.0
C	-0.545068	0.192679	-1.407528
Cl	1.770886	0.0	0.0
H	0.281026	0.22744	-2.134685
H	-0.35043	-0.94855	0.379798
H	-0.351091	0.789195	0.650007
C	-1.321188	1.419492	-1.550721
N	-1.708484	2.502863	-1.792119
N	-1.345557	-0.995369	-1.880083
O	-1.004915	-2.098032	-1.469137
O	-2.149856	-0.792633	-2.779176
F	-2.395951	0.0	0.0
