12

C	0.0	0.0	0.0
C	-0.543007	-0.071094	-1.420696
Cl	1.774019	0.0	0.0
H	0.283923	-0.182665	-2.139838
H	-0.351005	0.895935	0.492421
H	-0.346099	-0.864119	0.548239
C	-1.306563	1.115218	-1.790022
N	-1.680668	2.153341	-2.193722
N	-1.355565	-1.31857	-1.663905
O	-1.018589	-2.328374	-1.058623
O	-2.161868	-1.277194	-2.583155
F	-2.397196	0.0	0.0
