16

C	0.0	0.0	0.0
C	-0.463629	-0.118474	-1.445914
F	1.420839	0.0	0.0
H	-1.555629	-0.060804	-1.395441
H	-0.315748	0.951998	0.430557
N	-0.484979	-1.061475	0.792229
H	-0.010178	-1.925222	0.578707
H	-0.444816	-0.87066	1.780067
N	-0.110531	-1.407272	-2.052035
H	0.84691	-1.639579	-1.810236
H	-0.720802	-2.121934	-1.672798
C	0.086019	1.014438	-2.298297
H	-0.314871	0.93173	-3.309307
H	-0.199969	1.986009	-1.885283
H	1.177408	0.968286	-2.350336
Cl	-4.057108	0.0	0.0
