16

C	0.0	0.0	0.0
C	-0.403626	0.436309	-1.412503
F	1.414338	0.0	0.0
H	0.058137	1.422498	-1.566297
H	-0.328826	0.744162	0.734907
N	-0.474268	-1.323582	0.319429
H	0.314481	-1.927032	0.504647
H	-1.092327	-1.3124	1.119111
N	-1.82948	0.568264	-1.620323
H	-2.26763	1.208668	-0.968092
H	-2.30688	-0.309794	-1.441681
C	0.157235	-0.534019	-2.444158
H	-0.28358	-1.521166	-2.287753
H	-0.120102	-0.186962	-3.441095
H	1.24412	-0.618002	-2.376893
Cl	-4.635123	0.0	0.0
