16

C	0.0	0.0	0.0
C	-0.415437	0.205042	-1.482869
F	1.383645	0.0	0.0
H	0.503854	0.512915	-1.995285
H	-0.320771	0.889595	0.547408
N	-0.485015	-1.145434	0.709423
H	-0.391351	-1.973372	0.133281
H	-1.482462	-1.00204	0.86172
N	-1.346829	1.329573	-1.553393
H	-1.589363	1.488117	-2.525947
H	-2.214837	1.059788	-1.084972
C	-0.923288	-1.077507	-2.143724
H	-1.851997	-1.397679	-1.668725
H	-0.179479	-1.882215	-2.105608
H	-1.138451	-0.885022	-3.20038
Cl	-3.920913	0.0	0.0
