16

C	0.0	0.0	0.0
C	-0.405807	-0.437578	-1.434427
F	1.395015	0.0	0.0
H	0.516692	-0.373486	-2.02333
H	-0.312923	1.039463	0.121467
N	-0.491029	-0.736754	1.121501
H	-1.478163	-0.505013	1.223657
H	-0.438477	-1.730899	0.937413
N	-1.328318	0.560145	-1.976209
H	-2.200478	0.512795	-1.444944
H	-1.562547	0.297762	-2.928443
C	-0.926407	-1.873715	-1.498692
H	-1.868914	-1.951403	-0.953454
H	-1.1162	-2.147023	-2.541593
H	-0.200436	-2.593555	-1.09939
Cl	-3.900126	0.0	0.0
