16

C	-0.381116	-0.071314	-1.499229
C	0.0	0.0	0.0
Cl	-0.100588	1.575391	-2.257252
H	1.092072	0.0	0.0
N	0.4828	-1.066859	-2.030753
H	1.456368	-0.885222	-1.778489
H	0.391264	-1.125168	-3.037434
N	-1.78572	-0.329423	-1.686154
H	-2.031784	-0.201288	-2.659937
H	-1.963153	-1.29424	-1.424884
C	-0.497647	-1.19835	0.661825
N	-0.8977	-2.17999	1.167892
N	-0.554114	1.203633	0.692417
O	-1.694135	1.114078	1.148078
O	0.166226	2.193916	0.744427
Cl	3.234844	0.0	0.0
