16

C	-0.227888	-0.014183	-1.521812
C	0.0	0.0	0.0
Cl	-1.97166	-0.126876	-1.961841
H	1.093338	0.0	0.0
N	0.259857	1.241092	-2.034843
H	1.221457	1.359313	-1.71648
H	0.25012	1.209377	-3.048362
N	0.396078	-1.243825	-1.956997
H	1.385809	-1.193393	-1.708133
H	0.31259	-1.328939	-2.96397
C	-0.557253	-1.159443	0.668788
N	-0.982251	-2.092928	1.240128
N	-0.508473	1.257214	0.627918
O	-1.658778	1.242104	1.065376
O	0.253968	2.216226	0.645363
Cl	3.213553	0.0	0.0
