16

C	-0.441507	0.027974	-1.488968
C	0.0	0.0	0.0
Cl	-0.003483	-1.648593	-2.11391
H	1.090855	0.0	0.0
N	-1.828296	0.316437	-1.575948
H	-2.37876	-0.358458	-1.057128
H	-2.107219	0.315264	-2.549401
N	0.2806	0.948768	-2.311748
H	1.276203	0.743657	-2.225668
H	0.13319	1.876287	-1.927581
C	-0.553967	-1.121429	0.74217
N	-1.011304	-2.037061	1.319075
N	-0.46507	1.283142	0.635603
O	0.062694	2.312855	0.226705
O	-1.341486	1.227795	1.496124
Cl	3.200706	0.0	0.0
