12
Coordinates from ORCA-job run
  C   0.73443667159146     -0.57848618339311     -0.21282423560264
  C   -0.73272098026347     -0.52863121923343      0.17587513418824
  Cl  0.95363424413698     -0.56968536382729     -1.95846531592757
  H   -1.22575974700669     -1.39699810005759     -0.28223439777450
  H   1.23410333533758     -1.45726581666689      0.19298231100221
  H   -0.77720094711804     -0.64320816558364      1.26047387880145
  N   1.41998169460191      0.60852696370649      0.43760216426842
  O   1.84794463354691      1.52297502491924     -0.24357192937873
  O   1.45108896612121      0.52376393003428      1.66173748901589
  N   -1.28343733828552      0.76564963472853     -0.18024795089097
  H   -2.14375274882389      0.93594329267307      0.32111030317650
  H   -1.47731778383843      0.81741600270035     -1.17143745087830
