12
Coordinates from ORCA-job run
  C   0.65964091733895     -0.37391929503276     -0.16332445427695
  C   -0.68058211170616      0.25931801556599      0.15815712454995
  Cl  0.99964534725633     -0.32669336642986     -1.89568293431391
  H   -0.76495657299869      0.28678438295064      1.24930810906270
  H   0.70763979746295     -1.40623226331101      0.17219144594638
  H   -0.67036885159133      1.29199748525803     -0.21068566330871
  N   1.73568314203160      0.36800891650942      0.57925969106191
  O   1.89092684219123      1.55292900023096      0.30704665390313
  O   2.33204898816869     -0.26748306087745      1.44568408327108
  N   -1.73737223243645     -0.58871382709255     -0.37040053740114
  H   -1.85924282944045     -0.41865726302320     -1.36034295850970
  H   -2.61306243627667     -0.37833872474820      0.08878944001525
