12
Coordinates from ORCA-job run
  C   0.69961624581012     -0.55340618936281     -0.22651451320648
  C   -0.77810751763316     -0.63781605331666      0.16649975889898
  Cl  0.90432078199170     -0.48158045319032     -1.97186947130789
  H   -1.18593134464129     -1.52225022471861     -0.32912097924892
  H   1.27126943733003     -1.40498232285527      0.14642987837396
  H   -0.82208830196815     -0.80669545100702      1.24286047034406
  N   1.31678430413580      0.66319491751646      0.44414812664156
  O   1.97089622857374      1.46218560366530     -0.20738152898230
  O   1.09498224945634      0.71955889217537      1.65133050518530
  N   -1.58860390429659      0.50927489096635     -0.15837979418509
  H   -1.32682868188585      1.32039805179786      0.38431262830610
  H   -1.55530949687269      0.73211833832935     -1.14331508081929
