12
Coordinates from ORCA-job run
  C   0.60663662122196     -0.53133893414116      0.41273945787102
  C   -0.73218278054887     -0.62372928054083     -0.31219648319041
  Cl  1.64071452614458     -1.91452318727667      0.05430105418439
  H   -0.52881346649350     -0.76998472081378     -1.37432156487777
  H   0.50507183122245     -0.44371449015746      1.49298076029114
  H   -1.24353607356650     -1.51773895861159      0.05395177668582
  N   1.29010755659940      0.73738873847217     -0.02168788805847
  O   1.51001971507274      1.56777616542387      0.85689957344840
  O   1.51227590846311      0.86872523183899     -1.21956910987454
  N   -1.58822521243087      0.53008940127425     -0.15013182740239
  H   -1.75917452038147      0.75050193390515      0.82162560195163
  H   -1.21289410530304      1.34554810062705     -0.61459135102883
