12
Coordinates from ORCA-job run
  C   0.71052939929240     -0.56995927183955     -0.20913439247501
  C   -0.77746683484052     -0.61684883718673      0.16650180832059
  Cl  0.95070858838013     -0.50705308242577     -1.94868067704292
  H   -1.19360734460528     -1.51360710500191     -0.29939479952594
  H   1.25604952674672     -1.42358173411429      0.19006553477140
  H   -0.82782371514142     -0.74985391855513      1.25057842240306
  N   1.30584087933719      0.63908696623083      0.47011708702856
  O   1.42989187105907      1.68436814881168     -0.15320342936475
  O   1.53002539444373      0.46961211452780      1.66642009394569
  N   -1.57353612775916      0.52517537468514     -0.20823888552275
  H   -1.28542512432632      1.36335464758832      0.27820013038813
  H   -1.52518651258653      0.69830669727961     -1.20323089292606
