16
Coordinates from ORCA-job run
  C   -0.92753845084115     -0.16619607116549      0.34029484777793
  C   0.61619181193920     -0.11527034701227      0.28688090127068
  Cl  -1.41753765667439      0.60036181691795      1.95489134603117
  H   0.94534515436479     -0.49205699881358      1.26225040418372
  N   -1.40513698739694     -1.48308449527019      0.17874549359068
  H   -2.36864954070706     -1.59145086954651      0.46409928658425
  H   -0.79829381473895     -2.16653527681126      0.60906912540005
  C   -1.53105619054411      0.69731488503652     -0.68477568162095
  N   -1.97604548467760      1.37020153421412     -1.53901082215938
  C   1.14153905493869      1.30523779414110      0.10153143304462
  H   2.23175455638416      1.29596050790535      0.17956774842815
  H   0.87572721252932      1.68627489972334     -0.88760970267588
  H   0.75643724574554      1.99301132983321      0.85617547819583
  N   1.07717618308039     -1.07560214791353     -0.71320112638305
  H   2.08664848023515     -1.01143660756579     -0.78465980239757
  H   0.69343842636295     -0.84572995367295     -1.62424892927024
