16
Coordinates from ORCA-job run
  C   -0.86898044633312     -0.16145997401679      0.35475253333704
  C   0.65323306628822     -0.04703241977038      0.16255119040863
  Cl  -1.32328021690731      0.70446863840162      1.91470531785235
  H   1.09314847185314     -0.54429713157467      1.04591881357470
  N   -1.24516350429599     -1.53671851164302      0.38414450924903
  H   -2.25190423434432     -1.64724915925214      0.40263271860980
  H   -0.85202706920639     -1.98167738362841      1.20646058687201
  C   -1.58459402155923      0.52476713967514     -0.72375092965001
  N   -2.17867712447447      1.08763752137430     -1.56563544527174
  C   1.15044544759604      1.38698724492413      0.09812885895936
  H   0.94888988888209      1.93239546098460      1.01866669804320
  H   2.23192200295980      1.38588967256816     -0.06272629088570
  H   0.68463814931755      1.90448750474314     -0.74312784434648
  N   0.94197681283201     -0.70100312686203     -1.10259577048655
  H   1.92832061622729     -0.62968257044537     -1.31780494176503
  H   0.67305216116471     -1.67551290547828     -1.07232000450060
