16

C	-0.303118	0.006108	-1.512676
C	0.0	0.0	0.0
F	-0.130469	-1.321461	-1.913103
H	1.092526	0.0	0.0
C	-1.708773	0.34155	-1.822465
N	-2.83074	0.550503	-2.102414
C	0.700145	0.843545	-2.281871
H	0.64769	0.566683	-3.336393
H	0.483986	1.903195	-2.165314
H	1.679546	0.615627	-1.847419
C	-0.568937	-1.142619	0.680468
N	-1.019793	-2.088894	1.21204
N	-0.417463	1.248268	0.674289
O	-0.491678	1.228871	1.899325
O	-0.604629	2.246098	-0.025797
F	2.490514	0.0	0.0
