16

C	-0.432058	0.011883	-1.471078
C	0.0	0.0	0.0
F	0.269115	0.979499	-2.167259
H	1.092228	0.0	0.0
C	-0.051997	-1.293012	-2.055164
N	0.169008	-2.319296	-2.580875
C	-1.91803	0.243878	-1.703913
H	-2.503367	-0.525599	-1.197372
H	-2.183803	1.228129	-1.322501
H	-2.127717	0.207096	-2.774928
C	-0.514984	-1.17443	0.669012
N	-0.933521	-2.156208	1.164471
N	-0.416984	1.207683	0.742789
O	-0.51843	1.109897	1.965935
O	-0.556712	2.257048	0.112063
F	2.419266	0.0	0.0
