16

C	-0.428874	0.038574	-1.469818
C	0.0	0.0	0.0
F	0.262041	1.030127	-2.141618
H	1.091791	0.0	0.0
C	-0.026856	-1.247025	-2.082489
N	0.236385	-2.252494	-2.629107
C	-1.915014	0.254155	-1.704173
H	-2.490197	-0.541915	-1.226722
H	-2.116009	0.246315	-2.777234
H	-2.201516	1.22091	-1.291496
C	-0.481883	-1.198292	0.64645
N	-0.833524	-2.212703	1.129768
N	-0.419212	1.187236	0.771936
O	-0.49302	1.063799	1.993475
O	-0.585114	2.247626	0.164466
F	2.417981	0.0	0.0
