16

C	-0.28101	-0.011588	-1.490707
C	0.0	0.0	0.0
F	-1.650172	-0.037007	-1.772143
H	1.092437	0.0	0.0
C	0.280409	1.173933	-2.166223
N	0.704675	2.013741	-2.867752
C	0.39415	-1.24241	-2.07797
H	1.431766	-1.222939	-1.737118
H	-0.107616	-2.138076	-1.709743
H	0.338573	-1.218261	-3.167161
C	-0.50543	-1.185426	0.656976
N	-0.885553	-2.174777	1.16472
N	-0.483374	1.202795	0.714352
O	-0.757658	2.202115	0.050389
O	-0.523983	1.13954	1.942079
F	2.461087	0.0	0.0
