16

C	-0.281484	-0.052753	-1.489422
C	0.0	0.0	0.0
F	-1.653664	-0.089068	-1.761299
H	1.095575	0.0	0.0
C	0.2754	1.113255	-2.2044
N	0.70849	1.941352	-2.915323
C	0.390515	-1.301265	-2.043103
H	-0.103931	-2.187781	-1.641438
H	0.325575	-1.311	-3.131742
H	1.431838	-1.268972	-1.713381
C	-0.501649	-1.174135	0.681561
N	-0.877116	-2.165131	1.190954
N	-0.490344	1.217504	0.682498
O	-0.68193	2.224607	0.0032
O	-0.620428	1.157678	1.903812
F	2.459632	0.0	0.0
