16

C	-0.297489	0.030788	-1.515075
C	0.0	0.0	0.0
F	-0.167443	-1.298624	-1.928004
H	1.093439	0.0	0.0
C	-1.68591	0.421342	-1.826287
N	-2.79658	0.711494	-2.075491
C	0.7348	0.839472	-2.279306
H	0.666233	0.576819	-3.338376
H	0.558642	1.904894	-2.15035
H	1.70686	0.574209	-1.850338
C	-0.57891	-1.149029	0.659698
N	-1.028165	-2.102424	1.180659
N	-0.407973	1.242229	0.691555
O	-0.546063	1.19483	1.911375
O	-0.511198	2.265886	0.010836
F	2.490535	0.0	0.0
