16

C	-0.314933	0.026811	-1.509294
C	0.0	0.0	0.0
F	-0.157364	-1.29712	-1.927993
H	1.095439	0.0	0.0
C	-1.718204	0.383149	-1.799062
N	-2.833514	0.64956	-2.052569
C	0.687605	0.864586	-2.27942
H	1.669021	0.622306	-1.860127
H	0.484138	1.925342	-2.1479
H	0.621061	0.601556	-3.337025
C	-0.570157	-1.146298	0.6719
N	-1.024775	-2.092124	1.20144
N	-0.400033	1.243477	0.694446
O	-0.59031	2.248681	0.007086
O	-0.448296	1.214482	1.92045
F	2.487794	0.0	0.0
