19

C	-0.321179	0.014475	-1.502387
C	0.0	0.0	0.0
Cl	-2.127501	0.026493	-1.764371
H	1.098973	0.0	0.0
C	0.254657	1.26546	-2.1467
H	0.116077	1.221534	-3.229239
H	-0.231404	2.169415	-1.778242
H	1.323866	1.307159	-1.916515
C	0.243518	-1.231356	-2.164877
H	-0.20289	-2.135636	-1.749686
H	1.322147	-1.251448	-1.984085
H	0.05109	-1.208736	-3.239742
C	-0.48119	-1.226444	0.628671
N	-0.864212	-2.204853	1.154593
C	-0.476319	1.219358	0.789412
H	-1.556951	1.356372	0.703259
H	0.035433	2.115638	0.437968
H	-0.219109	1.089228	1.842511
Cl	3.366214	0.0	0.0
