19

C	-0.450286	0.062331	-1.474975
C	0.0	0.0	0.0
Cl	-0.005594	-1.514644	-2.244907
H	1.096299	0.0	0.0
C	-1.952922	0.22532	-1.636756
H	-2.223272	0.172928	-2.694085
H	-2.490202	-0.562112	-1.102955
H	-2.270146	1.197451	-1.248889
C	0.333146	1.142082	-2.20796
H	0.130189	1.088019	-3.280365
H	0.035593	2.133242	-1.854243
H	1.402332	1.0064	-2.028488
C	-0.524813	-1.187845	0.66789
N	-1.006285	-2.089798	1.247079
C	-0.417366	1.235545	0.813826
H	-0.034542	2.144761	0.348781
H	-1.500673	1.313576	0.935065
H	0.037225	1.163353	1.803651
Cl	3.381429	0.0	0.0
