19

C	-0.449191	0.056303	-1.475523
C	0.0	0.0	0.0
Cl	0.017439	-1.515565	-2.244368
H	1.09629	0.0	0.0
C	-1.953423	0.200575	-1.643596
H	-2.217095	0.150659	-2.702629
H	-2.483316	-0.597379	-1.11648
H	-2.285861	1.166753	-1.25213
C	0.322994	1.145703	-2.20656
H	1.392753	1.028062	-2.01719
H	0.004679	2.133069	-1.860338
H	0.131407	1.083715	-3.280533
C	-0.529729	-1.183642	0.670753
N	-1.037206	-2.086999	1.224689
C	-0.416244	1.240424	0.807321
H	-0.020907	2.145701	0.344888
H	0.026299	1.167523	1.802283
H	-1.500106	1.327252	0.916578
Cl	3.382679	0.0	0.0
