17

C	0.0	0.0	0.0
C	-0.36059	0.093023	-1.512737
Cl	1.787997	0.0	0.0
H	0.441837	-0.496938	-1.963581
N	-0.440887	1.175704	0.862954
O	-1.112131	2.063785	0.359481
O	-0.094006	1.115923	2.037734
C	-0.522408	-1.266637	0.633138
H	-1.616854	-1.204457	0.650754
H	-0.211637	-2.123283	0.030938
H	-0.124308	-1.365965	1.642058
N	-0.213541	1.429901	-2.061433
H	-1.022507	1.979243	-1.801923
H	-0.192329	1.349077	-3.071025
C	-1.553957	-0.643101	-2.001776
N	-2.18201	-1.294429	-2.755999
Br	-3.879483	0.0	0.0
