16

C	-0.375107	-0.158219	-1.487788
C	0.0	0.0	0.0
Br	-0.354236	1.766779	-2.265855
H	1.108029	0.0	0.0
N	0.599163	-0.95658	-2.088774
H	0.511078	-0.999865	-3.094397
H	1.54926	-0.729503	-1.793571
N	-1.740296	-0.576258	-1.691858
H	-1.747506	-1.588573	-1.645974
H	-2.075179	-0.268055	-2.593755
N	-0.371143	-1.236522	0.801616
O	-0.60675	-2.283175	0.206105
O	-0.351071	-1.106134	2.020288
C	-0.582141	1.142263	0.678542
N	-1.053492	2.048344	1.258472
Cl	3.192096	0.0	0.0
