16

C	-0.206874	-0.049939	-1.524055
C	0.0	0.0	0.0
Br	-2.109816	0.051747	-2.04873
H	1.107761	0.0	0.0
N	0.414117	1.163576	-2.002946
H	1.401589	1.12808	-1.740737
H	0.338959	1.213975	-3.012572
N	0.284104	-1.325081	-1.976935
H	0.297215	-1.338058	-2.990362
H	1.237998	-1.433708	-1.630136
N	-0.506608	-1.232142	0.675678
O	-1.666464	-1.209065	1.09054
O	0.265506	-2.182028	0.749555
C	-0.55543	1.184806	0.621809
N	-0.98125	2.132399	1.170083
Cl	3.211554	0.0	0.0
