16

C	-0.376722	-0.065249	-1.486078
C	0.0	0.0	0.0
Br	-0.109649	2.021273	-2.15579
H	1.091741	0.0	0.0
N	0.52861	-0.860648	-2.156497
H	0.452427	-0.810497	-3.162455
H	1.486802	-0.710098	-1.838512
N	-1.723461	-0.386087	-1.707248
H	-2.333036	0.29726	-1.276012
H	-1.935368	-0.446274	-2.695126
N	-0.448532	-1.311326	0.621696
O	-1.481683	-1.300907	1.289656
O	0.246576	-2.289708	0.386382
C	-0.595731	1.092794	0.744358
N	-1.080192	1.948226	1.387218
Cl	3.199799	0.0	0.0
