16

C	-0.313637	0.102031	-1.494365
C	0.0	0.0	0.0
Br	-2.33459	0.513259	-1.742693
H	1.099002	0.0	0.0
N	0.36078	1.290633	-1.913934
H	0.19321	1.47744	-2.894813
H	1.359651	1.156077	-1.74199
N	0.04535	-1.061254	-2.196414
H	-0.49343	-1.865745	-1.911235
H	-0.009831	-0.914236	-3.194364
N	-0.445824	-1.244621	0.706624
O	-1.026653	-2.124761	0.072814
O	-0.170115	-1.301708	1.89864
C	-0.479011	1.146829	0.755034
N	-0.864009	2.053769	1.394195
Cl	3.169765	0.0	0.0
