16

C	-0.538329	0.008627	-1.439392
C	0.0	0.0	0.0
Br	0.296774	1.565933	-2.2943
H	1.089885	0.0	0.0
N	-0.032339	-1.162316	-2.126991
H	-0.6772	-1.930175	-1.992992
H	0.107747	-0.979748	-3.109814
N	-1.964641	0.255784	-1.450807
H	-2.282546	0.316564	-2.411464
H	-2.416385	-0.534723	-1.002668
N	-0.407957	-1.262825	0.73045
O	0.134048	-1.463309	1.806807
O	-1.26164	-1.99799	0.219028
C	-0.499916	1.112962	0.801237
N	-0.886549	2.002735	1.46329
Cl	3.211944	0.0	0.0
