15

C	0.0	0.0	0.0
C	-0.510503	-0.199959	-1.410917
F	1.366991	0.0	0.0
H	-1.602641	-0.141183	-1.408073
H	-0.141682	-1.140397	-1.804957
N	-0.507459	1.12593	0.62194
H	-1.525041	1.139994	0.497463
H	-0.287445	1.103933	1.610271
N	-0.277377	-1.32606	0.805283
O	-0.327939	-2.38584	0.191764
O	-0.326542	-1.198094	2.023611
N	0.044237	0.87785	-2.272992
O	-0.552057	1.95096	-2.305626
O	1.071203	0.614526	-2.903293
Br	-3.692245	0.0	0.0
