15

C	0.0	0.0	0.0
C	-0.590131	0.097076	-1.386523
F	1.385041	0.0	0.0
H	-0.127502	-0.618401	-2.063096
H	-1.675042	-0.075954	-1.292293
N	-0.542508	0.891482	0.901364
H	-0.419813	1.853785	0.634907
H	-0.328374	0.679715	1.861872
N	-0.292785	-1.417247	0.524162
O	-0.382758	-2.315569	-0.305023
O	-0.299639	-1.558755	1.740872
N	-0.420922	1.435695	-2.022739
O	0.111568	2.354572	-1.398127
O	-0.838123	1.524732	-3.172224
Br	-3.910198	0.0	0.0
