15

C	0.0	0.0	0.0
C	-0.163367	0.137397	-1.53814
F	1.357116	0.0	0.0
H	0.338869	1.073869	-1.777873
H	0.360148	-0.702184	-1.98642
N	-0.565401	0.932012	0.865167
H	-0.582693	1.839079	0.414205
H	-1.546219	0.666492	1.024171
N	-0.368064	-1.418378	0.463427
O	-0.849141	-1.55405	1.57777
O	-0.051025	-2.320098	-0.307007
N	-1.481554	0.21277	-2.215077
O	-1.929388	1.339779	-2.41655
O	-1.962985	-0.844278	-2.605945
Br	-3.759632	0.0	0.0
