15

C	0.0	0.0	0.0
C	-0.546668	0.115292	-1.400685
F	1.389686	0.0	0.0
H	-1.642696	0.222608	-1.326941
H	-0.26787	-0.751472	-1.989049
N	-0.517733	0.897811	0.89495
H	-0.807555	1.783732	0.521057
H	-0.09502	0.896752	1.80663
N	-0.260981	-1.434018	0.528338
O	-0.441126	-2.33379	-0.28361
O	-0.170179	-1.566004	1.741857
N	0.029604	1.299617	-2.09398
O	0.509013	1.116833	-3.212266
O	-0.033323	2.391803	-1.530329
Br	-3.81798	0.0	0.0
