16

C	-0.616078	0.041362	-1.386732
C	0.0	0.0	0.0
Br	0.18767	-1.36388	-2.491609
H	1.092716	0.0	0.0
H	-0.327318	-0.94577	0.446797
C	-2.120664	-0.12045	-1.406456
H	-2.550992	0.688661	-0.813007
H	-2.509387	-0.086647	-2.422556
H	-2.376471	-1.078467	-0.949896
N	-0.275579	1.358796	-2.076592
O	0.652114	2.018863	-1.624041
O	-0.953871	1.665842	-3.059355
N	-0.53427	1.143397	0.764539
H	0.230097	1.806382	0.8435
H	-0.746268	0.833944	1.70427
H	2.982925	0.0	0.0
