16

C	-0.46296	0.084361	-1.440725
C	0.0	0.0	0.0
Br	-2.362078	0.673144	-1.551646
H	1.09243	0.0	0.0
H	-0.298248	0.941215	0.481809
C	0.405269	1.03624	-2.230637
H	0.264362	2.046298	-1.841827
H	0.151571	1.025247	-3.292822
H	1.448702	0.745083	-2.065342
N	-0.384976	-1.309418	-2.051361
O	-1.387214	-2.006675	-2.128556
O	0.746829	-1.648792	-2.383746
N	-0.468991	-1.195492	0.676305
H	0.291478	-1.539976	1.248943
H	-1.268049	-1.008782	1.264349
H	2.890302	0.0	0.0
