16

C	-0.394976	0.039999	-1.453759
C	0.0	0.0	0.0
Br	-2.38228	0.107104	-1.677131
H	1.095576	0.0	0.0
H	-0.368311	-0.913194	0.470098
C	0.234504	1.193202	-2.180247
H	-0.087707	2.104662	-1.67851
H	-0.034519	1.214272	-3.234512
H	1.319832	1.08688	-2.058403
N	-0.011354	-1.280406	-2.111523
O	-0.183281	-2.305455	-1.458296
O	0.422658	-1.24196	-3.260865
N	-0.409292	1.231533	0.671445
H	-1.153457	1.051449	1.330906
H	0.398232	1.572933	1.180928
H	2.857045	0.0	0.0
