16

C	-0.405209	-0.083621	-1.452332
C	0.0	0.0	0.0
Br	-0.097161	1.612146	-2.365188
H	1.099951	0.0	0.0
H	-0.304732	-0.956291	0.451047
C	0.363745	-1.180507	-2.155586
H	0.141004	-1.203652	-3.221247
H	0.095538	-2.144531	-1.710576
H	1.427786	-0.998218	-1.969597
N	-1.904674	-0.354063	-1.614515
O	-2.323722	-0.610842	-2.741011
O	-2.602195	-0.332719	-0.600289
N	-0.498223	1.16291	0.70911
H	-1.297671	0.926015	1.278916
H	0.249116	1.502098	1.302115
H	2.935585	0.0	0.0
