16

C	-0.356152	-0.005428	-1.479124
C	0.0	0.0	0.0
Br	-0.028017	1.782944	-2.221492
H	1.094604	0.0	0.0
H	-0.400805	0.888859	0.48696
C	0.438786	-1.027699	-2.256002
H	1.494839	-0.856061	-2.006626
H	0.155191	-2.031487	-1.923959
H	0.263399	-0.952703	-3.327577
N	-1.858091	-0.217629	-1.688875
O	-2.617779	0.250493	-0.841993
O	-2.224203	-0.8439	-2.683192
N	-0.405031	-1.205682	0.706821
H	0.276163	-1.93603	0.555639
H	-1.329571	-1.528236	0.461292
H	2.929714	0.0	0.0
