16

C	-0.440346	0.040685	-1.451545
C	0.0	0.0	0.0
Br	0.048138	1.737562	-2.25804
H	1.094105	0.0	0.0
H	-0.332689	-0.968618	0.387601
C	0.207239	-1.086047	-2.231861
H	-0.106771	-2.041392	-1.80811
H	1.288639	-0.980384	-2.109894
H	-0.064148	-1.04751	-3.289389
N	-1.96325	-0.109276	-1.506027
O	-2.684765	0.803022	-1.885855
O	-2.370556	-1.201889	-1.105363
N	-0.569116	1.099147	0.778955
H	-0.933499	0.736699	1.649855
H	0.194302	1.724221	1.01752
H	2.945552	0.0	0.0
