16

C	-0.53891	-0.016366	-1.425823
C	0.0	0.0	0.0
Br	-0.187562	-1.772624	-2.191217
H	1.101312	0.0	0.0
H	-0.347031	-0.927909	0.463517
C	-2.017706	0.30153	-1.550893
H	-2.587652	-0.436051	-0.985646
H	-2.196212	1.28276	-1.112902
H	-2.329571	0.274659	-2.597815
N	0.176898	1.032626	-2.278449
O	0.326998	2.118058	-1.72371
O	0.44496	0.797005	-3.449343
N	-0.552258	1.131123	0.772395
H	0.058621	1.919426	0.583552
H	-0.399674	0.898219	1.747942
H	2.960071	0.0	0.0
