16

C	-0.643729	0.088743	-1.382338
C	0.0	0.0	0.0
Br	-0.059493	-1.433168	-2.458266
H	1.0975	0.0	0.0
H	-0.3348	-0.94993	0.432374
C	-2.156397	0.106769	-1.338276
H	-2.579854	0.235437	-2.335562
H	-2.502624	-0.843595	-0.926479
H	-2.470828	0.927381	-0.695712
N	-0.150626	1.357082	-2.076155
O	-0.925279	2.316513	-2.055039
O	0.975999	1.366905	-2.550747
N	-0.447612	1.150428	0.799898
H	-0.82744	0.830954	1.682517
H	0.390095	1.690134	1.015194
H	2.914882	0.0	0.0
