15
Coordinates from ORCA-job run
  C   0.97816539276767     -0.29436845042703     -0.11935482086992
  C   -0.47328621315187      0.16419440500599     -0.30554379384960
  Cl  1.74780668063594     -0.76950078440381     -1.63543730293062
  H   -0.46349156235579      0.90820686208737     -1.10755782235761
  H   1.06634845326012     -1.11826813452754      0.58842924043150
  N   1.75488328506285      0.83891167609509      0.49123025735794
  O   1.83136621645670      1.87629705896254     -0.15674492078127
  O   2.18601021840807      0.65512965263775      1.62718517702059
  N   -1.01738662795814      0.80185028701012      0.87913537736759
  H   -0.55656629880713      1.67807608360794      1.08726919155295
  H   -0.96212200890409      0.19825821148308      1.69067454691311
  C   -1.35083185448506     -1.01585739057128     -0.69495500762900
  H   -1.00601481306830     -1.50036992941629     -1.60850072500816
  H   -2.37077466549910     -0.66066092081895     -0.84199123782876
  H   -1.36410620236186     -1.76089862672502      0.10716184061125
