15
Coordinates from ORCA-job run
  C   1.00816082619781     -0.31802262064377     -0.11522944323214
  C   -0.42367958543852      0.17160740497486     -0.24993215550633
  Cl  1.74070355058311     -0.74126392104582     -1.67004029255521
  H   -0.43503757786147      0.95596061174390     -1.01639803738881
  H   1.07836777157863     -1.17325440083972      0.55421046954608
  N   1.86728937592846      0.75049805755318      0.50979889079695
  O   1.65153712181143      1.91052651071167      0.16908096934458
  O   2.72756691077817      0.37246089226474      1.29626258486076
  N   -0.80444192631447      0.64980119185088      1.07626810596185
  H   -0.57092485809320      1.62914625361606      1.17846750034419
  H   -1.80054876147577      0.54616832289844      1.21758906485482
  C   -1.33210693283927     -0.97516596887996     -0.66449021534722
  H   -2.35282555791750     -0.60816426269667     -0.79696822462564
  H   -1.34124024247424     -1.74238282216929      0.11450955796486
  H   -1.01382011446318     -1.42791524933850     -1.60312877501874
