15
Coordinates from ORCA-job run
  C   1.01527297984302      0.56796040679200      0.05604203760631
  C   -0.38234382244004      0.18389817234410     -0.42872122508342
  Cl  1.01841909187014      1.23676524579942      1.68156530783012
  H   -0.22990655232893     -0.16527154871188     -1.45532886301706
  H   1.45155546299137      1.30113463578930     -0.61890075432839
  N   1.89745952366621     -0.65791605147020     -0.03360961313796
  O   2.19326796660003     -1.27760047676222      0.97775169138206
  O   2.19462828041399     -0.95835089255112     -1.18757620484757
  N   -1.15621449718028      1.41646283062312     -0.50790632204505
  H   -1.96737759578943      1.26978780507703     -1.09560121314775
  H   -1.48868994830033      1.67645215625108      0.41377880513257
  C   -1.00773728283971     -0.93693888686929      0.39598809150367
  H   -1.99748533137739     -1.16591907192422     -0.00551215681569
  H   -1.12352697064884     -0.63596167099228      1.43937392142301
  H   -0.41532130447981     -1.85450265339485      0.36965649754513
