15
Coordinates from ORCA-job run
  C   0.91800921324036      0.57458503081830      0.10781653191332
  C   -0.45384404806650      0.12713072726981     -0.43985825287774
  Cl  0.84421190109243      1.16128103814875      1.76273451775858
  H   -0.25262397502840     -0.17347134813634     -1.47366350089430
  H   1.34200924421465      1.36267845214324     -0.51395674680748
  N   1.88024110331611     -0.58398386100241     -0.02318255036120
  O   2.18322397204616     -1.24508632221877      0.95920936777562
  O   2.22465311477320     -0.79618710702826     -1.18418589596655
  N   -1.43093526307138      1.19655187609606     -0.47828368723053
  H   -1.10316710954693      1.97879426143280     -1.03217960325522
  H   -1.62984825678036      1.53036947079226      0.45714059244432
  C   -1.01529595406644     -1.06139095945679      0.32377247120678
  H   -1.96948010734614     -1.33738342755404     -0.12528027209289
  H   -0.34924092624680     -1.92470503154437      0.28858877129230
  H   -1.18791290852996     -0.80918279976025      1.37232825709500
