15
Coordinates from ORCA-job run
  C   0.98740819278602     -0.38996488248335      0.06061143115660
  C   -0.38435298365373      0.13802943108626     -0.32341274373513
  Cl  1.82619048766885     -1.17323702985549     -1.28689671568124
  H   -0.26533469219861      0.74126460660892     -1.23159288570779
  H   0.93012207975511     -1.08585817371879      0.89546888709787
  N   1.86437520197875      0.73775830547149      0.54059603503872
  O   2.61942156520374      0.48665043681086      1.47246917612369
  O   1.76802965491880      1.81053136072174     -0.04952706600669
  N   -0.84938669211270      0.90699331202081      0.82742947608915
  H   -1.85922236385120      0.88975760461710      0.88049086501318
  H   -0.55309213559567      1.87150596831559      0.75041490730877
  C   -1.33498113431841     -1.01906120517863     -0.58791089883112
  H   -1.47539922407049     -1.60108579480960      0.32702618927985
  H   -2.30782510604087     -0.63305910892931     -0.90202301591904
  H   -0.96595285046960     -1.67822483067760     -1.37314364122681
