15
Coordinates from ORCA-job run
  C   0.97939288277034      0.49381998706545      0.32692637684329
  C   -0.38317201168240      0.22562364266507     -0.32874872144859
  Cl  0.92693697620506      0.55788682309201      2.07561003196821
  H   -0.15232948340485      0.05116935963655     -1.38997731555384
  H   1.39903365974933      1.42944120808728     -0.03989534316773
  N   1.93972768104922     -0.57212470609019     -0.15610416564670
  O   2.37199513429094     -0.37050852567393     -1.28918138291784
  O   2.16243210983878     -1.55181722091139      0.54167904984864
  N   -1.20525621039986      1.40771791352072     -0.11818275737876
  H   -2.18666413652908      1.16664087788149     -0.15686565569096
  H   -1.02643313661394      2.10439075829869     -0.83055440511145
  C   -1.07006424241924     -1.00560073120713      0.23719994939007
  H   -1.39022431440673     -0.81992111463890      1.26324552307395
  H   -0.41463002687099     -1.87716046443932      0.23196497112556
  H   -1.95074488157658     -1.23955780728640     -0.36611615533384
