15
Coordinates from ORCA-job run
  C   1.01436557413912      0.15287117542085     -0.54380931591090
  C   -0.52856964877684      0.19432326600554     -0.54054445498537
  Cl  1.72292246096524      1.68105457994614     -1.06254660845972
  H   -0.79532908802523      0.30358928359834     -1.59817323918593
  H   1.39147353818985     -0.63439608409321     -1.19379280775236
  N   1.50428654825404     -0.20410773041884      0.82953410737268
  O   1.91991085942954     -1.35261993689809      0.96879716859134
  O   1.37362839961163      0.63169078061692      1.71848162552799
  N   -1.14532561561494      1.28752713896168      0.17546525653628
  H   -0.86103888436075      2.17864461585697     -0.21146134066698
  H   -0.86716295327401      1.27441512975702      1.14960191462316
  C   -1.07161799917306     -1.13280919325135     -0.02485567212709
  H   -0.88826223891785     -1.24002543834088      1.04779749519382
  H   -2.14965686571625     -1.15390351329439     -0.18306418664902
  H   -0.61762408673049     -1.98725407386670     -0.53142994210790
