15
Coordinates from ORCA-job run
  C   1.01980289770578     -0.30258802161399     -0.01892968883205
  C   -0.40293955303936      0.15558821111574     -0.29104781670144
  Cl  1.89044285852669     -0.75751178108320     -1.49109066450039
  H   -0.36078420307886      0.91582020187219     -1.08039345300750
  H   1.04659311609785     -1.13547939068765      0.68112562426028
  N   1.80320821082232      0.80102578374243      0.64394890286965
  O   1.60077802423218      1.94539599849473      0.24682984216531
  O   2.59519934855514      0.46448984865530      1.51631532608013
  N   -0.90424070618021      0.66689937128296      0.98145821325403
  H   -0.69775607482287      1.65342544653651      1.07193395290677
  H   -1.90675448968665      0.54734307600072      1.04120024069448
  C   -1.25378850903900     -1.02021087903637     -0.74464011124440
  H   -2.26462509364982     -0.67686179981054     -0.97775613832080
  H   -0.84738229974388     -1.49731835957698     -1.63601104409737
  H   -1.31875352669931     -1.76201770589187      0.05605681447331
