12

C	-0.588338	0.023132	-1.399479
C	0.0	0.0	0.0
F	-0.161495	-1.068362	-2.139447
H	1.097956	0.0	0.0
H	-1.678745	-0.022744	-1.331201
H	-0.348807	-0.927123	0.463139
C	-0.239101	1.257247	-2.126054
N	0.026788	2.234133	-2.717895
N	-0.578218	1.15207	0.715349
H	0.054569	1.936294	0.58289
H	-0.55051	0.953024	1.708639
Cl	3.508356	0.0	0.0
