12

C	-0.513617	-0.039237	-1.435031
C	0.0	0.0	0.0
F	-0.104676	-1.190963	-2.085445
H	1.092506	0.0	0.0
H	-1.612523	-0.049277	-1.440208
H	-0.350542	-0.913286	0.490975
C	-0.093113	1.141564	-2.212173
N	0.171133	2.105937	-2.826511
N	-0.457822	1.179734	0.721636
H	0.1626	1.953733	0.527202
H	-1.402258	1.447863	0.47204
Cl	3.485559	0.0	0.0
