12

C	-0.502443	-0.02431	-1.436245
C	0.0	0.0	0.0
F	-0.027248	-1.145324	-2.100706
H	1.093239	0.0	0.0
H	-1.598433	-0.102157	-1.450738
H	-0.351443	0.92636	0.467486
C	-0.137619	1.181338	-2.200362
N	0.124975	2.149853	-2.808049
N	-0.445327	-1.159108	0.76648
H	-1.382188	-1.439167	0.500624
H	0.178624	-1.928338	0.565565
Cl	3.481573	0.0	0.0
