12

C	-0.58162	0.024978	-1.401078
C	0.0	0.0	0.0
F	-0.156827	-1.063732	-2.14399
H	1.097931	0.0	0.0
H	-1.672803	-0.023037	-1.331505
H	-0.3465	-0.928402	0.463422
C	-0.24053	1.262837	-2.126751
N	0.022418	2.23917	-2.721699
N	-0.574899	1.152008	0.71635
H	-0.558674	0.948456	1.707979
H	0.063301	1.93063	0.590798
Cl	3.515544	0.0	0.0
