12

C	-0.514667	0.004033	-1.434154
C	0.0	0.0	0.0
F	-0.113268	-1.131851	-2.118196
H	1.092522	0.0	0.0
H	-1.613407	0.000388	-1.439017
H	-0.350915	-0.925848	0.466012
C	-0.087292	1.201694	-2.179913
N	0.178864	2.173373	-2.781422
N	-0.458458	1.159217	0.75566
H	0.152482	1.943534	0.570366
H	-1.408259	1.422668	0.521683
Cl	3.484736	0.0	0.0
