17
Coordinates from ORCA-job run
  C   0.68174254554890      0.34135765209843      0.07363967213319
  C   -0.57024454711645     -0.16195226264869     -0.01583093233093
  N   0.90852795910915      1.73605806559689      0.10944824745659
  H   1.84155271338586      1.98141983454591     -0.18966563456465
  H   0.22814478717388      2.26792297487772     -0.41374252382527
  C   1.94578894609595     -0.44864513616397      0.25549616620745
  H   1.76362134064742     -1.50340854971485      0.44586084175138
  H   2.58992384189048     -0.36677927235211     -0.62770885069975
  H   2.50584233744198     -0.04745255046105      1.10626712282378
  C   -1.74359116925386      0.78224293584701     -0.11737111747740
  H   -1.65676973269732      1.61013388994347      0.59363098552806
  H   -1.84541185223334      1.21595614738751     -1.12143045199728
  H   -2.67942466643471      0.26182023120357      0.09875367074541
  C   -0.90971565372797     -1.62605503138948     -0.04000636409316
  H   -1.50139117837461     -1.86470740845251     -0.93137087215373
  H   -0.03532533995683     -2.27611948960910     -0.04996901167564
  H   -1.52327033149853     -1.90179203070875      0.82599905217195
