17
Coordinates from ORCA-job run
  C   0.73696460258131      0.15898533107539     -0.13253750836188
  C   -0.55952240772401     -0.19669213244285      0.01269178534213
  N   1.42576343954869     -0.06650229712348     -1.34618061624178
  H   0.83291851930016     -0.01045644161580     -2.16161464658583
  H   2.22094733028829      0.54649172812812     -1.45636233999327
  C   1.63370186696495      0.70695823156618      0.94005972934981
  H   1.17626082050908      0.69331898830413      1.92614723658302
  H   2.55045165665967      0.11049443745416      0.98672920649533
  H   1.92695988286338      1.73903060362744      0.71484805629778
  C   -1.29502947921057     -0.81066580151632     -1.15383205606769
  H   -1.58697824127086     -0.06213557332823     -1.90290345618374
  H   -0.68711476829882     -1.56665362952817     -1.66099997540853
  H   -2.21315678914637     -1.29897273780668     -0.81939424210160
  C   -1.36585512336966     -0.01809730252132      1.26866404506876
  H   -0.83258580018905      0.51196828814574      2.05723552119050
  H   -2.27928385955628      0.54945050063856      1.05668149164994
  H   -1.68544164994990     -0.98652219305687      1.67176776896705
