17
Coordinates from ORCA-job run
  C   0.69098941089856      0.32810122879471     -0.03455926450934
  C   -0.57429612997967     -0.14875818593190     -0.00814224649445
  N   0.95015669505180      1.71727027275905      0.00116497211788
  H   0.26668405396200      2.24082978047261      0.52866144040926
  H   1.87902829362349      1.92618227823955      0.33839123776218
  C   1.94213539563840     -0.48269714738977     -0.21502501384030
  H   2.56253269775096     -0.45271239361333      0.68829073681437
  H   2.53448990456997     -0.05855221359519     -1.03207387615540
  H   1.74287841201309     -1.52423958478984     -0.45457541118781
  C   -1.72930526553811      0.81735415628657      0.09606668059296
  H   -2.66666173600408      0.33239239476323     -0.18595677277782
  H   -1.59395093228562      1.67936843335617     -0.56490773912606
  H   -1.86320982004422      1.19949066654913      1.11719752937653
  C   -0.94619961602439     -1.60429136288632     -0.06135220333557
  H   -1.51851990904454     -1.83199733187474     -0.96864218797775
  H   -1.58927414036832     -1.86344639211185      0.78754292304017
  H   -0.08747731421931     -2.27429459902809     -0.03108080470887
