17
Coordinates from ORCA-job run
  C   0.69347989936930      0.32419868090320      0.00034583569746
  C   -0.57363792494227     -0.14615948670557     -0.03868801531654
  N   0.95704187577771      1.71326324689793      0.03631970701837
  H   1.86655265521716      1.91942877340610      0.42456176530527
  H   0.24891020434751      2.24198455549164      0.52490694321544
  C   1.94876509152754     -0.49323617878131     -0.10202620810557
  H   2.52158341432854     -0.45000293322883      0.83165003496951
  H   2.58452697183781     -0.08400173508940     -0.89369043178907
  H   1.75883084160065     -1.53817139747944     -0.33408629306900
  C   -1.72756611504763      0.82647795255590     -0.00872754863188
  H   -2.64965366560661      0.34377999060335     -0.34029174739801
  H   -1.54891523475686      1.68277003474792     -0.66664092670592
  H   -1.91789385593282      1.21688130840396      1.00025825936830
  C   -0.95035242301235     -1.60010822774774     -0.09887711331089
  H   -1.48056439408160     -1.83026633458824     -1.03071961205204
  H   -0.09781716690715     -2.27447794278222     -0.02453040122573
  H   -1.63429017371892     -1.85036030660725      0.72023575203032
