17
Coordinates from ORCA-job run
  C   0.69304564955160      0.32351742808231     -0.03351645102220
  C   -0.57466311888677     -0.14631692905054     -0.00961940550140
  N   0.95890038885016      1.71157449099918      0.00170913337273
  H   0.27528677014847      2.23894161847649      0.52529341076895
  H   1.88680713248780      1.91600516989922      0.34450827346901
  C   1.94088974450061     -0.49271183890509     -0.21080166618159
  H   1.73806222019747     -1.53534326064415     -0.44242174659827
  H   2.53358697429020     -0.07522942040661     -1.03104166977365
  H   2.56251954399933     -0.45899643026400      0.69154849004620
  C   -1.72418443825174      0.82640319470094      0.09484825640270
  H   -1.84993987310686      1.21678068586875      1.11388230194077
  H   -2.66557527492063      0.34405285603297     -0.17788657229224
  H   -1.58882576501125      1.68324767534676     -0.57292960191706
  C   -0.95542949827374     -1.59937216176463     -0.06600358148354
  H   -0.10066598595456     -2.27488756517541     -0.04903876825210
  H   -1.53854412795908     -1.81801531680148     -0.96858230600885
  H   -1.59127034166102     -1.85965019639470      0.78805190303056
