17
Coordinates from ORCA-job run
  C   0.68940998387252      0.33146103982524     -0.00364048096085
  C   -0.56844070493345     -0.16232070767578     -0.05442474688855
  N   0.93915231271381      1.71292977310377     -0.17134302818785
  H   0.19291034215233      2.30057536143128      0.17128004876962
  H   1.81670586939190      1.99691510173028      0.24039607056860
  C   1.95531379114540     -0.46811577038370      0.10941447901122
  H   2.63903760642330     -0.17927155129462     -0.69531778100917
  H   1.78944480067870     -1.54005756461343      0.03703477417223
  H   2.46417444099267     -0.26455352108897      1.05877000509998
  C   -0.93045436347607     -1.61390834368670      0.09078853935755
  H   -0.07846003430402     -2.25468260792847      0.31595136290462
  H   -1.65851190634828     -1.74610462996235      0.89943646063795
  H   -1.40407887879162     -1.99334078757330     -0.82246142523655
  C   -1.72744778135731      0.78421425859419     -0.25373107859485
  H   -1.51623146607608      1.51783035516752     -1.03832705248761
  H   -2.62754373060390      0.23949878919446     -0.54733736714354
  H   -1.97498028147990      1.33893080516061      0.66151121998718
