17
Coordinates from ORCA-job run
  C   0.69046261902987      0.30930768906670     -0.11460779779904
  C   -0.57278414635897     -0.15346879478034      0.02145517860230
  N   0.94116624717014      1.64376396702746     -0.50899471826878
  H   0.23734831576515      2.29480736401375     -0.19213330216842
  H   1.85641919592170      1.96192626347435     -0.22362821288265
  C   1.95110527616273     -0.49778715005958      0.00309972758157
  H   2.54770205558582     -0.16742660798234      0.86145960337440
  H   2.56163910120026     -0.35161839060352     -0.89368248708509
  H   1.76574408848224     -1.56355829236818      0.11061911423772
  C   -0.93843818913309     -1.55758296539734      0.41399467016087
  H   -1.49700982407286     -2.05591653919089     -0.38734508618575
  H   -0.07795578641376     -2.18015586768166      0.65709230282328
  H   -1.59286569497360     -1.54947875419476      1.29320859979493
  C   -1.73342107636901      0.78304409224926     -0.21281065725231
  H   -1.58596954930541      1.38805592726571     -1.11314617863021
  H   -2.66290821020116      0.22396422564340     -0.34171170398612
  H   -1.89023442249004      1.47212383351797      0.62813094768328
