15

C	-0.433072	0.00143	-1.466439
C	0.0	0.0	0.0
Br	0.473293	1.495145	-2.447091
H	1.096068	0.0	0.0
C	-0.054143	-1.235076	-2.151393
N	0.214542	-2.22178	-2.732333
C	-1.866821	0.23192	-1.627549
N	-3.024435	0.427854	-1.711013
C	-0.473936	-1.222142	0.620407
N	-0.865138	-2.207874	1.132597
C	-0.450192	1.231073	0.777063
H	-0.018986	2.124022	0.321207
H	-0.046611	1.153848	1.789381
H	-1.538011	1.332311	0.83206
H	2.559874	0.0	0.0
