15

C	-0.444489	0.016133	-1.459506
C	0.0	0.0	0.0
Br	0.532111	1.4639	-2.458722
H	1.096019	0.0	0.0
C	-0.137333	-1.237256	-2.147282
N	0.076306	-2.23788	-2.727357
C	-1.863558	0.325171	-1.614182
N	-3.009717	0.581763	-1.694797
C	-0.47231	-1.219499	0.625062
N	-0.85858	-2.202156	1.147006
C	-0.433005	1.234003	0.783516
H	0.005357	1.166988	1.782084
H	-1.518923	1.328762	0.873112
H	-0.02355	2.126551	0.306397
H	2.544718	0.0	0.0
