15

C	-0.411546	0.030758	-1.472295
C	0.0	0.0	0.0
Br	0.288145	-1.574762	-2.40927
H	1.095942	0.0	0.0
C	-1.863505	0.020199	-1.646624
N	-3.035663	0.031162	-1.754763
C	0.136242	1.20747	-2.154375
N	0.499753	2.156416	-2.746855
C	-0.52819	-1.181808	0.652035
N	-0.93374	-2.122338	1.232944
C	-0.402139	1.279983	0.731975
H	0.130562	2.124132	0.289169
H	-1.479205	1.469209	0.721014
H	-0.0679	1.192907	1.767366
H	2.575152	0.0	0.0
