15

C	-0.41906	0.046828	-1.470606
C	0.0	0.0	0.0
Br	0.278624	-1.540597	-2.430321
H	1.096058	0.0	0.0
C	-1.873065	0.037722	-1.635558
N	-3.046726	0.046522	-1.723251
C	0.122001	1.235611	-2.139327
N	0.518905	2.171453	-2.730562
C	-0.531395	-1.187687	0.637857
N	-0.969042	-2.133103	1.18599
C	-0.400897	1.269469	0.748846
H	0.10244	2.126982	0.295713
H	-0.0316	1.183609	1.773918
H	-1.481979	1.438771	0.770523
H	2.577095	0.0	0.0
