15

C	-0.432786	0.000514	-1.466517
C	0.0	0.0	0.0
Br	0.475062	1.491495	-2.44894
H	1.096039	0.0	0.0
C	-0.057405	-1.237046	-2.151388
N	0.203952	-2.225719	-2.732219
C	-1.866678	0.231646	-1.627934
N	-3.023872	0.429187	-1.712822
C	-0.474472	-1.221669	0.620992
N	-0.866838	-2.20453	1.137743
C	-0.452447	1.231535	0.7751
H	-0.051448	1.155757	1.788492
H	-1.540569	1.331653	0.827222
H	-0.021376	2.124573	0.319218
H	2.560815	0.0	0.0
