15

C	-0.395883	0.035706	-1.439
C	0.0	0.0	0.0
Br	-2.457324	0.147169	-1.756547
H	1.098261	0.0	0.0
C	0.124586	1.222263	-2.113786
N	0.544767	2.178047	-2.657145
C	0.010604	-1.165807	-2.158896
N	0.347493	-2.136514	-2.731033
C	-0.468807	-1.212299	0.634661
N	-0.847747	-2.180631	1.185465
C	-0.369548	1.248218	0.787634
H	0.059843	1.160741	1.788552
H	-1.451479	1.388114	0.863433
H	0.084617	2.122141	0.313248
H	2.463763	0.0	0.0
