15

C	-0.440331	0.002637	-1.462911
C	0.0	0.0	0.0
Br	0.511877	1.458615	-2.465607
H	1.096002	0.0	0.0
C	-0.110831	-1.252339	-2.139358
N	0.119688	-2.251331	-2.715658
C	-1.865252	0.284563	-1.619471
N	-3.014206	0.528197	-1.702095
C	-0.476519	-1.215386	0.630246
N	-0.866753	-2.19942	1.1466
C	-0.436696	1.240438	0.771258
H	-0.011904	2.127124	0.297537
H	-1.523028	1.344297	0.843967
H	-0.014835	1.174259	1.777059
H	2.5496	0.0	0.0
