15

C	-0.420049	0.033433	-1.470545
C	0.0	0.0	0.0
Br	0.278004	-1.561898	-2.416414
H	1.095926	0.0	0.0
C	-1.87422	0.021222	-1.63473
N	-3.047736	0.0281	-1.722478
C	0.118111	1.216874	-2.151531
N	0.51073	2.147909	-2.752675
C	-0.53133	-1.181313	0.649249
N	-0.968251	-2.121604	1.206271
C	-0.401593	1.276198	0.737369
H	-1.483388	1.443415	0.757883
H	-0.031657	1.201039	1.763361
H	0.098666	2.130947	0.276093
H	2.577854	0.0	0.0
