17

C	0.0	0.0	0.0
C	-0.482425	0.045497	-1.478984
Cl	1.798323	0.0	0.0
H	-1.5743	0.074938	-1.377242
N	-0.466037	1.192236	0.655703
H	-0.221367	1.127548	1.639916
H	-1.494423	1.078558	0.569688
N	-0.493607	-1.269512	0.493014
H	-0.210842	-1.357061	1.464531
H	-1.519475	-1.081956	0.466497
N	-0.045721	-1.037533	-2.319193
H	-0.377214	-1.880442	-1.862512
H	0.969076	-1.065593	-2.296066
N	-0.072174	1.32523	-2.133222
O	1.029412	1.355375	-2.684873
O	-0.861075	2.265677	-2.101603
F	-2.820746	0.0	0.0
