17

C	0.0	0.0	0.0
C	-0.245809	-0.234539	-1.534753
Cl	1.910208	0.0	0.0
H	0.493505	-0.965222	-1.874265
N	-0.5022	1.274212	0.378126
H	-1.536415	1.0698	0.316481
H	-0.261348	1.400302	1.355579
N	-0.416725	-1.032611	0.882554
H	-0.17783	-1.937936	0.49537
H	-1.446535	-0.921433	0.831388
N	-0.15796	0.982275	-2.260844
H	-0.762828	0.930588	-3.069933
H	-0.470273	1.728239	-1.648406
N	-1.533536	-1.026226	-1.872946
O	-2.30703	-0.548796	-2.692454
O	-1.577104	-2.180488	-1.459576
F	-2.706177	0.0	0.0
