17

C	0.0	0.0	0.0
C	-0.333411	0.203237	-1.539754
Cl	1.844044	0.0	0.0
H	0.548128	0.572663	-2.070564
N	-0.586931	0.978436	0.841295
H	-1.606923	0.736926	0.744289
H	-0.471457	1.886027	0.404711
N	-0.450837	-1.277559	0.443112
H	-0.659999	-1.22428	1.429081
H	0.216204	-2.004896	0.238485
N	-1.446732	1.032425	-1.730164
H	-2.247958	0.643884	-1.145881
H	-1.684572	1.064433	-2.712877
N	-0.480822	-1.204184	-2.193458
O	-1.494352	-1.436257	-2.842853
O	0.47417	-1.976054	-2.092864
F	-2.99497	0.0	0.0
