17

C	0.0	0.0	0.0
C	-0.561356	-0.047042	-1.42088
Cl	1.839205	0.0	0.0
H	-1.660862	-0.07261	-1.196974
N	-0.536901	1.128356	0.667904
H	-1.571744	0.909013	0.56706
H	-0.293954	1.059259	1.651386
N	-0.359469	-1.265775	0.595922
H	0.113395	-1.353476	1.486372
H	-0.063049	-2.0126	-0.020746
N	-0.074556	-1.176621	-2.147833
H	0.861105	-0.976327	-2.485658
H	-0.67765	-1.350728	-2.94171
N	-0.2514	1.253994	-2.134275
O	-1.037144	2.186987	-2.012697
O	0.768846	1.288441	-2.833634
F	-2.873446	0.0	0.0
