16

C	-0.456695	0.068603	-1.429996
C	0.0	0.0	0.0
Cl	0.365427	-1.112444	-2.453151
H	1.092744	0.0	0.0
H	-0.291981	1.061099	-1.837306
N	-1.953512	-0.162595	-1.497442
O	-2.38575	-1.304222	-1.618638
O	-2.639751	0.84586	-1.335814
C	-0.447304	-1.218448	0.768775
H	0.145203	-1.287148	1.680923
H	-0.254453	-2.107717	0.166494
H	-1.506496	-1.187006	1.035325
N	-0.326803	1.244257	0.680198
O	-0.575667	1.191583	1.895058
O	-0.17627	2.305927	0.05632
H	2.471067	0.0	0.0
