16

C	-0.521671	-0.070572	-1.406223
C	0.0	0.0	0.0
Cl	-2.3037	0.041089	-1.51511
H	1.092722	0.0	0.0
H	-0.242839	-1.039321	-1.816626
N	0.111776	0.906151	-2.384606
O	1.239907	0.565767	-2.728329
O	-0.501855	1.890575	-2.768694
C	-0.386345	-1.221029	0.805078
H	-0.046159	-2.111922	0.269112
H	-1.460833	-1.287148	0.990632
H	0.14159	-1.186923	1.75829
N	-0.378298	1.235107	0.659324
O	-0.678038	1.202198	1.863956
O	-0.253517	2.279359	0.002767
H	2.502826	0.0	0.0
