16

C	-0.451704	0.034416	-1.432813
C	0.0	0.0	0.0
Cl	0.372546	-1.173483	-2.422605
H	1.092699	0.0	0.0
H	-0.282819	1.015978	-1.864089
N	-1.948014	-0.196289	-1.502542
O	-2.634014	0.819428	-1.37621
O	-2.380804	-1.340834	-1.59422
C	-0.449806	-1.199295	0.796037
H	-1.510667	-1.163961	1.052725
H	0.134897	-1.242481	1.714491
H	-0.250363	-2.103728	0.219114
N	-0.329014	1.261049	0.649058
O	-0.579726	1.238159	1.864575
O	-0.179214	2.307228	-0.001971
H	2.470424	0.0	0.0
