16

C	-0.502165	-0.076413	-1.413646
C	0.0	0.0	0.0
Cl	-2.278536	0.060091	-1.554441
H	1.092686	0.0	0.0
H	-0.229074	-1.051849	-1.811637
N	0.158517	0.882237	-2.397466
O	1.276131	0.513847	-2.74459
O	-0.428506	1.882074	-2.780139
C	-0.405799	-1.212813	0.806007
H	0.088599	-1.164509	1.775903
H	-0.04543	-2.108597	0.292715
H	-1.484877	-1.281404	0.956839
N	-0.375238	1.243282	0.648691
O	-0.73118	1.217025	1.837864
O	-0.19348	2.282629	-0.00135
H	2.506007	0.0	0.0
