16

C	-0.454799	0.0462	-1.431612
C	0.0	0.0	0.0
Cl	0.363934	-1.158051	-2.431303
H	1.092704	0.0	0.0
H	-0.283204	1.030087	-1.856274
N	-1.951983	-0.177724	-1.501919
O	-2.635058	0.841623	-1.388268
O	-2.388091	-1.321588	-1.580794
C	-0.443851	-1.208202	0.786899
H	0.147681	-1.2594	1.701296
H	-0.246463	-2.106981	0.199401
H	-1.503349	-1.176397	1.051432
N	-0.328955	1.254073	0.662653
O	-0.56869	1.219663	1.879509
O	-0.190719	2.307036	0.020111
H	2.468769	0.0	0.0
