16

C	-0.432518	0.012156	-1.4405
C	0.0	0.0	0.0
Cl	0.41149	-1.198121	-2.406526
H	1.09272	0.0	0.0
H	-0.261845	0.991505	-1.87744
N	-1.929433	-0.224129	-1.519994
O	-2.36339	-1.350063	-1.739177
O	-2.610024	0.769217	-1.266896
C	-0.476545	-1.183046	0.803806
H	-0.24988	-2.099373	0.254491
H	-1.54811	-1.143092	1.017236
H	0.067721	-1.205632	1.748883
N	-0.329945	1.274543	0.615894
O	-0.678865	1.278447	1.80889
O	-0.089184	2.304682	-0.034962
H	2.469341	0.0	0.0
