15
Coordinates from ORCA-job run
  C   -0.49937789769907     -0.47824300391982     -0.05594940264642
  C   0.78611936005994      0.36565450914370     -0.15168396440457
  Cl  -0.22087482470376     -1.91773063680316      0.89336320079672
  H   0.52127826409115      1.33760225944971     -0.57924606658204
  N   -1.57296489789431      0.42514264009856      0.65338307092474
  O   -1.81872375414681      1.44065362843854      0.01003972423218
  O   -2.09919689704200      0.05937662456049      1.68728036218174
  N   -0.92231270939945     -0.81439999650634     -1.36294512435380
  H   -1.64470488750089     -1.52365063468260     -1.35148336527077
  H   -1.24163696124929      0.00963372402806     -1.85993807185679
  C   1.78866481223977     -0.30688980284436     -0.95998218684223
  N   2.60613109927935     -0.81490657545088     -1.63267637962916
  N   1.32265486829103      0.66332325877413      1.23543146893201
  O   2.40969738889327      0.19910915407373      1.54642453262805
  O   0.58424703678108      1.35532485164027      1.92698220189032
