15
Coordinates from ORCA-job run
  C   -0.56334977475830     -0.42660528044678     -0.31600641264546
  C   0.91355981915251     -0.01476060900082     -0.31333685035637
  Cl  -0.62943181050734     -2.08174216738194     -1.04991303992111
  H   1.23129961533946      0.05254581141027     -1.35708788141670
  N   -1.11618993583017     -0.60781581500713      1.10878092830089
  O   -0.40572699703157     -1.21580197449187      1.88980957847052
  O   -2.23952575190409     -0.16902682056264      1.31347448806846
  N   -1.31543146991541      0.56276517908329     -0.95519246406060
  H   -2.30478989907129      0.47124053555401     -0.76355994727851
  H   -1.13303162000064      0.60480185316912     -1.94915640366956
  C   1.83865395268635     -0.87227483516698      0.41289124537532
  N   2.67407153350078     -1.51390524372846      0.93221973294562
  N   1.00051257305354      1.40024256336739      0.22314427832965
  O   1.43301599688402      2.24465313318897     -0.54992791321093
  O   0.61736376840215      1.56468367001357      1.37286066106877
