15
Coordinates from ORCA-job run
  C   -0.54309925586194     -0.33544966795426     -0.38031618871763
  C   0.91795306650199     -0.15994548337731      0.06813306296374
  Cl  -0.63694410256080     -1.30559894036383     -1.85595509612230
  H   1.41693493661327     -1.12763853468926      0.07165153812717
  N   -1.19706118938351     -1.25505273169238      0.72204093918744
  O   -2.36575621074904     -1.01285842093784      0.98443165498798
  O   -0.49570907791741     -2.13899495503018      1.19611215277712
  N   -1.19363523661764      0.88259570914144     -0.55313180460368
  H   -1.09041108072086      1.50349262588897      0.24052648615445
  H   -2.16881319116719      0.76231449445833     -0.79323927074664
  C   0.96409997073446      0.46540046427421      1.38295711179809
  N   0.95347893393031      0.96553819605901      2.44602424417627
  N   1.64311766700026      0.71429438441470     -0.93370292113248
  O   1.56799758857341      1.92517380204863     -0.77204399932256
  O   2.23084718162467      0.11472905775977     -1.82548790952697
