16

C	-0.144296	-0.029936	-1.549492
C	0.0	0.0	0.0
Br	0.148431	1.954778	-2.165731
H	1.097192	0.0	0.0
N	0.879477	-0.863749	-1.997704
H	0.982812	-0.869471	-3.001924
H	1.759395	-0.647695	-1.492352
C	-1.512305	-0.378049	-2.093547
H	-1.507503	-0.336321	-3.184975
H	-1.763342	-1.39316	-1.775164
H	-2.265963	0.318373	-1.724982
C	-0.463912	-1.268161	0.547894
N	-0.846368	-2.287297	0.993373
C	-0.631529	1.106799	0.686487
N	-1.179749	1.96361	1.276478
F	2.551103	0.0	0.0
