16

C	-0.027971	-0.143439	-1.547815
C	0.0	0.0	0.0
Br	-1.871657	0.032953	-2.261312
H	1.106494	0.0	0.0
N	0.798865	0.878194	-2.151357
H	0.419326	1.792386	-1.921382
H	1.693692	0.785638	-1.648241
C	0.530947	-1.503314	-1.918415
H	1.521828	-1.547054	-1.455062
H	0.618239	-1.568292	-3.003154
H	-0.092562	-2.316244	-1.545056
C	-0.574236	-1.104637	0.735918
N	-1.020338	-2.019642	1.325526
C	-0.493649	1.286021	0.448179
N	-0.864862	2.348546	0.789373
F	2.549705	0.0	0.0
