14
Coordinates from ORCA-job run
  C   -0.70206837296537      0.21883532108106     -0.11801540607224
  C   0.58477406388606     -0.55575358453411     -0.25322926162983
  F   -0.79102878631959      1.17960451945616     -1.08948051067990
  H   0.55482483398642     -1.38762047313084      0.45664626886003
  H   0.58886920186691     -0.98256778072775     -1.25779851617561
  N   -1.92601600261408     -0.68046179322547     -0.35606822514217
  O   -1.77103314367423     -1.61498155164768     -1.13200269284299
  O   -2.96797499472163     -0.34092683476869      0.19247880545605
  C   -0.85212444618491      0.84722838517059      1.19938978061555
  N   -0.88078815440839      1.34262797696813      2.26378247850742
  C   1.80460731108059      0.33042412484398     -0.01736309589973
  H   1.84181325828682      0.70032361034406      1.00892712564646
  H   2.71473974226109     -0.24217522773999     -0.20168537426726
  H   1.80140548952028      1.18544330791055     -0.69458137637578
