14
Coordinates from ORCA-job run
  C   -0.80332940445274      0.21161800897049     -0.51342733642805
  C   0.65267077505718     -0.14177455745749     -0.73975804304538
  F   -1.49048355369239      0.12771738683217     -1.68288560621621
  H   1.03201884848480      0.58572922685504     -1.46327921661945
  H   0.65045207902185     -1.12192609695219     -1.22608685382410
  N   -1.40499646054819     -0.83105290584317      0.43396827494763
  O   -1.72877843851957     -1.88819440973032     -0.08556654066075
  O   -1.43740917571785     -0.53931857911747      1.62355932969467
  C   -0.99964053604887      1.53950437850874      0.07593471171867
  N   -1.10641880847940      2.63372052435328      0.48899328582907
  C   1.49160682266280     -0.14297103117323      0.53272240033756
  H   1.17052877273301     -0.91804372626313      1.22965876596050
  H   2.53538531107445     -0.33386633076228      0.27940062834250
  H   1.44039376842490      0.81885811177955      1.04676619996335
