14
Coordinates from ORCA-job run
  C   -0.72523696286081      0.24833949789563     -0.04437685920351
  C   0.55420544689125     -0.51387722783925     -0.32537741898425
  F   -0.88594577945942      1.26241745160264     -0.92979730377633
  H   0.46367548153269     -0.89722559481390     -1.34727311041098
  H   0.59217491379271     -1.36710037679903      0.35563872456026
  N   -1.90370314228737     -0.71794520327122     -0.22753974608041
  O   -2.58579292485336     -0.57969993016357     -1.22921446416322
  O   -2.00352239279055     -1.57341682082162      0.64227724797934
  C   -0.79833096353334      0.77598379100435      1.32262532413549
  N   -0.80535569768306      1.22065603033218      2.40961733900102
  C   1.78624296412219      0.37216988441358     -0.18192667342841
  H   1.89787693307959      0.73538068623301      0.84170864406407
  H   1.73097455922664      1.23086094629375     -0.85160846918485
  H   2.68173756482286     -0.19754313406654     -0.43475323450821
