14
Coordinates from ORCA-job run
  C   -0.73391633400306      0.18989057379088     -0.29347948190320
  C   0.69921352860563      0.47849735813900      0.12562167420239
  F   -0.77841214321323     -0.48203007077362     -1.48277355958791
  H   0.68602022160389      0.71878859289888      1.19318939638515
  H   0.99089504790099      1.39361468011920     -0.39810404888443
  N   -1.45384584748173     -0.72939502165706      0.70414243826631
  O   -0.79169459921243     -1.65608019508646      1.15393009583290
  O   -2.63671445424322     -0.49676362555206      0.92474096387530
  C   -1.52148122719172      1.42424561451393     -0.40731065914625
  N   -2.06525164659533      2.45925893705624     -0.51787431114987
  C   1.70344005723407     -0.62722172042818     -0.19035371972184
  H   1.72570302354905     -0.83558218513787     -1.25996451504138
  H   2.69846222720950     -0.29051600527941      0.10683008265064
  H   1.47558214583760     -1.54670693260346      0.34240564422220
