14
Coordinates from ORCA-job run
  C   -0.72394532586899      0.43777306991581     -0.21255378532700
  C   0.78144358039525      0.47082501052732     -0.03135335106827
  F   -1.05214354213319      0.21580213146693     -1.50903587198011
  H   0.98969339827066      0.74178948487075      1.00582172429211
  H   1.14580712537723      1.28189183269352     -0.66884260403877
  N   -1.26985051447524     -0.73677278087643      0.60975765796709
  O   -1.69168128820364     -1.70310585822491     -0.00326062713730
  O   -1.16704888503929     -0.59720328642994      1.82149471020891
  C   -1.39066635723714      1.65385006827270      0.26354851678410
  N   -1.88939351988804      2.65533173830552      0.62055899060021
  C   1.43516950717119     -0.85553749130861     -0.40447470354466
  H   2.52027134561043     -0.74305063349056     -0.39907874611901
  H   1.13125402251717     -1.17997230087667     -1.40032400267171
  H   1.18009045350358     -1.64162098484542      0.30874209203442
