14
Coordinates from ORCA-job run
  C   -0.71431825739619      0.20779135938569     -0.19060938847558
  C   0.54258526715938     -0.61799138155161     -0.00224778660352
  F   -0.81585113801942      0.64617031586360     -1.46932780431913
  H   0.53317356409886     -1.01410045485894      1.01573131126935
  H   0.46212466723967     -1.46116889528173     -0.69651692320715
  N   -1.92256072686168     -0.69790874789177      0.08602171680410
  O   -2.07394560519391     -1.00369426848223      1.26147096416214
  O   -2.57497963577566     -1.06414902530742     -0.87725593317730
  C   -0.80137363680649      1.34932015867845      0.72673604952947
  N   -0.81853839776299      2.27696527812377      1.44680314958505
  C   1.80259705361347      0.19553584840098     -0.27457561451285
  H   2.68202177171519     -0.44280614811016     -0.17571571588330
  H   1.79340319225204      0.60534684918455     -1.28516312243525
  H   1.90466188173772      1.01968911184682      0.43464909726396
