14
Coordinates from ORCA-job run
  C   -0.72975462489756      0.35697589552909     -0.31557076212251
  C   0.74609242114039      0.52652146432764     -0.01110932648312
  F   -0.92140566072079     -0.00824397258194     -1.60654978501994
  H   1.10884253210656      1.30428544253593     -0.68970835555172
  H   0.83748108838471      0.90398857451740      1.00948340265363
  N   -1.26608618214568     -0.77680478527973      0.56946502299687
  O   -1.26773540090769     -0.52547720473072      1.76750625100535
  O   -1.58345300503955     -1.81730510680370      0.01852842806363
  C   -1.52211763635787      1.55446450107573     -0.01781991110617
  N   -2.12123029446566      2.54066185807710      0.20116023173913
  C   1.52502612599539     -0.77125528779025     -0.19797714827930
  H   1.34535094321395     -1.20191759169842     -1.18370060387241
  H   2.59358774558396     -0.57348436013877     -0.10190900534930
  H   1.25640194810985     -1.51140942703937      0.55820156132585
