14
Coordinates from ORCA-job run
  C   -0.82185890807204      0.31590302382757     -0.41908521524931
  C   0.57256536345326     -0.13376272134906     -0.80542003266704
  F   -1.61272181402572      0.38217729343928     -1.52228307470322
  H   0.44332143283842     -1.06798682803375     -1.36008827285794
  H   0.95015478176671      0.61718309814353     -1.50555354290057
  N   -1.42697628026557     -0.74832770108935      0.50163851508339
  O   -1.88299469666268     -1.73186895280069     -0.06140699068117
  O   -1.33063053221110     -0.55131674810453      1.70711952174101
  C   -0.85109854156656      1.60357048171753      0.28109654685083
  N   -0.84773944004305      2.66910187533327      0.77500743834040
  C   1.51483064879815     -0.30508047856263      0.38032693446978
  H   2.51313515457135     -0.55459336218106      0.01813169623899
  H   1.58953438934939      0.61197251596935      0.96807545856928
  H   1.19047844206941     -1.10797149630947      1.04344101776559
