14
Coordinates from ORCA-job run
  C   -0.82581285943886      0.32957090982217     -0.40365841075907
  C   0.56211534148708     -0.11872621242317     -0.81421943068750
  F   -1.62717800720169      0.42518581823332     -1.49704406237726
  H   0.93585129398148      0.64506363322024     -1.50236137545624
  H   0.42157071937488     -1.04025964986485     -1.38711799996537
  N   -1.42876928100910     -0.75179196457943      0.49855606728910
  O   -1.89822936142279     -1.71863581761774     -0.08207995523074
  O   -1.32050630859005     -0.58297742690347      1.70737351143280
  C   -0.83928091743836      1.60076469989966      0.32643014576040
  N   -0.80387746989678      2.65134056070140      0.85023972872487
  C   1.51634234064488     -0.32030860145440      0.35697659259966
  H   1.19195870883725     -1.13151611410521      1.00976825796830
  H   1.60711345022698      0.58545634420949      0.95958092608509
  H   2.50770235044506     -0.57316617913800     -0.02144399538404
