15
Coordinates from ORCA-job run
  C   0.84129478112302     -0.22915382003097     -0.19239982999450
  C   -0.35261639829173      0.63007180022218      0.21640284664871
  Br  2.12568314212069      1.07584061611959     -1.04791141084026
  H   -0.04824395019616      1.41595356534913      0.90510696771769
  N   1.33765977923734     -0.85033719656729      0.97538611438595
  H   2.06770938688714     -1.52213921754231      0.77593133624110
  H   1.64996107729026     -0.18571323794090      1.67320927001722
  C   0.55940635875140     -1.25249296054205     -1.19558714790100
  N   0.44163233975565     -2.15218542009915     -1.94296466711748
  N   -1.36048012384448     -0.22505055344432      0.93996595097255
  O   -1.43361070165150     -0.05689841667804      2.15048098563622
  O   -1.99211317655378     -1.01462629166388      0.24836373885267
  N   -1.08574911834321      1.29380105273547     -0.91005171311923
  O   -1.00818489951851      0.79990200138242     -2.02654675920880
  O   -1.74334849676612      2.27302807870012     -0.56938568229085
