15
Coordinates from ORCA-job run
  C   0.76431294380014     -0.23174971001860     -0.50309395504286
  C   -0.69222547049948      0.23715103856872     -0.34820899827800
  Br  1.48110078238026      0.56744652496045     -2.14615916022415
  H   -1.24749001861046      0.16682181123966     -1.28160547872006
  N   1.56844979952622      0.22074882706415      0.59205630824379
  H   2.54241700919724     -0.01028139714745      0.43885482736912
  H   1.24443408742947     -0.20437701694574      1.45468909578833
  C   0.74858274878745     -1.68433895520899     -0.74834386864915
  N   0.76407104468440     -2.84871450142681     -0.91617854124964
  N   -0.74684880273102      1.67004584818709      0.12055821665941
  O   -0.81280300855818      1.85534393359030      1.32799218679727
  O   -0.70754036099162      2.51034191674305     -0.76716743277701
  N   -1.44437290070637     -0.56726849470597      0.67455475601506
  O   -2.66270300224848     -0.55824110994894      0.54308997459522
  O   -0.80038485145959     -1.12492871495091      1.55796206947268
