15
Coordinates from ORCA-job run
  C   0.78002526565109     -0.24092988965053     -0.47434278692433
  C   -0.66775758575740      0.26775317579036     -0.37209325258787
  Br  1.59414698222268      0.58021417623370     -2.06032978775000
  H   -1.18130639531158      0.23922220816237     -1.33120752146207
  N   1.54645888437346      0.15665873705393      0.66816600615792
  H   1.16822258992599     -0.27907585847151      1.50303600912932
  H   2.51809289709398     -0.10525123685315      0.55348410844650
  C   0.73271765944739     -1.68515835526439     -0.76089879406561
  N   0.72202287348113     -2.84487698912247     -0.95853221966568
  N   -0.70173581655397      1.68870494947219      0.13357219820380
  O   -0.60753551930038      2.55103980765349     -0.72875999448250
  O   -0.80812095153502      1.84332189908564      1.34252569454302
  N   -1.48943649147543     -0.54072052522855      0.59222517966006
  O   -0.90447982364639     -1.13788296343416      1.49078353330063
  O   -2.69931456861556     -0.49501913542692      0.40237162749681
