15
Coordinates from ORCA-job run
  C   0.81379557327177     -0.22668946183240     -0.21617447464970
  C   -0.69588703206045      0.00725305621648     -0.03381228112927
  Br  1.80800359578900      1.50400842377212     -0.04289107399951
  H   -1.23693345820813     -0.85963139084716     -0.41433323056963
  N   1.22079323484231     -1.24859743452700      0.68144158440433
  H   2.11945594959558     -1.63365185683498      0.41957842318120
  H   1.25102054770620     -0.90672330621880      1.63437363117168
  C   1.05728704750964     -0.67462230291452     -1.58838644316022
  N   1.29631237596274     -1.09619702493573     -2.65931186685557
  N   -1.18767020316517      1.20747870062787     -0.79972956875181
  O   -1.51764242224889      2.19722510716213     -0.16282465241846
  O   -1.18910851212284      1.05808529422829     -2.01495843294155
  N   -1.12568740626407      0.17772621645748      1.39103210310279
  O   -0.29524572483182      0.52432433639331      2.22386601520259
  O   -2.31849356577589     -0.02898835674707      1.58113026741314
