15
Coordinates from ORCA-job run
  C   0.78411067608043     -0.35870218728428     -0.29770860968004
  C   -0.63011764666421      0.22318881997528     -0.40335887337655
  Br  1.83134179425240      0.64621840550865     -1.73738215273727
  H   -1.08056851861204      0.00414615644798     -1.36914854991656
  N   1.29479200386311     -0.28912159839621      1.00190175926958
  H   2.17643852106252     -0.77201480688437      1.10982549235780
  H   1.32932579796845      0.65713466256830      1.35876388564762
  C   0.78757527010063     -1.74081547270935     -0.77415927690954
  N   0.82364875193478     -2.85494535513237     -1.14731322379883
  N   -0.69766150988698      1.70576413149924     -0.20762301099278
  O   -1.59219114701416      2.26726567939790     -0.83027940265153
  O   0.09293185699745      2.22436203819102      0.57280295087433
  N   -1.50528556436032     -0.40871296224930      0.66083261994742
  O   -1.75688040676531      0.24921012695110      1.65957233706002
  O   -1.85645987895675     -1.55197763788362      0.40327405490635
