15
Coordinates from ORCA-job run
  C   0.91821464179894     -0.14422319976085     -0.16704850927099
  C   -0.61168977986093     -0.00690905642523      0.06596262515054
  Br  1.79108651274571      1.57878609037283      0.15784612554173
  H   -1.05064420131051     -1.00349794040962      0.13333957360543
  N   1.55568594554970     -1.12349367178609      0.66432905621405
  H   1.30303447413443     -2.06487816848863      0.38527395592585
  H   1.33626631976761     -0.97208346427417      1.64136460754043
  C   1.11649820811045     -0.52871022611454     -1.56611572383265
  N   1.24911154180409     -0.92213792320233     -2.66581443269379
  N   -1.37790498582248      0.71880673815653     -0.99896658389149
  O   -2.56925221487992      0.42805934528140     -1.04391212872490
  O   -0.78168000261266      1.53010983090325     -1.69562067436430
  N   -0.90148766904724      0.67944341172264      1.37481299358219
  O   -0.54030166111439      0.05368423928754      2.36633838136952
  O   -1.43793712926281      1.77604399473728      1.34621073384837
