15
Coordinates from ORCA-job run
  C   0.82037182293802     -0.26380328390521     -0.15924818885878
  C   -0.68126322035999     -0.00800260795910      0.06640956344087
  Br  1.84860306430075      1.42362472046783      0.19302992414049
  H   -1.18869943166076     -0.96967592241165      0.15168173695078
  N   1.22092311953646     -1.36050618488369      0.64680559301908
  H   2.18831923549330     -1.60677858690493      0.47667565546006
  H   1.07198515355529     -1.17045901042632      1.63080103921728
  C   1.05094859759750     -0.60101862843124     -1.56450787472520
  N   1.25359085926361     -0.94434037269722     -2.67019241339032
  N   -1.37330427231605      0.75562566392996     -1.01896681007976
  O   -0.71612191864563      1.53935524214169     -1.69163717139479
  O   -2.57674143817135      0.52887242528544     -1.09805462572407
  N   -0.92146602029408      0.72795493319418      1.36204877531550
  O   -1.45086253309476      1.82629083546927      1.31500754034001
  O   -0.54528301814220      0.12486077713098      2.36114725628886
