15
Coordinates from ORCA-job run
  C   0.88849524391625     -0.21836454989147     -0.34289740059075
  C   -0.24314169589284      0.62580849621614      0.27867977714835
  Br  2.09608224503592      1.09193888063844     -1.17823493270425
  H   0.15817130912440      1.29287923996616      1.03974826486923
  N   1.64674575709994     -0.96477215086676      0.61420597966672
  H   1.94881298575989     -0.39091209894921      1.39201395057213
  H   1.14166441483396     -1.77651588586438      0.94903906001475
  C   0.39113577587449     -1.14472764722533     -1.35956100841283
  N   0.03483339009851     -1.97509097565777     -2.11129928040298
  N   -1.22583267583370     -0.28736171868082      0.96513964991551
  O   -2.18788437140092     -0.67411258752905      0.31233086103716
  O   -0.93186755990180     -0.59549888327977      2.11626241650382
  N   -1.03561073177021      1.46791722692921     -0.67504923573750
  O   -1.08218753907690      1.12561992113529     -1.84893387469244
  O   -1.60141654786696      2.42319273305931     -0.15144422718693
