15
Coordinates from ORCA-job run
  C   0.79731081899933     -0.25460366933220     -0.43672260309941
  C   -0.65123711199719      0.26080152303917     -0.40406814692059
  Br  1.67572283951849      0.52355822283825     -2.01024155158498
  H   -1.12694065593210      0.20980417698515     -1.38158513007835
  N   1.52021823914813      0.16964963988696      0.72432036296331
  H   1.10731250139707     -0.24243799014382      1.55479707624033
  H   2.49429861365675     -0.09908577969419      0.65499122836782
  C   0.75494761412797     -1.70542734628810     -0.68917423426864
  N   0.74547993059794     -2.86945480696142     -0.86024279381931
  N   -0.69959177980518      1.69405649722965      0.06441978768727
  O   -0.56387940089715      2.53415132111704     -0.81398789042891
  O   -0.85899428226568      1.87926791443529      1.26311812099659
  N   -1.51376676461742     -0.52011048235777      0.54738563296935
  O   -0.96584945037770     -1.10481648435163      1.47695160821722
  O   -2.71503111155330     -0.47535273640244      0.30903853275828
