15
Coordinates from ORCA-job run
  C   0.62978586207818     -0.32458433664528     -0.50378289116562
  C   -0.51928900966770      0.09174858472801      0.42914578618409
  Br  0.24460268316043      0.02147036463019     -2.38229059280723
  H   -0.31840681316026     -0.27410802989280      1.43954430928727
  N   1.76614165624410      0.49173791207128     -0.14028874509469
  H   2.53358981265038      0.32501517629642     -0.78071281011304
  H   2.07397200083528      0.27772987636776      0.80448494879716
  C   0.86177081635895     -1.76888574940168     -0.35857101776410
  N   1.14798921121609     -2.89443762447106     -0.16987612221729
  N   -1.87489551307153     -0.44874362018090      0.05977695520050
  O   -1.89710471531470     -1.48267622778760     -0.59439992415421
  O   -2.82832983775431      0.16278443459296      0.52206473232852
  N   -0.59661791404028      1.58338733757889      0.53154048366643
  O   -1.06182759124053      2.17984035281172     -0.42853995145715
  O   -0.16038064829409      2.05972154930203      1.57390483930934
