15
Coordinates from ORCA-job run
  C   0.73987163327107     -0.24677899077504     -0.53145098513922
  C   -0.70352481595274      0.24060342003104     -0.32186542004600
  Br  1.39485573811758      0.52249939075633     -2.21429670751378
  H   -1.29839185656055      0.16538152375990     -1.23013163540818
  N   1.59469426117812      0.21101780133900      0.52247850969348
  H   1.30138681792286     -0.19814383430804      1.40371002867982
  H   2.55816805919935     -0.03685124625908      0.33233455592246
  C   0.69833817133171     -1.70211208808165     -0.75640443099609
  N   0.69671143451689     -2.86864004031374     -0.90973588157177
  N   -0.72242844157794      1.68012394533177      0.12972216581632
  O   -0.73322443295781      1.88169763292666      1.33621579739555
  O   -0.71250625649660      2.50817853382273     -0.77030289060550
  N   -1.42144778942369     -0.54122907824762      0.74204438380032
  O   -2.64403810931982     -0.51877521394459      0.66181432945405
  O   -0.74746441324848     -1.09597175603768      1.60486818051856
