15
Coordinates from ORCA-job run
  C   0.70744608348777     -0.40868271401909     -0.29302370945800
  C   -0.60412944710365      0.16521189173590      0.26685606327085
  Br  0.85859899325552     -0.20857616745988     -2.22560909760876
  H   -0.70642315056710     -0.11872240286755      1.31758966346406
  N   1.77655222322722      0.35931178567079      0.30389872209956
  H   2.66769427025987      0.07874341902205     -0.08875462582811
  H   1.80162240712836      0.21719558145878      1.31008724613057
  C   0.76685149450192     -1.84656374617823      0.00790260997404
  N   0.91650279573055     -2.96425999606380      0.34388171932387
  N   -1.85740654451136     -0.31897107557730     -0.41214142113484
  O   -2.84158049482301      0.39382746854571     -0.27112608977284
  O   -1.79715398565100     -1.40731569557034     -0.96844048910794
  N   -0.57604684259769      1.66178194340334      0.23823308718313
  O   -0.72295986887005      2.19668947217550     -0.85090404567109
  O   -0.38656793346735      2.20233023572411      1.32255036713552
