15
Coordinates from ORCA-job run
  C   0.73431736816540     -0.36819122109883     -0.29383332503590
  C   -0.68451240472376      0.11959765817495      0.04712633114338
  Br  2.00303145510650      1.18068791172919     -0.35627246684672
  H   -1.39946295526150     -0.66274808113557     -0.20921037889818
  N   1.08496730646446     -1.39854371464041      0.61802764658368
  H   1.87169311209680     -1.93833989322945      0.28021707235499
  H   1.28844735788678     -1.02035883998539      1.53533609824288
  C   0.72840049497940     -0.91582451350525     -1.65136230951247
  N   0.75563697117932     -1.41504692778509     -2.71519736348608
  N   -1.07360369241846      1.34715049423647     -0.73480222490247
  O   -1.25442313082885      1.14215082224363     -1.92833233875334
  O   -1.15461860913244      2.40772823945171     -0.13264624849258
  N   -0.89877355405414      0.42599468627457      1.49749693883482
  O   -2.07557354787323      0.42687407559327      1.83946939455308
  O   0.07447382841371      0.66786930367622      2.20298317421496
