15

C	-0.461942	0.036629	-1.452623
C	0.0	0.0	0.0
Cl	-0.173486	-1.564737	-2.214396
H	1.088434	0.0	0.0
H	-0.355485	0.899148	0.512976
C	-1.880472	0.365714	-1.617808
N	-2.980333	0.729936	-1.813368
C	0.398278	1.070296	-2.180452
H	0.219282	2.060016	-1.751853
H	0.145737	1.090291	-3.241715
H	1.450437	0.811717	-2.037969
N	-0.562236	-1.146524	0.763547
O	-1.745013	-1.426722	0.55981
O	0.169371	-1.703174	1.57396
Cl	3.362355	0.0	0.0
