15

C	-0.459686	0.143515	-1.456371
C	0.0	0.0	0.0
Cl	-0.300313	-1.511929	-2.16799
H	1.088885	0.0	0.0
H	-0.391732	-0.901974	0.463794
C	-1.877698	0.4995	-1.553033
N	-3.013405	0.793543	-1.620809
C	0.42343	1.085178	-2.266618
H	1.461086	0.768858	-2.137975
H	0.140583	1.051052	-3.319976
H	0.312128	2.099229	-1.883597
N	-0.448724	1.12844	0.855199
O	-0.566018	2.243327	0.344017
O	-0.646337	0.873824	2.040255
Cl	3.296866	0.0	0.0
