15

C	-0.453854	0.14017	-1.458342
C	0.0	0.0	0.0
Cl	-0.285754	-1.513894	-2.167455
H	1.088944	0.0	0.0
H	-0.394814	-0.899901	0.465059
C	-1.872748	0.493924	-1.553017
N	-3.008629	0.785951	-1.626826
C	0.422469	1.088522	-2.266947
H	0.294833	2.103528	-1.895239
H	0.148753	1.04012	-3.3229
H	1.463104	0.789446	-2.128003
N	-0.463797	1.130177	0.84499
O	-0.484975	2.257797	0.354487
O	-0.780236	0.860385	2.001064
Cl	3.289614	0.0	0.0
