15

C	-0.459628	0.05452	-1.454245
C	0.0	0.0	0.0
Cl	-0.152597	-1.536666	-2.233021
H	1.088442	0.0	0.0
H	-0.367027	0.888078	0.522959
C	-1.883218	0.362383	-1.618591
N	-2.993378	0.694745	-1.81288
C	0.388935	1.108396	-2.165002
H	0.191981	2.090436	-1.725606
H	0.14088	1.136732	-3.226875
H	1.443991	0.863301	-2.02171
N	-0.560958	-1.164163	0.734549
O	-1.771279	-1.362527	0.610337
O	0.197492	-1.824818	1.434495
Cl	3.37731	0.0	0.0
