15

C	-0.460271	-0.054226	-1.442929
C	0.0	0.0	0.0
Cl	-2.264163	-0.246495	-1.502454
H	1.092783	0.0	0.0
H	-0.354469	-0.885592	0.525266
C	-0.134963	1.1298	-2.242161
N	0.108327	1.985482	-3.009984
C	0.190815	-1.275832	-2.087255
H	1.275822	-1.164937	-2.008379
H	-0.108851	-1.357473	-3.132746
H	-0.115732	-2.177034	-1.553154
N	-0.506827	1.158915	0.7666
O	-0.619666	2.237473	0.188583
O	-0.755589	0.963219	1.955247
Cl	3.262458	0.0	0.0
