15

C	-0.592095	0.095178	-1.409878
C	0.0	0.0	0.0
Cl	0.191853	1.380624	-2.380449
H	1.088245	0.0	0.0
H	-0.369158	-0.916234	0.462024
C	-0.331958	-1.183382	-2.079048
N	-0.185439	-2.229131	-2.593696
C	-2.098964	0.347816	-1.393029
H	-2.301207	1.328838	-0.961156
H	-2.596204	-0.417016	-0.791226
H	-2.493512	0.324205	-2.409248
N	-0.523676	1.101912	0.841991
O	-0.136133	2.242929	0.606142
O	-1.352359	0.802873	1.708539
Cl	3.290653	0.0	0.0
