15

C	-0.57612	0.032721	-1.419287
C	0.0	0.0	0.0
Cl	0.167122	1.329409	-2.408953
H	1.088218	0.0	0.0
H	-0.370444	-0.899627	0.49321
C	-0.247947	-1.248292	-2.053146
N	-0.072656	-2.292289	-2.563961
C	-2.092123	0.219366	-1.434112
H	-2.465143	0.15797	-2.457162
H	-2.566408	-0.555165	-0.826276
H	-2.347177	1.19779	-1.024728
N	-0.538748	1.132041	0.790323
O	-0.106974	2.257744	0.556861
O	-1.42438	0.870742	1.613139
Cl	3.296494	0.0	0.0
