15

C	-0.460756	-0.053295	-1.441888
C	0.0	0.0	0.0
Cl	-2.2656	-0.248405	-1.495923
H	1.092756	0.0	0.0
H	-0.355037	-0.885459	0.525404
C	-0.138962	1.130373	-2.241845
N	0.102859	1.987743	-3.007733
C	0.191185	-1.274309	-2.08653
H	1.27624	-1.160209	-2.011953
H	-0.111851	-1.358531	-3.13072
H	-0.111022	-2.175719	-1.550027
N	-0.505883	1.159227	0.768048
O	-0.617894	2.237666	0.190444
O	-0.753436	0.963112	1.956944
Cl	3.261887	0.0	0.0
