15

C	0.04607	0.042033	-1.51386
C	0.0	0.0	0.0
Cl	-1.571836	0.060677	-2.368134
H	1.107454	0.0	0.0
H	-0.433007	-0.943369	0.333511
N	0.716998	1.292964	-1.859352
H	1.626314	1.194958	-1.386423
H	0.877812	1.312544	-2.861504
N	0.742875	-1.167063	-1.919556
H	1.637291	-1.095686	-1.414681
H	0.939395	-1.106432	-2.913935
N	-0.636834	1.165031	0.620441
H	-0.041842	1.439596	1.395453
H	-0.556363	1.916824	-0.058069
F	2.773011	0.0	0.0
