15

C	-0.183484	-0.039633	-1.51706
C	0.0	0.0	0.0
Cl	0.14805	-1.836361	-1.98278
H	1.090384	0.0	0.0
H	-0.460784	-0.854236	0.511117
N	-1.464276	0.350998	-2.000236
H	-1.446934	0.311194	-3.012983
H	-2.17015	-0.289291	-1.658573
N	0.838392	0.729043	-2.179086
H	1.711265	0.49238	-1.675195
H	0.626697	1.685205	-1.899613
N	-0.396393	1.322642	0.48891
H	-1.353145	1.334643	0.816172
H	0.217222	1.559574	1.257456
F	2.727725	0.0	0.0
