15

C	-0.230684	0.051521	-1.51042
C	0.0	0.0	0.0
Cl	-0.112381	-1.742587	-2.136998
H	1.099455	0.0	0.0
H	-0.48673	-0.864302	0.447529
N	-1.549448	0.487335	-1.861655
H	-1.555625	0.879398	-2.79603
H	-1.761808	1.215407	-1.183136
N	0.853047	0.813324	-2.031024
H	0.960304	0.696661	-3.028274
H	1.719159	0.548915	-1.525482
N	-0.529157	1.256226	0.588904
H	0.197191	1.948298	0.429233
H	-0.56381	1.123203	1.594543
F	2.752033	0.0	0.0
