15

C	-0.125156	0.064709	-1.507768
C	0.0	0.0	0.0
Cl	-1.905665	1.09563	-1.916951
H	1.094872	0.0	0.0
H	-0.343035	0.945915	0.420276
N	0.896322	0.876577	-2.008258
H	1.748339	0.683744	-1.436733
H	1.065723	0.711913	-2.990649
N	-0.314133	-1.186907	-2.091635
H	-0.986907	-1.709516	-1.542173
H	-0.579589	-1.125093	-3.063727
N	-0.632923	-1.177438	0.577228
H	0.047451	-1.654275	1.154684
H	-1.40972	-0.904842	1.164181
F	2.726454	0.0	0.0
