15

C	-0.350191	-0.061016	-1.47729
C	0.0	0.0	0.0
Br	-2.237778	-0.433065	-1.83037
H	1.092968	0.0	0.0
N	-0.021736	1.352442	-2.049133
O	-0.89662	2.201382	-1.985535
O	1.117765	1.489956	-2.464608
C	0.451021	-1.013009	-2.23567
N	1.018881	-1.750027	-2.95423
N	-0.360692	-1.256677	0.690357
O	-0.302433	-2.292939	0.029579
O	-0.615995	-1.191613	1.890599
C	-0.559259	1.135404	0.688677
N	-0.990377	2.082796	1.236963
F	2.38957	0.0	0.0
