15

C	-0.519052	-0.020943	-1.472865
C	0.0	0.0	0.0
Br	-2.462951	-0.211889	-1.476984
H	1.11535	0.0	0.0
N	-0.157643	1.250982	-2.193779
O	-0.620698	1.246922	-3.422689
O	1.124636	1.518307	-2.114169
C	0.157509	-1.162052	-2.278261
N	1.405467	-1.224021	-2.317843
N	-0.417648	-1.197129	0.770519
O	0.104529	-2.288483	0.256323
O	-0.158796	-1.062655	2.045423
C	-0.386776	1.294279	0.770392
N	0.325637	1.663238	1.696552
F	2.492076	0.0	0.0
