15

C	-0.420702	0.011825	-1.460249
C	0.0	0.0	0.0
Br	0.366148	-1.493175	-2.374952
H	1.092748	0.0	0.0
N	-1.976638	-0.013799	-1.642814
O	-2.519021	1.026175	-1.29172
O	-2.514293	-1.017606	-2.073045
C	0.029801	1.244112	-2.092245
N	0.357058	2.245797	-2.613842
N	-0.503873	-1.259706	0.653254
O	0.326995	-2.028399	1.121452
O	-1.72712	-1.423086	0.676701
C	-0.509008	1.130224	0.748075
N	-0.851347	2.039953	1.41062
F	2.429307	0.0	0.0
