19

C	-0.563992	-0.063483	-1.42399
C	0.0	0.0	0.0
F	-0.288021	1.142212	-2.085821
H	1.091054	0.0	0.0
C	0.171371	-1.160178	-2.166496
H	1.246398	-0.981717	-2.080854
H	-0.129212	-1.1507	-3.218905
H	-0.057394	-2.130639	-1.725641
C	-2.072686	-0.22517	-1.449253
H	-2.556552	0.618954	-0.951972
H	-2.416297	-0.259776	-2.486963
H	-2.36294	-1.148898	-0.947227
N	-0.406442	-1.163192	0.743742
H	0.354347	-1.386388	1.377623
H	-1.231888	-0.948044	1.288852
N	-0.458292	1.275541	0.654841
O	-1.381415	1.212951	1.483396
O	0.099525	2.317805	0.327083
H	2.786404	0.0	0.0
