19

C	-0.404704	-0.016058	-1.472671
C	0.0	0.0	0.0
F	-1.803323	-0.267055	-1.562538
H	1.09067	0.0	0.0
C	-0.129135	1.28838	-2.187369
H	-0.347138	1.17001	-3.252721
H	-0.75192	2.090598	-1.790657
H	0.920942	1.558756	-2.050254
C	0.312697	-1.171888	-2.139414
H	-0.00749	-2.120327	-1.704222
H	0.088196	-1.185729	-3.209375
H	1.389522	-1.057546	-1.973948
N	-0.433922	-1.129734	0.759575
H	-1.261096	-1.563139	0.373919
H	0.333812	-1.785376	0.82962
N	-0.524203	1.252659	0.640041
O	-1.607722	1.20171	1.224352
O	0.146327	2.278074	0.506958
H	2.80272	0.0	0.0
