19

C	-0.503129	0.050434	-1.450849
C	0.0	0.0	0.0
F	-0.311271	-1.276095	-1.921729
H	1.095673	0.0	0.0
C	-1.990053	0.319723	-1.553171
H	-2.323968	0.140608	-2.57967
H	-2.205748	1.354349	-1.284326
H	-2.520507	-0.352597	-0.87706
C	0.357115	0.920035	-2.341702
H	0.101483	0.717863	-3.387078
H	1.406508	0.679497	-2.15707
H	0.197614	1.973379	-2.119693
N	-0.530166	-1.173017	0.681049
H	-0.04774	-1.958337	0.260431
H	-0.203484	-1.11049	1.63934
N	-0.358574	1.190101	0.763097
O	-0.372208	2.286224	0.183858
O	-0.477744	1.074268	1.990088
H	2.65919	0.0	0.0
