19

C	-0.430985	-0.015595	-1.464597
C	0.0	0.0	0.0
F	-1.826032	-0.285284	-1.531702
H	1.090592	0.0	0.0
C	-0.19008	1.299397	-2.171346
H	-0.418235	1.188767	-3.234946
H	0.854204	1.591401	-2.042412
H	-0.826637	2.08309	-1.758714
C	0.28718	-1.157192	-2.152959
H	0.012866	-1.1854	-3.211898
H	0.00931	-2.108929	-1.695174
H	1.367498	-1.017711	-2.034685
N	-0.436316	-1.12145	0.772576
H	-1.278597	-1.540427	0.405656
H	0.320707	-1.789507	0.830777
N	-0.520446	1.257034	0.635658
O	-1.63293	1.219323	1.165022
O	0.174465	2.270651	0.547729
H	2.816915	0.0	0.0
