14

C	0.0	0.0	0.0
C	-0.502061	0.263788	-1.412533
Cl	1.749854	0.0	0.0
H	-1.600339	0.214683	-1.298117
H	-0.36281	0.801909	0.660634
N	-0.619499	-1.216747	0.566643
O	-1.763757	-1.451691	-0.003764
O	-0.388045	-1.390094	1.788778
N	-0.035206	-0.743617	-2.351415
H	0.87992	-0.50036	-2.709267
H	-0.68335	-0.805224	-3.124742
C	-0.15949	1.636813	-1.824689
N	0.100185	2.708118	-2.234982
H	-2.825672	0.0	0.0
