14

C	0.0	0.0	0.0
C	-0.437845	0.068696	-1.494574
Cl	1.749102	0.0	0.0
H	0.199296	0.877635	-1.875979
H	-0.372646	0.865769	0.542533
N	-0.479179	-1.193573	0.781549
O	-0.515265	-1.038987	1.998361
O	-0.735234	-2.221136	0.169219
N	-1.803439	0.368818	-1.814312
H	-1.913452	1.378312	-1.777597
H	-2.508067	0.040011	-1.051084
C	0.035282	-1.125171	-2.230296
N	0.464517	-2.015856	-2.863567
H	-3.424967	0.0	0.0
