15

C	0.0	0.0	0.0
C	-0.261914	0.08024	-1.532574
F	1.357241	0.0	0.0
H	-0.015169	1.097977	-1.827348
H	-0.399202	-0.868136	0.501002
N	-0.4045	1.203913	0.771349
O	-0.447964	2.282447	0.185251
O	-0.489751	1.05195	1.986577
N	-1.644404	-0.152039	-2.083241
O	-1.998139	-1.31861	-2.223399
O	-2.213782	0.820594	-2.563543
N	0.553045	-0.861036	-2.289933
H	1.508267	-0.806988	-1.964443
H	0.195853	-1.791906	-2.099451
F	-2.265054	0.0	0.0
