15

C	0.0	0.0	0.0
C	-0.476492	0.112635	-1.45181
F	1.351756	0.0	0.0
H	-1.488121	0.51656	-1.404636
H	-0.404627	-0.843307	0.537446
N	-0.400201	1.229133	0.760457
O	-0.487014	1.116076	1.978649
O	-0.463909	2.291208	0.143406
N	-0.647318	-1.280467	-1.992365
O	-1.41563	-1.42241	-2.935641
O	0.039983	-2.184825	-1.507922
N	0.41772	0.798132	-2.352629
H	1.375488	0.656923	-2.055874
H	0.212597	1.78431	-2.279616
F	-2.433093	0.0	0.0
