15

C	0.0	0.0	0.0
C	-0.347179	-0.019651	-1.517778
F	1.353255	0.0	0.0
H	0.610871	-0.226678	-2.001833
H	-0.394783	-0.885968	0.479874
N	-0.440468	1.140997	0.872096
O	-0.342963	0.896921	2.073875
O	-0.745258	2.220811	0.39062
N	-0.594758	1.406348	-2.085163
O	0.397693	2.132772	-2.141383
O	-1.700372	1.683434	-2.530321
N	-1.314084	-0.978305	-1.846965
H	-1.524585	-0.934832	-2.835188
H	-2.128341	-0.712967	-1.218839
F	-2.530646	0.0	0.0
