15

C	0.0	0.0	0.0
C	-0.538266	0.028735	-1.415379
F	1.3552	0.0	0.0
H	-1.655791	0.04266	-1.208717
H	-0.395607	-0.851176	0.535252
N	-0.420902	1.195928	0.811668
O	-0.45728	1.018026	2.024502
O	-0.576524	2.282339	0.258384
N	-0.244832	-1.290664	-2.048903
O	-0.281507	-1.326063	-3.2796
O	-0.07315	-2.281636	-1.337756
N	0.067167	1.055408	-2.2479
H	-0.120085	1.930217	-1.773495
H	-0.445503	1.068673	-3.121416
F	-2.608326	0.0	0.0
