11

C	0.0	0.0	0.0
C	-0.544485	-0.038364	-1.422262
Cl	1.781703	0.0	0.0
H	-1.663822	-0.055374	-1.184183
H	-0.350863	-0.883839	0.533735
H	-0.268441	0.867177	-1.969499
C	-0.463458	1.181495	0.737302
N	-0.596377	2.157409	1.379481
C	-0.109412	-1.219463	-2.139632
N	0.205483	-2.190672	-2.724508
H	-2.751586	0.0	0.0
