11

C	0.0	0.0	0.0
C	-0.560289	-0.045088	-1.41456
Cl	1.781599	0.0	0.0
H	-1.681103	-0.060877	-1.156606
H	-0.3533	-0.871819	0.551468
H	-0.297594	0.861906	-1.965076
C	-0.446701	1.210423	0.70149
N	-0.55906	2.232553	1.271935
C	-0.139245	-1.22434	-2.140377
N	0.161856	-2.191971	-2.73813
H	-2.771387	0.0	0.0
