11

C	0.0	0.0	0.0
C	-0.559834	-0.037642	-1.41555
Cl	1.78182	0.0	0.0
H	-1.680425	-0.057762	-1.156937
H	-0.350893	-0.878052	0.542995
H	-0.299089	0.873347	-1.961298
C	-0.452034	1.200236	0.714552
N	-0.564202	2.214021	1.300437
C	-0.130809	-1.211216	-2.146737
N	0.192376	-2.17647	-2.736457
H	-2.7663	0.0	0.0
