11

C	0.0	0.0	0.0
C	-0.399377	0.043173	-1.476016
Cl	1.784052	0.0	0.0
H	-0.036722	0.986873	-1.9047
H	-0.304442	-0.955983	0.425271
H	0.128984	-0.768596	-1.989784
C	-0.632308	1.063386	0.778445
N	-0.64127	2.072237	1.40869
C	-1.873808	-0.114774	-1.658787
N	-2.72096	-0.230389	-2.493848
H	-2.17399	0.0	0.0
