16

C	-0.510099	-0.073361	-1.449854
C	0.0	0.0	0.0
Br	0.296979	-1.547002	-2.402297
H	1.094837	0.0	0.0
C	-1.960711	-0.211156	-1.521381
N	-3.128962	-0.346278	-1.537974
N	-0.133508	1.251872	-2.144228
O	0.999432	1.363988	-2.572596
O	-1.013171	2.109803	-2.132676
C	-0.471771	-1.188669	0.703764
N	-0.870602	-2.115846	1.305883
C	-0.46782	1.2693	0.721089
H	-0.142552	1.20244	1.760382
H	-1.553298	1.39231	0.69119
H	0.012931	2.144741	0.283455
Cl	3.233144	0.0	0.0
