16

C	-0.432768	-0.000711	-1.477514
C	0.0	0.0	0.0
Br	0.407628	1.438646	-2.453029
H	1.095995	0.0	0.0
C	-0.119176	-1.253338	-2.15143
N	0.128104	-2.265021	-2.698753
N	-1.965638	0.178987	-1.527011
O	-2.613286	-0.861954	-1.458957
O	-2.412019	1.317301	-1.52933
C	-0.473943	-1.221303	0.646312
N	-0.843351	-2.179887	1.217656
C	-0.461622	1.230695	0.782584
H	-0.14575	2.14033	0.272017
H	-1.543718	1.253791	0.930483
H	0.030917	1.202705	1.755966
Cl	3.202939	0.0	0.0
