16

C	-0.429757	0.05511	-1.464977
C	0.0	0.0	0.0
Br	-2.379943	-0.034684	-1.676486
H	1.096661	0.0	0.0
C	0.012817	1.280661	-2.113391
N	0.341686	2.295568	-2.607407
N	0.16107	-1.146974	-2.232282
O	1.040307	-0.893526	-3.041102
O	-0.286	-2.243824	-1.939067
C	-0.50048	-1.192626	0.67124
N	-0.889011	-2.099391	1.309919
C	-0.418238	1.253441	0.775599
H	-1.503972	1.358916	0.83309
H	0.018406	2.138294	0.309714
H	-0.0101	1.176496	1.78457
Cl	3.191159	0.0	0.0
