16

C	-0.422143	-0.005418	-1.455297
C	0.0	0.0	0.0
Br	-2.348807	-0.249934	-1.739586
H	1.095709	0.0	0.0
C	-0.02623	1.229783	-2.123746
N	0.320137	2.234501	-2.629159
N	0.26382	-1.156232	-2.253003
O	0.014565	-1.202452	-3.450891
O	1.034046	-1.867224	-1.627243
C	-0.447885	-1.216335	0.654767
N	-0.827723	-2.165747	1.239845
C	-0.510787	1.229613	0.747012
H	-0.127383	2.142873	0.28674
H	-0.143831	1.190352	1.774776
H	-1.603493	1.268799	0.77109
Cl	2.683984	0.0	0.0
