16

C	-0.430486	-0.004514	-1.478237
C	0.0	0.0	0.0
Br	0.413494	1.430159	-2.458273
H	1.096	0.0	0.0
C	-0.118053	-1.25997	-2.1475
N	0.124106	-2.274206	-2.691897
N	-1.963532	0.17621	-1.526922
O	-2.611585	-0.86254	-1.444878
O	-2.409503	1.313969	-1.543041
C	-0.474709	-1.220853	0.646393
N	-0.845461	-2.178485	1.21859
C	-0.462117	1.230374	0.782726
H	-1.544578	1.252624	0.930611
H	0.030143	1.203537	1.756604
H	-0.147342	2.140237	0.271961
Cl	3.203167	0.0	0.0
