15

C	-0.505104	0.000727	-1.426104
C	0.0	0.0	0.0
Cl	-2.413652	0.245395	-1.325036
H	1.092408	0.0	0.0
H	-0.203315	0.891781	-1.965706
N	-0.1432	-1.175958	-2.057484
H	-0.486193	-1.273587	-2.999866
H	-0.311342	-1.984537	-1.476233
N	-0.464632	-1.137492	0.714266
H	0.145285	-1.314531	1.500367
H	-1.410644	-0.996549	1.044709
N	-0.389125	1.325659	0.6379
O	-0.926666	1.300263	1.745285
O	-0.117765	2.341781	0.005878
Cl	3.298052	0.0	0.0
