15

C	-0.343716	-0.060304	-1.473958
C	0.0	0.0	0.0
Cl	-2.123323	-0.130442	-1.755998
H	1.102377	0.0	0.0
H	-0.022936	0.869236	-1.944973
N	0.259723	-1.266478	-1.998208
H	0.145332	-1.291765	-3.004877
H	1.256893	-1.223641	-1.784469
N	-0.584686	-1.077351	0.741729
H	0.035342	-1.326837	1.501838
H	-0.645064	-1.871722	0.114281
N	-0.420336	1.325124	0.576269
O	-0.819592	1.345717	1.736751
O	-0.269815	2.319471	-0.133256
Cl	3.315682	0.0	0.0
