15

C	-0.303386	-0.018832	-1.498576
C	0.0	0.0	0.0
Cl	-2.084951	-0.242269	-1.798213
H	1.094583	0.0	0.0
H	-0.092095	0.963847	-1.922739
N	0.426527	-1.114611	-2.071416
H	0.474732	-1.006598	-3.075256
H	1.377754	-1.072031	-1.70593
N	-0.46346	-1.092631	0.779708
H	0.190016	-1.857961	0.68417
H	-1.386371	-1.390617	0.489231
N	-0.504333	1.307374	0.548843
O	-1.324206	1.290549	1.461777
O	-0.072298	2.323764	0.006527
Cl	3.289328	0.0	0.0
