15

C	-0.456022	0.06357	-1.455898
C	0.0	0.0	0.0
Cl	-0.18834	-1.578411	-2.231829
H	1.090944	0.0	0.0
H	-1.535097	0.211812	-1.531049
N	0.248796	1.123051	-2.07465
H	1.249341	1.025655	-1.911817
H	0.061406	1.175833	-3.066176
N	-0.528748	-1.082476	0.748994
H	0.027895	-1.227613	1.580126
H	-1.496212	-0.913161	0.993011
N	-0.455911	1.343738	0.576348
O	0.369043	2.218121	0.801387
O	-1.671159	1.44375	0.789744
Cl	3.367471	0.0	0.0
