15

C	-0.533068	0.11163	-1.410733
C	0.0	0.0	0.0
Cl	-2.437129	0.340519	-1.251104
H	1.102493	0.0	0.0
H	-0.240435	1.042917	-1.88575
N	-0.185566	-1.015567	-2.138894
H	-0.563188	-1.044662	-3.072432
H	-0.339623	-1.863539	-1.611192
N	-0.448454	-1.192729	0.634524
H	-1.378076	-1.068318	1.017587
H	0.188609	-1.430946	1.382952
N	-0.373705	1.268614	0.753141
O	-0.150699	2.332411	0.185814
O	-0.83818	1.152814	1.885665
Cl	3.281672	0.0	0.0
