15

C	-0.485551	-0.001436	-1.447234
C	0.0	0.0	0.0
Cl	-0.070934	1.603401	-2.220571
H	1.090902	0.0	0.0
H	0.145776	-0.717289	-1.974696
N	-1.855571	-0.36739	-1.588812
H	-2.43679	0.323784	-1.131318
H	-2.105458	-0.439382	-2.565642
N	-0.456795	-1.151091	0.726458
H	0.319969	-1.77653	0.884573
H	-1.214885	-1.610618	0.241308
N	-0.530892	1.217995	0.716547
O	0.234043	1.877993	1.405078
O	-1.743123	1.438361	0.603454
Cl	3.358348	0.0	0.0
