15

C	-0.467283	0.143348	-1.464286
C	0.0	0.0	0.0
Cl	-0.318751	-1.448171	-2.273589
H	1.090777	0.0	0.0
H	-1.531964	0.39628	-1.49538
N	0.280739	1.117454	-2.209794
H	0.027403	2.047096	-1.899966
H	1.26944	0.988524	-2.004762
N	-0.526514	-1.104414	0.709955
H	-1.490902	-0.946219	0.971941
H	0.033695	-1.277705	1.532877
N	-0.44347	1.3317	0.625824
O	0.297469	2.306953	0.537346
O	-1.570337	1.355007	1.133978
Cl	3.348316	0.0	0.0
