15

C	-0.61667	0.013566	-1.391662
C	0.0	0.0	0.0
Cl	0.288132	1.067251	-2.56099
H	1.090486	0.0	0.0
H	-0.462249	-0.994273	-1.769522
N	-2.022514	0.287526	-1.328407
H	-2.458047	0.064002	-2.213767
H	-2.154727	1.276175	-1.150831
N	-0.444151	-1.1745	0.676961
H	-1.424843	-1.102125	0.914789
H	0.107139	-1.312231	1.512343
N	-0.392282	1.266478	0.766527
O	-0.60778	2.302773	0.135627
O	-0.438166	1.178758	1.991635
Cl	3.324449	0.0	0.0
