15

C	-0.455059	0.079675	-1.455738
C	0.0	0.0	0.0
Cl	-0.187245	-1.55354	-2.250598
H	1.091028	0.0	0.0
H	-1.533402	0.229563	-1.530461
N	0.250874	1.145031	-2.061606
H	1.250502	1.045937	-1.897131
H	0.066206	1.208417	-3.052695
N	-0.529869	-1.090592	0.737013
H	-1.492863	-0.918318	0.993618
H	0.034032	-1.252199	1.559621
N	-0.456193	1.33663	0.590402
O	0.368204	2.207402	0.828543
O	-1.671686	1.435347	0.80112
Cl	3.363349	0.0	0.0
