15

C	-0.617882	0.119247	-1.386202
C	0.0	0.0	0.0
Cl	0.299589	1.241169	-2.479845
H	1.096106	0.0	0.0
H	-0.4787	-0.861988	-1.834139
N	-2.019911	0.408026	-1.299983
H	-2.137612	1.383497	-1.052002
H	-2.458952	0.255736	-2.198785
N	-0.448762	-1.219287	0.589292
H	0.099905	-1.41592	1.414295
H	-1.428708	-1.157671	0.833356
N	-0.388664	1.209509	0.856524
O	-0.580716	2.292956	0.303298
O	-0.459631	1.029231	2.069998
Cl	3.319707	0.0	0.0
