13

C	-0.562004	0.070248	-1.410939
C	0.0	0.0	0.0
Br	-0.536396	-1.583159	-2.442187
H	1.089714	0.0	0.0
H	-1.59737	0.408757	-1.394289
H	0.061011	0.778552	-1.953576
N	-0.561425	-1.20372	0.707987
O	0.066044	-2.256089	0.649003
O	-1.648612	-1.070171	1.292306
N	-0.392157	1.225383	0.64612
H	-1.271517	1.101758	1.132289
H	0.340429	1.473638	1.302233
H	2.772157	0.0	0.0
