13

C	-0.378149	-0.008309	-1.44307
C	0.0	0.0	0.0
Br	-2.297936	0.203781	-1.793657
H	1.102882	0.0	0.0
H	-0.078535	-0.943737	-1.905183
H	0.116665	0.823422	-1.94499
N	-0.398978	-1.225092	0.691824
O	-0.468152	-2.276343	0.039379
O	-0.503691	-1.168574	1.923369
N	-0.495231	1.156895	0.734375
H	-0.110196	1.968589	0.252621
H	-0.038707	1.127953	1.641461
H	2.609026	0.0	0.0
