13

C	-0.354803	0.01771	-1.454762
C	0.0	0.0	0.0
Br	-2.281039	0.300442	-1.802379
H	1.093673	0.0	0.0
H	-0.098469	-0.915461	-1.944191
H	0.15589	0.856405	-1.925906
N	-0.421376	-1.289909	0.626502
O	-0.647535	-1.321016	1.834173
O	-0.406844	-2.293312	-0.098928
N	-0.395968	1.121992	0.778259
H	-1.149339	1.647556	0.359169
H	0.415329	1.704624	0.945616
H	2.616624	0.0	0.0
