19

C	0.0	0.0	0.0
C	-0.25408	0.014737	-1.552508
Br	1.946659	0.0	0.0
H	0.37881	-0.779049	-1.943296
C	-0.274013	1.215039	0.89712
H	0.195071	2.101663	0.476412
H	-1.341666	1.387794	1.012406
H	0.163516	0.997121	1.871947
N	-0.668444	-1.204689	0.525959
O	-0.694111	-1.325832	1.775355
O	-0.665315	-2.203281	-0.25348
N	0.294736	1.266656	-2.180709
O	1.138207	1.136337	-3.068707
O	-0.196065	2.345685	-1.845009
C	-1.635622	-0.157584	-2.173503
H	-2.073265	-1.07681	-1.79158
H	-1.485913	-0.254876	-3.260537
H	-2.288004	0.688057	-1.972188
H	-2.008136	0.0	0.0
