19

C	0.0	0.0	0.0
C	-0.616875	0.002043	-1.391642
Br	1.932012	0.0	0.0
H	-1.709979	-0.088127	-1.165225
C	-0.422171	1.273137	0.725351
H	-0.200301	1.159665	1.787144
H	0.124195	2.132879	0.334243
H	-1.501442	1.401698	0.603618
N	-0.610428	-1.165168	0.67915
O	-0.315272	-2.296429	0.222841
O	-1.769667	-0.83117	1.187629
N	-0.279435	-1.185719	-2.235934
O	-1.198601	-1.944402	-2.539805
O	0.867773	-1.262783	-2.678495
C	-0.355958	1.237424	-2.230877
H	0.713751	1.412312	-2.357407
H	-0.820146	2.10731	-1.765445
H	-0.809913	1.105534	-3.217557
H	-2.918902	0.0	0.0
