19

C	0.0	0.0	0.0
C	-0.253654	0.049682	-1.550696
Br	1.946985	0.0	0.0
H	0.389871	-0.724863	-1.961178
C	-0.271624	1.189765	0.931751
H	0.195178	2.088435	0.533666
H	-1.339009	1.35694	1.05712
H	0.171564	0.944121	1.897073
N	-0.649355	-1.222156	0.501603
O	-0.675491	-1.368481	1.748897
O	-0.637941	-2.20426	-0.298401
N	0.279557	1.324205	-2.14398
O	1.120532	1.228085	-3.038595
O	-0.22002	2.388128	-1.774934
C	-1.631965	-0.126244	-2.177566
H	-2.293558	0.708445	-1.961621
H	-2.060428	-1.056365	-1.812756
H	-1.478581	-0.202578	-3.265213
H	-2.012071	0.0	0.0
