19

C	0.0	0.0	0.0
C	-0.244015	0.05225	-1.55162
Br	1.952176	0.0	0.0
H	0.354097	-0.764959	-1.948381
C	-0.269729	1.18597	0.937257
H	0.174812	2.089472	0.524652
H	-1.336657	1.336788	1.086681
H	0.198117	0.949682	1.893425
N	-0.661355	-1.220496	0.493826
O	-0.669498	-2.198538	-0.310381
O	-0.682448	-1.370659	1.740495
N	0.362275	1.283553	-2.166025
O	1.159522	1.11671	-3.090794
O	-0.041086	2.385259	-1.789113
C	-1.628155	-0.047536	-2.180993
H	-2.099822	-0.96499	-1.836518
H	-1.47803	-0.107149	-3.26986
H	-2.253107	0.811064	-1.947092
H	-2.002963	0.0	0.0
