16

C	0.0	0.0	0.0
C	-0.204472	0.031192	-1.562566
Cl	1.767086	0.0	0.0
H	0.508839	0.790839	-1.914687
H	-0.43844	-0.862513	0.477236
N	-0.43673	1.227788	0.721984
O	-0.448475	2.28505	0.095924
O	-0.61023	1.1153	1.929629
C	-1.524006	0.374938	-2.237017
H	-1.978531	1.26863	-1.820982
H	-2.241147	-0.429279	-2.105356
H	-1.279973	0.534565	-3.302117
N	0.236738	-1.31088	-2.017925
H	-0.347494	-1.609073	-2.789322
H	1.195793	-1.285289	-2.343127
F	-2.383704	0.0	0.0
