16

C	0.0	0.0	0.0
C	-0.460751	-0.117484	-1.484484
Cl	1.765925	0.0	0.0
H	0.454057	-0.247523	-2.072835
H	-0.360335	-0.849762	0.564467
N	-0.414506	1.203024	0.798109
O	-0.304526	2.311693	0.285303
O	-0.731067	0.991964	1.962798
C	-1.211862	1.081337	-2.065715
H	-1.493297	0.813629	-3.092348
H	-0.600254	1.984116	-2.102213
H	-2.108004	1.216963	-1.460658
N	-1.207427	-1.377218	-1.540142
H	-2.05259	-1.113241	-0.986031
H	-1.486823	-1.519978	-2.506489
F	-2.702345	0.0	0.0
