16

C	0.0	0.0	0.0
C	-0.490671	0.136238	-1.464346
Cl	1.763468	0.0	0.0
H	-1.515625	0.487094	-1.308731
H	-0.385149	-0.879527	0.497919
N	-0.431882	1.156676	0.852134
O	-0.503103	2.260987	0.31838
O	-0.575927	0.940862	2.049015
C	-0.581865	-1.261559	-2.049298
H	-1.363762	-1.785926	-1.498851
H	-0.867342	-1.190198	-3.101387
H	0.364388	-1.813722	-1.986358
N	0.253015	1.031484	-2.337862
H	0.220706	1.957788	-1.927598
H	1.22879	0.756624	-2.386701
F	-2.553009	0.0	0.0
