16

C	0.0	0.0	0.0
C	-0.503729	0.227936	-1.429048
Cl	1.772589	0.0	0.0
H	-1.479046	0.688855	-1.253042
H	-0.380025	-0.908989	0.446134
N	-0.422335	1.092341	0.945379
O	-0.474868	0.781715	2.132879
O	-0.591218	2.217543	0.49677
C	-0.79395	-1.137766	-2.041364
H	-1.10968	-1.020587	-3.08393
H	0.07806	-1.804134	-2.019268
H	-1.622073	-1.548679	-1.464075
N	0.380657	1.092865	-2.210343
H	-0.194248	1.620841	-2.852836
H	1.026479	0.533948	-2.75689
F	-2.575385	0.0	0.0
