16

C	0.0	0.0	0.0
C	-0.452674	-0.129989	-1.485877
Cl	1.773529	0.0	0.0
H	0.464469	-0.27642	-2.064244
H	-0.35354	-0.851259	0.566104
N	-0.418931	1.200006	0.797792
O	-0.704528	0.987454	1.970661
O	-0.343698	2.308792	0.278488
C	-1.193607	1.065675	-2.084613
H	-0.595165	1.977223	-2.099935
H	-2.103232	1.192903	-1.497516
H	-1.449058	0.802187	-3.117866
N	-1.207513	-1.383886	-1.536935
H	-2.054447	-1.113675	-0.98875
H	-1.475985	-1.53413	-2.505904
F	-2.688663	0.0	0.0
