14

C	0.0	0.0	0.0
C	-0.495974	0.083617	-1.436188
F	1.400724	0.0	0.0
H	-1.601696	0.037046	-1.382809
H	-0.300733	-0.967157	0.410958
N	-0.459853	1.153771	0.70111
H	-1.482486	1.139686	0.65143
H	-0.206163	1.056118	1.678111
N	-0.054656	-1.128872	-2.213829
O	-0.160552	-2.208267	-1.642037
O	0.334191	-0.968554	-3.367228
C	-0.043508	1.294236	-2.106557
N	0.301938	2.278167	-2.644842
Br	-3.611444	0.0	0.0
