14

C	0.0	0.0	0.0
C	-0.500434	-0.233858	-1.418025
F	1.39826	0.0	0.0
H	-1.607058	-0.244262	-1.353574
H	-0.305084	-0.848915	0.616868
N	-0.449407	1.286093	0.428593
H	-0.168641	1.412435	1.394797
H	-1.472465	1.26317	0.411854
N	-0.091666	-1.600315	-1.902547
O	-0.204453	-2.51843	-1.097572
O	0.277297	-1.716989	-3.067516
C	-0.022827	0.783327	-2.343746
N	0.348542	1.606016	-3.093874
Br	-3.607788	0.0	0.0
