13

C	0.0	0.0	0.0
C	-0.541634	-0.155401	-1.40913
F	1.347034	0.0	0.0
H	-1.610285	-0.411589	-1.32191
H	-0.486079	0.820631	-1.900133
C	-0.451498	1.234573	0.655356
N	-0.652733	2.300083	1.106209
N	-0.371692	-1.198412	0.877945
O	-0.609155	-2.249703	0.303044
O	-0.269035	-1.018539	2.084922
C	0.21949	-1.124717	-2.189298
N	0.825762	-1.865909	-2.865103
Br	-3.537501	0.0	0.0
