17

C	0.0	0.0	0.0
C	-0.51175	0.113871	-1.442136
F	1.377827	0.0	0.0
H	-1.53931	0.490404	-1.386426
C	-0.333522	1.203895	0.821094
N	-0.482399	2.070217	1.600667
N	-0.476371	-1.209962	0.587429
H	-1.501131	-1.175759	0.527701
H	-0.232131	-1.20643	1.573046
C	-0.447379	-1.189847	-2.201625
H	-0.702576	-1.019265	-3.248035
H	0.546954	-1.633293	-2.146764
H	-1.174542	-1.875542	-1.771095
N	0.301619	1.179991	-2.120067
O	0.998032	0.869533	-3.086844
O	0.216524	2.316084	-1.656222
Br	-3.632957	0.0	0.0
