15

C	-0.412029	-0.038367	-1.464356
C	0.0	0.0	0.0
Br	-2.461469	-0.647716	-1.473788
H	1.095391	0.0	0.0
H	-0.331287	-0.910814	0.50167
N	-0.270035	1.194759	-2.079968
H	-0.504335	1.192061	-3.061148
H	-0.710681	1.96178	-1.590223
C	0.317483	-1.137748	-2.202377
H	1.38865	-0.927932	-2.118986
H	0.012577	-1.170007	-3.251486
H	0.107109	-2.106637	-1.750701
C	-0.530779	1.161994	0.695031
N	-0.945783	2.127084	1.219925
Cl	3.357138	0.0	0.0
