15

C	-0.53217	0.034895	-1.447691
C	0.0	0.0	0.0
Br	-0.09243	-1.724776	-2.225548
H	1.093298	0.0	0.0
H	-0.347523	-0.900584	0.514661
N	-1.968679	0.18671	-1.583374
H	-2.221894	1.103301	-1.223536
H	-2.438854	-0.507772	-1.011456
C	0.182882	1.108257	-2.244574
H	-0.138888	1.073739	-3.286263
H	1.262825	0.972199	-2.166582
H	-0.071525	2.089254	-1.826918
C	-0.502493	1.174519	0.708
N	-0.954624	2.136632	1.208759
Cl	3.374238	0.0	0.0
