15

C	-0.420135	-0.014473	-1.462584
C	0.0	0.0	0.0
Br	-2.534064	-0.044621	-1.481675
H	1.095227	0.0	0.0
H	-0.342699	0.918518	0.486202
N	0.05304	1.128948	-2.103848
H	-0.213552	1.188698	-3.075187
H	-0.137605	1.988578	-1.612143
C	0.008609	-1.274871	-2.180089
H	1.099118	-1.32908	-2.097684
H	-0.440535	-2.155687	-1.722567
H	-0.283674	-1.239417	-3.23238
C	-0.494388	-1.145596	0.750118
N	-0.886446	-2.073189	1.353462
Cl	3.352474	0.0	0.0
