16

C	-0.464824	-0.108789	-1.453091
C	0.0	0.0	0.0
Cl	-0.110732	-1.796233	-1.99875
H	1.091572	0.0	0.0
H	-0.373661	-0.842016	0.594671
C	-1.955284	0.121997	-1.61455
H	-2.194104	1.135911	-1.284231
H	-2.228739	0.009457	-2.664247
H	-2.523721	-0.593664	-1.014225
N	0.263907	0.7897	-2.329937
H	1.255027	0.578848	-2.215828
H	0.132477	1.713824	-1.923334
N	-0.414224	1.314874	0.520608
H	-1.208145	1.223559	1.141761
H	0.354721	1.696159	1.056997
Cl	3.50971	0.0	0.0
