16

C	-0.261052	-0.033174	-1.508756
C	0.0	0.0	0.0
Cl	-2.070466	-0.14581	-1.80154
H	1.09694	0.0	0.0
H	-0.384607	0.931083	0.42672
C	0.245371	1.237991	-2.157154
H	1.313508	1.330254	-1.935023
H	-0.273979	2.109814	-1.755303
H	0.095064	1.189554	-3.236606
N	0.340336	-1.17333	-2.169681
H	1.348927	-1.062053	-2.055402
H	0.083116	-2.009637	-1.654574
N	-0.467481	-1.139032	0.77365
H	-1.377038	-1.448758	0.453212
H	0.19369	-1.89985	0.704169
Cl	3.480964	0.0	0.0
