16

C	-0.561001	-0.076347	-1.425551
C	0.0	0.0	0.0
Cl	0.115057	-1.622828	-2.151024
H	1.091613	0.0	0.0
H	-0.322448	-0.90533	0.524646
C	-2.071356	-0.275604	-1.443414
H	-2.418954	-0.383311	-2.47437
H	-2.35963	-1.170573	-0.891165
H	-2.573239	0.593827	-1.00762
N	-0.151231	1.038419	-2.210285
H	-0.824055	1.317079	-2.906301
H	0.157675	1.813041	-1.64319
N	-0.422811	1.178253	0.757072
H	-1.347637	1.500437	0.51523
H	0.249457	1.926882	0.657475
Cl	3.586772	0.0	0.0
