16

C	-0.324856	-0.121008	-1.49359
C	0.0	0.0	0.0
F	-1.660949	-0.489996	-1.679296
H	1.097389	0.0	0.0
C	-0.2213	1.203809	-2.163554
N	-0.111229	2.24089	-2.704715
N	0.512722	-1.118673	-2.061329
H	1.460546	-1.035146	-1.693797
H	0.527895	-1.067472	-3.072119
C	-0.472031	-1.20786	0.671258
N	-0.853236	-2.144476	1.268356
C	-0.553032	1.251612	0.67272
H	-1.636741	1.323941	0.544726
H	-0.325828	1.219486	1.739702
H	-0.078021	2.140259	0.254449
Cl	3.284583	0.0	0.0
