16

C	-0.489319	0.015321	-1.453241
C	0.0	0.0	0.0
F	-0.057562	1.181103	-2.053083
H	1.095642	0.0	0.0
C	0.09849	-1.10639	-2.230419
N	0.447857	-2.05494	-2.829301
N	-1.928595	0.019766	-1.520609
H	-2.229114	-0.121055	-2.47748
H	-2.30131	-0.732448	-0.953501
C	-0.494097	-1.215895	0.637835
N	-0.968041	-2.170998	1.133169
C	-0.462265	1.247484	0.758521
H	-0.076751	2.128308	0.24576
H	-0.032412	1.224268	1.760915
H	-1.549072	1.312671	0.823668
Cl	3.286124	0.0	0.0
