16

C	-0.301718	-0.050193	-1.508968
C	0.0	0.0	0.0
F	-1.658978	-0.295404	-1.703042
H	1.096658	0.0	0.0
C	-0.025874	1.269188	-2.123141
N	0.15593	2.31622	-2.621753
N	0.435802	-1.056069	-2.220437
H	0.223524	-1.952298	-1.790574
H	1.428203	-0.878628	-2.055612
C	-0.463068	-1.255123	0.584048
N	-0.836181	-2.265857	1.052975
C	-0.566039	1.208298	0.736911
H	-0.112534	2.121882	0.345677
H	-1.653288	1.267667	0.627952
H	-0.318589	1.139855	1.798436
Cl	3.2789	0.0	0.0
