16

C	-0.470435	-0.030324	-1.45784
C	0.0	0.0	0.0
F	0.114786	1.071991	-2.099056
H	1.095244	0.0	0.0
C	0.009176	-1.232998	-2.170059
N	0.32315	-2.178395	-2.785199
N	-1.891517	0.009149	-1.565774
H	-2.241037	0.844466	-1.115106
H	-2.164693	0.020773	-2.539504
C	-0.489423	-1.186451	0.695967
N	-0.880739	-2.117442	1.296942
C	-0.438682	1.276676	0.726212
H	-1.514967	1.307268	0.922953
H	0.083082	1.323413	1.683718
H	-0.13616	2.145544	0.139802
Cl	3.289927	0.0	0.0
