16

C	-0.326597	0.041695	-1.497516
C	0.0	0.0	0.0
F	-0.078652	-1.238844	-2.029259
H	1.097784	0.0	0.0
C	-1.765039	0.286831	-1.759626
N	-2.910315	0.469026	-1.946034
N	0.465859	1.042737	-2.098455
H	1.439767	0.913177	-1.820569
H	0.376165	1.024244	-3.106415
C	-0.522197	-1.214804	0.612468
N	-0.960805	-2.159302	1.155608
C	-0.486733	1.244946	0.741534
H	-0.077593	2.132435	0.259161
H	-1.578408	1.307788	0.752515
H	-0.124466	1.212218	1.770388
Cl	3.302022	0.0	0.0
