16

C	-0.509293	-0.010586	-1.454982
C	0.0	0.0	0.0
F	-0.080401	1.165961	-2.037704
H	1.095719	0.0	0.0
C	0.07438	-1.141577	-2.210278
N	0.49622	-2.02508	-2.856819
N	-1.939808	-0.07271	-1.635047
H	-2.271075	-1.013964	-1.461361
H	-2.389284	0.554456	-0.97866
C	-0.499882	-1.203871	0.656481
N	-0.962785	-2.154198	1.17059
C	-0.44107	1.25702	0.754706
H	-0.075273	2.136646	0.225818
H	0.017026	1.244359	1.74462
H	-1.526192	1.325205	0.88155
Cl	3.288051	0.0	0.0
