16

C	-0.484773	-0.012609	-1.451854
C	0.0	0.0	0.0
F	0.126113	1.073689	-2.097344
H	1.095219	0.0	0.0
C	-0.049798	-1.227332	-2.170799
N	0.257435	-2.210267	-2.733921
N	-1.903676	0.07029	-1.544438
H	-2.191795	0.084803	-2.515531
H	-2.225824	0.915352	-1.090039
C	-0.491157	-1.185612	0.696364
N	-0.885803	-2.114825	1.295962
C	-0.429768	1.275338	0.734678
H	0.108422	1.320291	1.682337
H	-1.502291	1.304471	0.947923
H	-0.13807	2.145553	0.145559
Cl	3.293912	0.0	0.0
