13

C	0.0	0.0	0.0
C	-0.544008	-0.257736	-1.403064
F	1.345983	0.0	0.0
H	-1.620305	0.137837	-1.217167
H	-0.411751	-0.692388	0.723423
N	-0.387043	1.375054	0.474712
O	-0.510821	2.251563	-0.371116
O	-0.41536	1.536698	1.689909
C	-0.738986	-1.68035	-1.612065
N	-0.885319	-2.842549	-1.733743
C	0.308755	0.311015	-2.439401
N	1.037001	0.714735	-3.26778
F	-2.495511	0.0	0.0
