13

C	0.0	0.0	0.0
C	-0.433232	-0.487144	-1.384215
F	1.349663	0.0	0.0
H	0.281643	-0.055623	-2.09578
H	-0.400594	-0.564511	0.829437
N	-0.376374	1.435022	0.20987
O	-0.508719	1.80335	1.370917
O	-0.364097	2.161583	-0.780441
C	-1.798728	-0.131014	-1.844303
N	-2.526526	0.033691	-2.763527
C	-0.252334	-1.942531	-1.409446
N	-0.068231	-3.102402	-1.426275
F	-2.359937	0.0	0.0
