16

C	-0.565154	-0.015103	-1.423366
C	0.0	0.0	0.0
Br	0.189346	1.420445	-2.487174
H	1.093581	0.0	0.0
N	-0.078627	-1.319139	-2.122428
O	-0.739038	-1.669232	-3.099054
O	0.895276	-1.899598	-1.66612
N	-1.973831	0.055949	-1.421347
H	-2.300192	-0.667189	-0.785061
H	-2.329035	-0.118601	-2.353609
N	-0.528356	-1.202646	0.678007
H	-0.800361	-0.969478	1.624751
H	0.244084	-1.857866	0.736188
C	-0.467879	1.208932	0.675912
N	-0.811601	2.164469	1.265893
Cl	3.314627	0.0	0.0
