16

C	-0.573435	-0.018332	-1.433709
C	0.0	0.0	0.0
Br	0.24561	1.390237	-2.483138
H	1.093552	0.0	0.0
N	-0.143646	-1.35172	-2.085992
O	0.830809	-1.912861	-1.598666
O	-0.790633	-1.73424	-3.052305
N	-1.990209	0.06634	-1.539649
H	-2.375569	-0.562065	-0.838574
H	-2.285811	1.014594	-1.344817
N	-0.559604	-1.179755	0.684936
H	0.181452	-1.872432	0.701829
H	-0.779655	-0.948343	1.645634
C	-0.487593	1.219769	0.639971
N	-0.926605	2.163908	1.184482
Cl	3.308846	0.0	0.0
