16

C	-0.442783	-0.009137	-1.456633
C	0.0	0.0	0.0
Br	-2.5407	0.242335	-1.467674
H	1.09416	0.0	0.0
N	-0.006215	1.206245	-2.248751
O	-0.054447	1.095845	-3.469196
O	0.350576	2.191224	-1.618066
N	-0.023896	-1.136445	-2.093004
H	-0.114886	-1.955015	-1.507393
H	-0.289537	-1.221619	-3.061031
N	-0.388576	-1.287518	0.579449
H	-1.3026	-1.222556	1.011471
H	0.299787	-1.528716	1.283035
C	-0.49203	1.14046	0.774501
N	-0.889329	1.967296	1.509093
Cl	3.230453	0.0	0.0
