16

C	-0.531375	-0.027573	-1.446455
C	0.0	0.0	0.0
Br	0.417413	1.251662	-2.561095
H	1.092043	0.0	0.0
N	-0.178985	-1.412034	-2.073168
O	0.844837	-1.969275	-1.71019
O	-0.97456	-1.837678	-2.911264
N	-1.917845	0.231575	-1.529574
H	-2.428179	-0.342538	-0.867624
H	-2.255321	0.036831	-2.463697
N	-0.403702	-1.130724	0.819983
H	-1.360083	-1.428587	0.681268
H	0.235587	-1.895359	0.653758
C	-0.464633	1.247942	0.620857
N	-0.84524	2.221575	1.15555
Cl	3.297276	0.0	0.0
