16

C	-0.44434	-0.012775	-1.457213
C	0.0	0.0	0.0
Br	-2.526615	0.29885	-1.486055
H	1.09345	0.0	0.0
N	0.038408	1.180705	-2.257596
O	0.40847	2.16452	-1.633072
O	0.008132	1.055509	-3.477254
N	-0.057006	-1.161466	-2.079628
H	-0.195514	-1.967568	-1.485909
H	-0.334509	-1.247024	-3.044566
N	-0.393367	-1.281073	0.590938
H	0.317913	-1.541032	1.264242
H	-1.286991	-1.199908	1.060439
C	-0.485296	1.147247	0.76752
N	-0.925043	1.981727	1.468205
Cl	3.233621	0.0	0.0
