16

C	-0.23406	-0.013325	-1.532163
C	0.0	0.0	0.0
Br	-0.064746	-1.950456	-2.191164
H	1.098302	0.0	0.0
N	-1.669615	0.290441	-1.933494
O	-2.541698	-0.008239	-1.124009
O	-1.85453	0.785202	-3.03932
N	0.61909	0.8816	-2.134387
H	1.577494	0.780802	-1.793603
H	0.54156	0.927716	-3.139206
N	-0.497416	-1.061024	0.830659
H	0.111808	-1.862729	0.739202
H	-1.44146	-1.31171	0.566286
C	-0.468533	1.302408	0.488781
N	-0.857926	2.343266	0.869055
Cl	3.265199	0.0	0.0
