14

C	-0.153919	0.014828	-1.515681
C	0.0	0.0	0.0
F	0.145352	1.29767	-2.007956
H	1.092393	0.0	0.0
H	-0.345552	-0.94459	0.415879
N	0.785946	-0.949093	-1.958759
H	0.904231	-0.890683	-2.9608
H	1.674387	-0.750678	-1.458972
C	-1.51258	-0.283563	-2.024754
N	-2.588581	-0.542197	-2.41762
N	-0.644795	1.077043	0.752399
O	-0.542773	1.005678	1.978262
O	-1.250685	1.970034	0.157921
F	2.601011	0.0	0.0
