14

C	-0.172222	0.105197	-1.51989
C	0.0	0.0	0.0
F	-0.140262	1.483528	-1.761388
H	1.090573	0.0	0.0
H	-0.475302	0.801419	0.555393
N	0.902296	-0.49399	-2.244807
H	0.723668	-1.487471	-2.319185
H	1.7418	-0.374549	-1.64598
C	-1.483846	-0.364352	-2.024531
N	-2.534756	-0.708332	-2.418129
N	-0.445367	-1.281315	0.537938
O	-0.758784	-1.327636	1.726875
O	-0.433021	-2.264885	-0.2095
F	2.581849	0.0	0.0
