14

C	-0.238943	0.1047	-1.50163
C	0.0	0.0	0.0
F	-1.436434	0.815519	-1.75698
H	1.089546	0.0	0.0
H	-0.392502	0.897495	0.470273
N	0.869065	0.842127	-1.997075
H	1.724347	0.605007	-1.455191
H	0.995972	0.724396	-2.992469
C	-0.449225	-1.169264	-2.238851
N	-0.591082	-2.072585	-2.975831
N	-0.560212	-1.155706	0.696268
O	-0.388823	-2.273608	0.208989
O	-1.116595	-0.949488	1.77862
F	2.611881	0.0	0.0
