11
Coordinates from ORCA-job run
  C   -0.71656982115248      0.43612909792657     -0.13813906458476
  C   0.29249675850830     -0.33129349633638      0.30496005487456
  H   -0.56271479643752      1.09419533400290     -0.99185946631414
  H   0.12448405066415     -0.97765348379223      1.16696120209248
  N   -1.97823797044758      0.57321555203775      0.45631313165776
  H   -2.72472611877331      0.67717462074354     -0.21425573119926
  H   -2.18740663506740     -0.16862230704570      1.10912181916273
  C   1.66400706370727     -0.32731784506152     -0.30217669079970
  H   1.95915334510837     -1.32584549372445     -0.63909069813317
  H   2.42194247216760      0.00703788192857      0.41337508169824
  H   1.70657165172259      0.34198013932094     -1.16520963845474
