11
Coordinates from ORCA-job run
  C   -0.81701650801719     -0.10583905721220     -0.21041050151339
  C   0.37517997566015      0.12432287693316      0.36325925486378
  H   -0.86416819381502     -0.56285834429836     -1.19754645495322
  H   0.40534063294852      0.57548325596037      1.35548691106965
  N   -2.07344057387312      0.08980993441221      0.37896490665177
  H   -2.03693301316854      0.68781570460676      1.19212890252824
  H   -2.77136688354846      0.41740666549139     -0.27161572427396
  C   1.68427694422261     -0.23402904514924     -0.27533915837345
  H   2.33438241916225      0.63995592180203     -0.38085763281861
  H   1.52989249061629     -0.65693231833465     -1.27125224307437
  H   2.23385270981251     -0.97313559421148      0.31618173989355
