11
Coordinates from ORCA-job run
  C   -0.99707562016746     -0.48803935224737     -0.15863846779723
  C   0.29922178997401     -0.83733169071424     -0.23686253982226
  H   -1.77754502875563     -1.21814106915780     -0.35504251345944
  H   0.53472578153840     -1.86471767477807     -0.49054194889694
  N   -1.46703153795692      0.80977757050505      0.06608396197078
  H   -0.80523417193913      1.40661857665362      0.53990045800813
  H   -2.36954239107971      0.84243213294159      0.51319123217594
  C   1.41988072212975      0.14062618253698     -0.01439429832055
  H   1.36380660261273      0.98383458438727     -0.71176145401772
  H   1.40618702671021      0.55778106730314      1.00023291089418
  H   2.39260682693375     -0.33284032743015     -0.15116734073490
