11
Coordinates from ORCA-job run
  C   -0.78963048935275      0.21974718617772     -0.22510139281071
  C   0.37227928184537     -0.07600738472805      0.37997716957729
  H   -0.83014346720650      0.29984385181751     -1.31023602035087
  H   0.39882645762063     -0.14385607372821      1.46794426080410
  N   -1.99426158384005      0.55384973172322      0.40793532322809
  H   -2.80786480422071      0.20022309896233     -0.07221680894337
  H   -2.01293717776939      0.28978138200977      1.38260527641588
  C   1.65895783560130     -0.29301853501645     -0.35969133793944
  H   2.41500978869641      0.44819005205318     -0.08177692885682
  H   2.08398218712842     -1.27926443291598     -0.14909836266181
  H   1.50578197149728     -0.21948887635504     -1.43934117846234
