11
Coordinates from ORCA-job run
  C   -0.97031057139494     -0.51013741708420      0.23746511155915
  C   0.33583688539239     -0.82925289494978      0.21233819796359
  H   -1.71545432698104     -1.25783206886019      0.49525111395669
  H   0.61420499044500     -1.85033923940692      0.44748764789059
  N   -1.48680185280799      0.77618396033012      0.05131539735998
  H   -2.42117132988254      0.78695908688456     -0.32613303444575
  H   -0.87728621295126      1.38750900915267     -0.47170409223186
  C   1.41322201206715      0.17304380223643     -0.09843770411014
  H   1.30606026639902      0.59232453974631     -1.10655379193809
  H   1.39813209967314      1.01271612065298      0.60527660229472
  H   2.40356804004107     -0.28017489870200     -0.04530544829889
