11
Coordinates from ORCA-job run
  C   -0.98876036340777     -0.50275413181325     -0.16488959876087
  C   0.31030246230044     -0.78117015930408     -0.37425202759426
  H   -1.75904080309049     -1.20692249400912     -0.46743792978995
  H   0.55712218742669     -1.71953324653256     -0.85791505067257
  N   -1.46983957355294      0.61497503354451      0.52367380311016
  H   -2.39035397754479      0.90559115865430      0.23457336478322
  H   -0.82892671646565      1.39446334554278      0.53585276459565
  C   1.41940529110092      0.13876868230643      0.05613236241096
  H   1.40085506917991      0.31377846555316      1.13762749222813
  H   1.35289421826862      1.11902991836710     -0.43198841512898
  H   2.39734220578506     -0.27522657230928     -0.19137676518149
