11
Coordinates from ORCA-job run
  C   -0.99257874514998     -0.51616001979609      0.07800387042915
  C   0.30660709459254     -0.84801124006980      0.18099121025155
  H   -1.76579266369333     -1.26297860667243      0.23650790318937
  H   0.55061411915242     -1.87302194327054      0.43633851314481
  N   -1.47291388605511      0.73223922315088     -0.32971864448628
  H   -0.82053085839370      1.48820298138756     -0.18296378710617
  H   -2.38123217646908      0.95898927286010      0.04307687135997
  C   1.41973081646547      0.13270214980219     -0.06585962937488
  H   1.38665747685737      0.97678834872726      0.63419369453261
  H   1.37339147108158      0.54926338585020     -1.07817591970232
  H   2.39604735161183     -0.33901355196934      0.04960591776218
