15

C	0.0	0.0	0.0
C	-0.502854	-0.220093	-1.416814
Br	1.965922	0.0	0.0
H	-1.582036	-0.385656	-1.319571
H	-0.288097	0.992741	0.351236
H	-0.046144	-1.135987	-1.809823
C	-0.492163	-1.063195	0.960885
H	-1.585682	-1.03489	0.941492
H	-0.13908	-0.877488	1.977939
H	-0.142504	-2.050598	0.6467
C	-0.258227	0.954818	-2.355901
H	-0.528159	0.690718	-3.381883
H	0.789398	1.267845	-2.35261
H	-0.880612	1.802671	-2.05998
Cl	-3.828597	0.0	0.0
