12

C	-0.439331	0.006042	-1.434388
C	0.0	0.0	0.0
Cl	-2.244837	-0.003131	-1.62042
H	1.092731	0.0	0.0
H	-0.097257	0.927193	-1.905944
H	-0.370301	-0.851845	0.566133
C	0.085089	-1.150658	-2.155617
N	0.458215	-2.081193	-2.766849
N	-0.41132	1.21258	0.6762
O	-0.402633	2.268375	0.026166
O	-0.621405	1.14454	1.894207
H	2.55203	0.0	0.0
