12

C	-0.409039	0.05855	-1.441706
C	0.0	0.0	0.0
Cl	-2.17905	0.371218	-1.670135
H	1.093102	0.0	0.0
H	0.09952	0.931812	-1.85763
H	-0.322837	0.893046	0.531997
C	-0.02921	-1.0834	-2.269885
N	0.279352	-1.903976	-3.050227
N	-0.501028	-1.147041	0.729756
O	-0.695779	-2.203361	0.115441
O	-0.605016	-1.024544	1.956872
H	2.572389	0.0	0.0
