12

C	-0.428059	0.186977	-1.424869
C	0.0	0.0	0.0
Cl	-2.207076	0.478963	-1.601901
H	1.09123	0.0	0.0
H	0.056024	1.109095	-1.761193
H	-0.320737	0.839334	0.615715
C	-0.037664	-0.861715	-2.365749
N	0.269802	-1.602129	-3.224044
N	-0.490945	-1.212047	0.625347
O	-0.552935	-1.214611	1.860479
O	-0.711099	-2.200407	-0.085557
H	2.569625	0.0	0.0
