17

C	-0.295252	0.066395	-1.494342
C	0.0	0.0	0.0
Br	-0.328439	-2.01344	-2.152179
H	1.095487	0.0	0.0
H	-0.395096	-0.910459	0.44937
C	-1.674689	0.511839	-1.934061
H	-1.789096	0.424718	-3.017374
H	-1.805675	1.559759	-1.649421
H	-2.446216	-0.093349	-1.457985
N	0.727304	0.760596	-2.107217
H	1.653289	0.548095	-1.708603
H	0.706577	0.758773	-3.116788
C	-0.474722	1.248011	0.74037
H	-0.063264	1.234395	1.754056
H	-1.565426	1.319203	0.815707
H	-0.095804	2.146875	0.248298
H	3.007817	0.0	0.0
