17

C	-0.251389	-0.020427	-1.485127
C	0.0	0.0	0.0
Br	-2.262284	-0.340685	-1.874861
H	1.099643	0.0	0.0
H	-0.326325	-0.957071	0.416691
C	0.068753	1.302594	-2.158141
H	-0.048394	1.218223	-3.242153
H	1.117353	1.519686	-1.919852
H	-0.565569	2.117378	-1.805768
N	0.464552	-1.136185	-2.022402
H	1.394113	-1.125319	-1.586546
H	0.571621	-1.038496	-3.026029
C	-0.553093	1.174853	0.781987
H	-0.075529	2.110542	0.481545
H	-0.337868	1.037413	1.845551
H	-1.636476	1.277151	0.660954
H	2.939517	0.0	0.0
