15

C	-0.417981	0.015091	-1.459348
C	0.0	0.0	0.0
F	-0.046556	1.231446	-2.021373
H	1.095124	0.0	0.0
H	0.094512	-0.777265	-2.004865
C	-1.879081	-0.115699	-1.622156
N	-3.045599	-0.20664	-1.723069
N	-0.387376	-1.262617	0.58682
O	-0.501093	-2.243271	-0.175171
O	-0.453662	-1.341845	1.822071
C	-0.480719	1.183295	0.802641
H	0.013367	1.175744	1.773683
H	-1.564887	1.171686	0.952794
H	-0.194712	2.096975	0.27949
H	2.529884	0.0	0.0
