15

C	-0.404202	0.113156	-1.440452
C	0.0	0.0	0.0
F	-1.787258	0.281195	-1.594148
H	1.092195	0.0	0.0
H	0.069343	1.027783	-1.813818
C	0.01838	-0.972773	-2.339312
N	0.335785	-1.749944	-3.158894
N	-0.441881	-1.23666	0.626321
O	-0.646753	-2.225357	-0.089547
O	-0.479507	-1.267378	1.864161
C	-0.408504	1.212169	0.811219
H	0.072306	1.164499	1.786854
H	-0.046328	2.110088	0.303826
H	-1.491237	1.282663	0.941148
H	2.552761	0.0	0.0
