15

C	-0.401911	0.009095	-1.445448
C	0.0	0.0	0.0
F	-1.781931	0.178787	-1.615391
H	1.093052	0.0	0.0
H	0.08296	0.887054	-1.886192
C	0.011702	-1.147163	-2.25767
N	0.316923	-1.9602	-3.046856
N	-0.457449	-1.182345	0.713632
O	-0.481451	-1.127577	1.95105
O	-0.705944	-2.211808	0.068542
C	-0.400668	1.272006	0.719988
H	0.075607	1.290402	1.699109
H	-1.483332	1.361438	0.838421
H	-0.026319	2.126997	0.150212
H	2.554739	0.0	0.0
