16

C	0.0	0.0	0.0
C	-0.460881	0.010269	-1.466934
Br	1.917319	0.0	0.0
H	0.398772	-0.283442	-2.081618
H	-0.331126	-0.907912	0.483436
N	-0.420999	1.11349	0.910665
O	-0.394915	2.265574	0.491239
O	-0.629517	0.794711	2.073899
C	-1.047319	1.288088	-2.028083
H	-1.323385	1.117913	-3.068087
H	-1.92535	1.526552	-1.436054
H	-0.308505	2.087696	-1.975418
N	-1.375583	-1.173923	-1.692248
O	-1.077418	-2.217991	-1.120422
O	-2.211752	-1.090939	-2.580989
F	-2.353633	0.0	0.0
