16

C	0.0	0.0	0.0
C	-0.436323	0.441741	-1.408056
Br	1.9436	0.0	0.0
H	0.439771	0.348801	-2.063543
H	-0.321783	-1.009445	0.204141
N	-0.408857	0.8118	1.187491
O	-0.601134	0.177139	2.216818
O	-0.385677	2.034922	1.106418
C	-1.031499	1.819151	-1.589403
H	-1.276174	1.952349	-2.644674
H	-0.308198	2.577308	-1.289971
H	-1.928021	1.871317	-0.979575
N	-1.331747	-0.631178	-1.985902
O	-2.186344	-0.297556	-2.79638
O	-1.003984	-1.795236	-1.766789
F	-2.322477	0.0	0.0
