16

C	0.0	0.0	0.0
C	-0.541342	0.222667	-1.408871
Br	1.952465	0.0	0.0
H	-1.516761	0.704808	-1.216608
H	-0.335293	-0.953595	0.384766
N	-0.442383	1.00195	1.035615
O	-0.739609	2.131528	0.687463
O	-0.396625	0.59059	2.191742
C	-0.799698	-1.118561	-2.062475
H	0.094954	-1.748461	-2.085735
H	-1.155239	-0.990011	-3.084151
H	-1.592487	-1.557379	-1.457701
N	0.325033	1.102007	-2.2583
O	0.643129	0.700286	-3.382028
O	0.633503	2.205529	-1.814816
F	-2.526529	0.0	0.0
