16

C	0.0	0.0	0.0
C	-0.612217	0.185129	-1.37407
Br	1.944181	0.0	0.0
H	-1.7162	0.226769	-1.059547
H	-0.354735	-0.936611	0.416602
N	-0.459925	1.060289	0.959972
O	-0.542955	0.728906	2.13694
O	-0.644209	2.185725	0.511707
C	-0.309693	-0.975765	-2.300178
H	-0.851651	-0.838033	-3.240137
H	-0.675206	-1.894631	-1.835495
H	0.758319	-1.077562	-2.513468
N	-0.255468	1.444559	-2.091393
O	-1.191463	2.049074	-2.614768
O	0.926021	1.771178	-2.217057
F	-2.697427	0.0	0.0
