16

C	0.0	0.0	0.0
C	-0.573407	0.191656	-1.40392
Br	1.92541	0.0	0.0
H	-1.603936	0.535638	-1.181455
H	-0.369423	-0.929747	0.412925
N	-0.431356	1.056975	0.975989
O	-0.552213	0.693211	2.138762
O	-0.5276	2.203591	0.562333
C	-0.629955	-1.145613	-2.111616
H	-1.377481	-1.726137	-1.5741
H	0.335265	-1.653834	-2.130924
H	-0.969478	-1.017688	-3.142537
N	0.147592	1.180024	-2.260894
O	1.137521	0.796474	-2.893863
O	-0.324167	2.313975	-2.34724
F	-2.590136	0.0	0.0
