16

C	0.0	0.0	0.0
C	-0.427932	-0.216746	-1.46513
Br	1.959126	0.0	0.0
H	0.4615	-0.541537	-2.025404
H	-0.316393	-0.81841	0.627818
N	-0.396382	1.256305	0.706291
O	-0.617094	1.141989	1.904717
O	-0.327068	2.321111	0.101605
C	-1.079949	0.928885	-2.207389
H	-1.307498	0.608307	-3.224168
H	-1.98865	1.178069	-1.669323
H	-0.398034	1.77704	-2.244929
N	-1.281699	-1.466747	-1.519009
O	-2.118544	-1.551811	-2.408398
O	-0.9469	-2.398386	-0.791062
F	-2.304357	0.0	0.0
