16

C	0.0	0.0	0.0
C	-0.435813	0.041432	-1.476132
Br	1.941543	0.0	0.0
H	0.4439	-0.20606	-2.084936
H	-0.32485	-0.91411	0.470999
N	-0.408102	1.107706	0.91986
O	-0.389724	2.26264	0.508504
O	-0.598421	0.775526	2.082844
C	-1.055154	1.307956	-2.019853
H	-0.35291	2.13427	-1.919703
H	-1.286149	1.15642	-3.074656
H	-1.960298	1.493294	-1.45108
N	-1.309998	-1.162906	-1.745594
O	-0.993421	-2.212044	-1.190918
O	-2.136163	-1.081374	-2.64583
F	-2.321147	0.0	0.0
