16

C	0.0	0.0	0.0
C	-0.449058	0.192576	-1.458605
Br	1.930712	0.0	0.0
H	0.420596	-0.017369	-2.094387
H	-0.326628	-0.960945	0.364842
N	-0.426108	0.989156	1.039003
O	-0.452278	2.180929	0.757037
O	-0.584791	0.526435	2.161697
C	-1.037445	1.520672	-1.874872
H	-0.317036	2.314801	-1.675678
H	-1.947995	1.673119	-1.304373
H	-1.252824	1.49046	-2.943043
N	-1.350716	-0.961476	-1.837326
O	-2.18464	-0.776016	-2.712807
O	-1.041379	-2.066556	-1.397716
F	-2.336463	0.0	0.0
