15

C	-0.208975	-0.040807	-1.509434
C	0.0	0.0	0.0
Cl	-1.951341	-0.350886	-1.970036
H	1.0978	0.0	0.0
H	0.010244	0.949306	-1.914034
C	0.701872	-1.077279	-2.136101
H	1.696822	-0.880146	-1.714326
H	0.386062	-2.085074	-1.856681
H	0.702027	-1.004079	-3.2257
N	-0.405468	-1.190435	0.736217
H	0.37789	-1.831364	0.724965
H	-1.210368	-1.630407	0.305685
C	-0.578263	1.204201	0.582261
N	-1.041218	2.185994	1.033965
F	2.616877	0.0	0.0
