16

C	-0.559586	0.069424	-1.406095
C	0.0	0.0	0.0
Br	0.150273	-1.401179	-2.484603
H	1.096719	0.0	0.0
H	-1.639102	-0.077959	-1.381393
C	-0.171563	1.382239	-2.065146
H	0.909504	1.525766	-2.000824
H	-0.463928	1.383427	-3.116306
H	-0.686564	2.209325	-1.568856
N	-0.480343	-1.218735	0.735038
O	-1.383868	-1.900784	0.253335
O	0.043111	-1.418836	1.830925
N	-0.517945	1.124798	0.796052
H	-0.211413	0.939409	1.748898
H	0.027162	1.935601	0.513956
Br	3.516462	0.0	0.0
