16

C	-0.563844	0.07736	-1.413374
C	0.0	0.0	0.0
Br	-0.295269	-1.606322	-2.380548
H	1.090944	0.0	0.0
H	-1.649653	0.19311	-1.360274
C	0.104631	1.210271	-2.167767
H	1.18575	1.055741	-2.177678
H	-0.106941	2.146123	-1.648803
H	-0.267238	1.267903	-3.19259
N	-0.504823	-1.265318	0.66586
O	0.286175	-2.158041	0.943174
O	-1.720036	-1.295158	0.89586
N	-0.444199	1.157445	0.727615
H	0.188303	1.332516	1.499465
H	-1.385826	1.014436	1.073993
Br	3.550224	0.0	0.0
