19

C	-0.267976	-0.109994	-1.502908
C	0.0	0.0	0.0
F	-1.544437	-0.59327	-1.775303
H	1.093569	0.0	0.0
N	-0.24636	1.280571	-2.107078
O	0.858676	1.751278	-2.36856
O	-1.316532	1.870194	-2.244361
C	0.78714	-0.957118	-2.172561
H	0.599582	-2.000018	-1.902671
H	1.753454	-0.655202	-1.750201
H	0.75146	-0.858362	-3.258065
N	-0.382584	-1.254433	0.663796
H	0.426934	-1.861498	0.650924
H	-1.145718	-1.713367	0.183651
C	-0.646214	1.192897	0.672677
H	-0.431822	1.123466	1.739754
H	-1.733217	1.206131	0.535977
H	-0.234522	2.135588	0.30296
F	2.700886	0.0	0.0
