16

C	-0.605634	0.021907	-1.378857
C	0.0	0.0	0.0
F	-1.967101	0.239004	-1.331548
H	1.095526	0.0	0.0
C	-0.013241	1.039798	-2.253263
N	0.394771	1.863542	-2.982359
N	-0.41167	-1.332554	-2.052658
O	-1.399956	-2.0375	-2.19957
O	0.739215	-1.598527	-2.368355
N	-0.407194	-1.226383	0.667061
H	-1.272058	-1.1205	1.185015
H	0.338808	-1.483019	1.300368
N	-0.356795	1.278986	0.604538
H	0.383788	1.519475	1.252034
H	-1.241088	1.233724	1.097431
F	2.572307	0.0	0.0
