16

C	-0.534587	0.017651	-1.42042
C	0.0	0.0	0.0
F	-0.157388	-1.117073	-2.086848
H	1.098397	0.0	0.0
C	-2.000436	0.130791	-1.495805
N	-3.173197	0.189229	-1.522549
N	0.064438	1.193358	-2.181333
O	1.140412	0.989935	-2.719547
O	-0.570575	2.241867	-2.175263
N	-0.537863	-1.234257	0.617198
H	-0.128358	-1.2422	1.548629
H	-0.087328	-2.011029	0.138474
N	-0.463512	1.18388	0.676806
H	-1.31807	1.004331	1.191643
H	0.265832	1.50558	1.297541
F	2.602198	0.0	0.0
