16

C	-0.598958	0.000378	-1.382395
C	0.0	0.0	0.0
F	-0.063238	-0.959303	-2.190105
H	1.095842	0.0	0.0
C	-2.061666	-0.189839	-1.339798
N	-3.207226	-0.419597	-1.224744
N	-0.332007	1.313431	-2.116279
O	0.688611	1.922224	-1.833145
O	-1.131717	1.61017	-3.005491
N	-0.386957	-1.252244	0.618033
H	-1.258472	-1.18956	1.130754
H	0.361886	-1.53866	1.23253
N	-0.489545	1.229253	0.648666
H	0.335114	1.767785	0.887128
H	-0.958096	0.993509	1.51294
F	2.58951	0.0	0.0
