16

C	-0.469956	-0.041355	-1.435879
C	0.0	0.0	0.0
F	0.096774	0.964926	-2.160025
H	1.101509	0.0	0.0
C	-0.21543	-1.327104	-2.091937
N	-0.015866	-2.317509	-2.689028
N	-1.984717	0.209572	-1.500641
O	-2.358201	1.329952	-1.814518
O	-2.699319	-0.724704	-1.151916
N	-0.442501	-1.182166	0.691192
H	0.272827	-1.445508	1.356007
H	-1.326782	-1.022	1.161537
N	-0.536937	1.238493	0.607153
H	-0.013735	1.332094	1.474034
H	-0.212802	2.01563	0.03589
F	2.601411	0.0	0.0
