16

C	-0.498491	0.011478	-1.426946
C	0.0	0.0	0.0
F	0.010112	-1.032427	-2.156105
H	1.096919	0.0	0.0
C	-1.972038	-0.056944	-1.505746
N	-3.131383	-0.245892	-1.473283
N	-0.071338	1.264039	-2.197339
O	-0.586498	1.387148	-3.307321
O	0.76067	2.007545	-1.701433
N	-0.41513	-1.206358	0.687258
H	-1.314139	-1.564066	0.386663
H	0.295517	-1.909367	0.551274
N	-0.578036	1.194607	0.62893
H	-0.888232	0.90313	1.545212
H	0.188543	1.839725	0.76576
F	2.599988	0.0	0.0
