16

C	-0.540163	0.051715	-1.410126
C	0.0	0.0	0.0
F	-1.910461	-0.032059	-1.436219
H	1.089735	0.0	0.0
C	-0.11448	1.161983	-2.262878
N	0.19223	2.02419	-2.999276
N	-0.030396	-1.22919	-2.100411
O	-0.772787	-2.203572	-2.06595
O	1.093591	-1.171209	-2.578243
N	-0.327008	-1.186669	0.702837
H	0.50282	-1.765857	0.784798
H	-1.11601	-1.698864	0.335701
N	-0.419434	1.211462	0.729904
O	-0.32477	1.197924	1.955752
O	-0.72313	2.211528	0.060632
H	2.472941	0.0	0.0
