16

C	-0.629756	-0.063595	-1.384858
C	0.0	0.0	0.0
F	-0.294731	-1.250773	-1.964258
H	1.096463	0.0	0.0
C	-2.096742	0.037851	-1.332478
N	-3.265155	0.072018	-1.211752
N	-0.107765	0.990543	-2.376312
O	1.085329	0.911428	-2.628042
O	-0.916928	1.762115	-2.874604
N	-0.329621	-1.179664	0.735993
H	0.533607	-1.523524	1.154122
H	-0.96044	-0.945143	1.490857
N	-0.371331	1.227059	0.650175
O	-0.548676	2.224709	-0.077284
O	-0.348411	1.257146	1.893324
H	2.385843	0.0	0.0
