16

C	-0.424533	-0.029953	-1.460177
C	0.0	0.0	0.0
F	0.014415	1.023226	-2.178662
H	1.091021	0.0	0.0
C	0.007991	-1.284075	-2.096526
N	0.334292	-2.274703	-2.637172
N	-1.962409	0.002275	-1.538262
O	-2.538876	-1.052201	-1.270515
O	-2.486624	1.081259	-1.776764
N	-0.363399	-1.133018	0.759216
H	0.42856	-1.761781	0.814796
H	-1.219627	-1.597436	0.497865
N	-0.524132	1.269188	0.591753
O	-1.439897	1.203252	1.416094
O	0.014552	2.310666	0.212177
H	2.537689	0.0	0.0
