16

C	-0.472362	-0.035629	-1.433072
C	0.0	0.0	0.0
F	0.254264	0.733905	-2.269831
H	1.094186	0.0	0.0
C	-0.484891	-1.414389	-1.951697
N	-0.481009	-2.461868	-2.482895
N	-1.943439	0.444174	-1.561088
O	-2.236252	1.142649	-2.516816
O	-2.701503	0.028265	-0.692804
N	-0.334617	-1.16904	0.733363
H	-1.214576	-1.061754	1.222226
H	0.414775	-1.344445	1.396858
N	-0.390096	1.257501	0.623184
O	-0.405647	1.296424	1.860963
O	-0.55782	2.24254	-0.113763
H	2.434352	0.0	0.0
