16

C	-0.45036	0.19699	-1.422225
C	0.0	0.0	0.0
F	-1.804246	-0.033833	-1.603543
H	1.108452	0.0	0.0
C	-0.09153	1.490954	-2.012963
N	0.220077	2.479447	-2.566083
N	0.195264	-0.866289	-2.357346
O	0.231987	-0.56175	-3.545769
O	0.536623	-1.940278	-1.884348
N	-0.378148	-1.222381	0.627593
H	0.430882	-1.834055	0.63186
H	-1.149103	-1.677348	0.160008
N	-0.436691	1.141577	0.832004
O	-0.121028	1.096295	2.018878
O	-1.024752	2.096942	0.297144
H	2.486982	0.0	0.0
