16

C	-0.594402	0.122921	-1.3851
C	0.0	0.0	0.0
F	-1.938744	0.382717	-1.350085
H	1.092555	0.0	0.0
C	0.045476	1.089065	-2.284645
N	0.49574	1.826886	-3.080101
N	-0.438735	-1.254289	-2.047527
O	0.695697	-1.535497	-2.403742
O	-1.441709	-1.942081	-2.136109
N	-0.3259	-1.238731	0.619219
H	0.479401	-1.507937	1.180215
H	-1.13287	-1.153167	1.22305
N	-0.362746	1.184645	0.763858
O	-0.38485	2.270882	0.161777
O	-0.49944	1.060619	1.990692
H	2.423056	0.0	0.0
