16

C	-0.403998	0.191557	-1.446756
C	0.0	0.0	0.0
F	0.243028	1.204588	-2.059085
H	1.101589	0.0	0.0
C	-0.162526	-1.052351	-2.20053
N	-0.003503	-2.022667	-2.843449
N	-1.919295	0.458222	-1.624571
O	-2.649606	-0.296098	-0.989305
O	-2.265348	1.337775	-2.392095
N	-0.311767	-1.239574	0.604558
H	-1.146825	-1.689497	0.266543
H	0.504699	-1.840055	0.605259
N	-0.448798	1.146438	0.800802
O	-0.208837	1.118139	2.006486
O	-0.948843	2.115492	0.202082
H	2.464393	0.0	0.0
