13
Coordinates from ORCA-job run
  C   0.58909057363345     -0.64283138964846      0.29015780264700
  C   -0.45816347054926      0.46169009674455      0.14407495284746
  H   0.32801564861026     -1.46583126497734     -0.38841898668872
  H   -0.25602798852197      1.24787232276580      0.87731641743467
  H   0.53261038369632     -1.02175312293231      1.30970311804729
  N   1.89146519550143     -0.03500703816360      0.06273009922150
  H   2.62038172208227     -0.59295734670538      0.48523819067871
  H   2.08860506766237      0.03733591568697     -0.92720145176327
  N   -1.85534114176553     -0.04026515807620      0.45401499519329
  O   -1.93394222892626     -0.93249002729318      1.29207325785166
  O   -2.79242347062850      0.51674286584852     -0.10391464102096
  C   -0.43310662085027      1.02833483458115     -1.20049836460512
  N   -0.32316366994430      1.43915931216949     -2.29427538984351
