13
Coordinates from ORCA-job run
  C   0.91892526527645     -0.02503003710410     -0.29757143295941
  C   -0.31853020915651      0.56332353976252      0.36748469208166
  H   1.74581285243587      0.65660582654677     -0.08161524530419
  H   -0.18523598509859      0.59749430980569      1.44990004158034
  H   0.76775134597879     -0.03818393429300     -1.38173022552185
  N   1.18077128681403     -1.32571129831633      0.29875506703847
  H   2.17178180818895     -1.52091269031810      0.30927534324418
  H   0.72264744910321     -2.05065586186777     -0.23687665071896
  N   -1.51424879640521     -0.34807480830342      0.15607495987330
  O   -1.50328711168259     -1.06892881324243     -0.83650829495999
  O   -2.40519803225442     -0.26887423212688      0.99132308537776
  C   -0.67103123583228      1.88218825076245     -0.15146917818070
  N   -0.90815863736770      2.94575974869457     -0.58904216155061
