13
Coordinates from ORCA-job run
  C   0.54148179606398     -0.68149204127035      0.23708336171450
  C   -0.40478327503192      0.52991874150477      0.21226920515847
  H   0.57092491310426     -1.03986415451326      1.26837162478900
  H   -0.10018926319950      1.23855268612813      0.98456688266811
  H   0.09852816241289     -1.47425323593158     -0.38686441647540
  N   1.85700516577600     -0.23103390667895     -0.15566182655247
  H   1.94579358900390     -0.19153747583982     -1.16440116924271
  H   2.58222866247083     -0.82373664124971      0.22484648429684
  N   -1.79507013242336      0.06427875518237      0.57543251176326
  O   -2.69074863880722      0.16613190747918     -0.25385699730697
  O   -1.89074890706389     -0.40709244677216      1.70570714424741
  C   -0.40294364891116      1.17937033882339     -1.09257012779707
  N   -0.31047842339480      1.66975747313798     -2.15492267726297
