15
Coordinates from ORCA-job run
  C   0.36967580014302      0.31018350483996     -0.18583513857168
  C   -0.60847092682863     -0.83223110639661      0.04674925162253
  H   0.42144068809511      0.48074257376445     -1.27794749613033
  H   -0.69476000674830     -0.97557051005673      1.12804242718768
  H   -0.20069850467810     -1.75665027683965     -0.38836487550890
  C   1.76182967285820     -0.04826648523791      0.30909558552557
  H   2.45652775010162      0.78167971717436      0.15290203603124
  H   1.72749684476683     -0.25865027703722      1.38057647237751
  H   2.15900239280200     -0.92130294785223     -0.21669780947840
  N   -0.13187299335213      1.47057026427292      0.54238448557592
  H   -1.11044859557823      1.58226901379965      0.29887996826471
  H   0.36289643954054      2.30569624892738      0.25151845938973
  N   -1.93097096643215     -0.46953547609287     -0.47218469557813
  H   -1.94376842454360     -0.58528679599432     -1.47853764101753
  H   -2.63887917014618     -1.08364744727118     -0.09058102968992
