15
Coordinates from ORCA-job run
  C   0.30491487887778      0.25596955557652     -0.35430873040756
  C   -0.58329313582971     -0.88920572681143      0.11982507571765
  H   0.35847146123998      0.20263603170185     -1.45182446170930
  H   -0.44394451131785     -1.01356231253354      1.20189964824932
  H   -0.21974539784270     -1.81163288933146     -0.35814043018403
  C   1.71862717670618      0.08473593880421      0.19696944965566
  H   2.14908029452813     -0.88080237788952     -0.08710712826129
  H   1.70785362427975      0.15254771228828      1.28882262012663
  H   2.37981586314279      0.86807771760686     -0.18488986220128
  N   -0.31822387784342      1.53443228598986     -0.01338912950516
  H   -0.80077615795121      1.46408057026605      0.87378870386163
  H   0.38123316220488      2.26348646236815      0.05230095051085
  N   -1.99608507931980     -0.60403600866942     -0.12743094579561
  H   -2.53328751576969     -1.46145591900577     -0.12227718044683
  H   -2.10364078510512     -0.16727104036063     -1.03423857961068
