15
Coordinates from ORCA-job run
  C   0.24581678387633      0.43485860154008     -0.23719853997483
  C   -1.01117957262504     -0.37498577235992      0.05901184576334
  H   0.47585721080607      0.31318100303863     -1.31162106564547
  H   -1.87567243131120      0.13061382098298     -0.40235366822569
  H   -1.17234047998850     -0.35674857897072      1.14070337964963
  C   1.42988974547844     -0.07452709534510      0.56498374140369
  H   1.24454978544776      0.09451189810457      1.62919425583622
  H   1.57161513367187     -1.14083965743313      0.39147536888210
  H   2.34893435288483      0.45255446934068      0.29015511628140
  N   -0.02019845520716      1.82882719537900      0.12409768701550
  H   -0.71108771384230      2.22339252812451     -0.50478845240152
  H   0.82657438652205      2.37517254123194      0.01508608535184
  N   -0.84654385235500     -1.76306246408342     -0.37278369142001
  H   -1.59802678940721     -2.33081546660027     -0.00212630712518
  H   -0.90718810395094     -1.81313302294983     -1.38283575539103
