15
Coordinates from ORCA-job run
  C   0.29954760406675      0.24681753106043     -0.31722605610208
  C   -0.58375980116506     -0.94662332907345      0.01854009741701
  H   0.34422811035768      0.30660383554143     -1.41012191907737
  H   -0.69057250214900     -0.99010525236934      1.11800963462158
  H   -0.08032008097785     -1.86746678149377     -0.29356100397154
  C   1.70899443172700      0.08272827458350      0.24436191991390
  H   2.20178761954675     -0.80539365101682     -0.16177593574987
  H   1.67691745114135     -0.01672397743079      1.33456234675589
  H   2.32674378251656      0.95228994550708      0.00420264268391
  N   -0.38946920933028      1.45905465826721      0.14336080638856
  H   -0.27864528139090      1.54208713887998      1.14928961567455
  H   0.03558149682074      2.27997325031181     -0.27113422524353
  N   -1.84666237015379     -0.82370882967962     -0.69966081558867
  H   -2.21758258729856      0.09601786615500     -0.48980014433009
  H   -2.50878866371140     -1.51455067924264     -0.36904696339226
