15
Coordinates from ORCA-job run
  C   0.38440006133530      0.34807152160895     -0.42881951609074
  C   -0.65965604117509     -0.74191398524822     -0.65506622992160
  H   0.85693595900654      0.55702640391600     -1.40284458678852
  H   -1.38709210869382     -0.36809335229340     -1.39727748077520
  H   -0.17060893272478     -1.61513193309178     -1.10000077433244
  C   1.46407258702931     -0.09286196661869      0.54695601781053
  H   1.02479654586658     -0.30992486980602      1.51965720693095
  H   1.96068169334187     -0.99623479064891      0.18530718604050
  H   2.22433717143128      0.68635141060002      0.66122733272678
  N   -0.30775138743215      1.52450792617047      0.11532915666301
  H   0.36989617495473      2.20276075001628      0.44313966832184
  H   -0.84799750709051      1.97217633836986     -0.61708019291957
  N   -1.25867449490295     -1.12402368852291      0.61853276419023
  H   -1.62385144142271     -0.28083129750383      1.04596437197373
  H   -2.02948827952363     -1.76187846694784      0.46597507617051
