18
Coordinates from ORCA-job run
  C   -0.61350290148473     -0.34560386684770      0.50656318635491
  C   0.85725038104328     -0.18458679655980      0.11482466345788
  Cl  -0.64183350006436     -0.52836140244130      2.28572156782464
  H   1.43274065029507     -0.96877416980051      0.60465150019448
  N   -1.10152746313885     -1.69657472467989     -0.03059668381817
  O   -2.28238199057386     -1.78722993848806     -0.33445318533958
  O   -0.26821563517020     -2.59409412087335     -0.07107671642297
  C   -1.56163031620675      0.75819151759694      0.11132296538751
  H   -2.56266760464907      0.52216248676432      0.46623703492239
  H   -1.24072890463474      1.69224031049605      0.57248963452636
  H   -1.58331268947435      0.86401221506642     -0.97167556634216
  C   1.43237175575697      1.18931857021464      0.41824223420238
  H   1.27260773806126      1.44426777898005      1.46603979601743
  H   2.50455524535125      1.17690696301782      0.22260269889336
  H   0.97146861229324      1.95345187270296     -0.20996369961011
  N   1.06566440513509     -0.44607364037989     -1.35434516774525
  O   2.22505031730519     -0.65459318052719     -1.69094381530271
  O   0.09509190015556     -0.39665987424152     -2.10664044720041
