18
Coordinates from ORCA-job run
  C   -0.63187357819401     -0.37540735571076      0.24551737397607
  C   0.65154816704696      0.34271513621248     -0.20970153723982
  Cl  -0.39021085480336     -2.11486474345437      0.34972328044687
  H   0.42983819052846      1.41063496814865     -0.19587096890960
  N   -1.64335728842553     -0.06110551779791     -0.87412466930373
  O   -2.13535516872907     -0.97005001932939     -1.52300021172407
  O   -1.86439278005161      1.13872446502814     -1.01476487724703
  C   -1.23337025216556      0.14328526704459      1.53782617382851
  H   -0.58737044150283     -0.10543978753610      2.37766886354897
  H   -2.20623327629440     -0.32705991141328      1.69289398725467
  H   -1.35313512008401      1.22504437813564      1.48714156861792
  C   1.17786657031073     -0.09510700618465     -1.55885788100063
  H   2.10864252191624      0.43062797202518     -1.77640549549061
  H   1.37232910093850     -1.16517055465656     -1.58330289613480
  H   0.45658466613870      0.16127953808613     -2.33701830627827
  N   1.69447805818926      0.16095594472523      0.85754806312658
  O   2.53017838899440     -0.72454233442536      0.70310222481553
  O   1.62383309618712      0.92447956110234      1.82062530771344
