18
Coordinates from ORCA-job run
  C   -0.51594266101617     -0.33146124883899      0.62648217549953
  C   0.85094372862678     -0.23811052338539     -0.06859204036742
  Cl  -0.22201144658106     -0.55886854569342      2.36466677234316
  H   1.40203972146275     -1.14730502889983      0.17369075285849
  N   -1.14867672382431     -1.63745626454813      0.11508527280503
  O   -2.15775078952604     -1.52645391714784     -0.57406382930796
  O   -0.56384939537763     -2.67522714696249      0.39074734767844
  C   -1.45698746564100      0.82787089383425      0.41543593270131
  H   -2.40597981414282      0.62124704164352      0.90912203151853
  H   -1.63689178806067      0.99486303602182     -0.64438002238063
  H   -1.02365005075671      1.72569777092743      0.85593722989405
  C   1.63881420325426      1.01548759691915      0.24893207558986
  H   1.82262208037168      1.08118267273771      1.32108945158450
  H   1.11249729155455      1.90637621005098     -0.08897950075973
  H   2.60266685041027      0.97382477492673     -0.26208015252168
  N   0.62429773696263     -0.32031276106904     -1.55907215633629
  O   0.26736690408619      0.70484702334140     -2.13627673251662
  O   0.81249161819728     -1.41520158385785     -2.08574460828256
