18
Coordinates from ORCA-job run
  C   -0.59587667121322     -0.34600322425011      0.56330348120378
  C   0.80492231899966      0.18766123106020      0.23474476834718
  Cl  -0.48351909578513     -1.30575646801142      2.04421891235749
  H   1.12119456502338      0.75120637824284      1.11460409692582
  N   -1.13563559325669     -1.22970947942998     -0.57271425318602
  O   -1.37275773043906     -0.60918378570883     -1.60548756339246
  O   -1.31108826397353     -2.42061466898750     -0.38515327118889
  C   -1.59463456665821      0.77855986918099      0.76892004549034
  H   -1.72721968653161      1.34617730379278     -0.15008138732078
  H   -1.24415770014335      1.43531463286929      1.56656543518904
  H   -2.55640983291808      0.35755133541866      1.06624150496281
  C   0.96497080837241      1.02241747410176     -1.02475519233587
  H   0.74194328919015      0.44065799091493     -1.91591121906692
  H   0.31271809914978      1.89510592303351     -0.99820374052953
  H   1.99863080496205      1.37321113989857     -1.07205457306847
  N   1.78022941850494     -0.95030585551516      0.15292738041931
  O   1.54385434723241     -1.81080503033267     -0.69119385103948
  O   2.75083548948410     -0.91248476627786      0.90302942623265
