14

C	-0.433062	0.036989	-1.475511
C	0.0	0.0	0.0
Br	0.127501	-1.627921	-2.354515
H	1.097201	0.0	0.0
H	-1.521259	0.028434	-1.572547
C	0.198294	1.223173	-2.181935
H	-0.192643	2.152553	-1.757095
H	-0.0308	1.202931	-3.249335
H	1.279198	1.190556	-2.026619
C	-0.505506	-1.155317	0.721484
N	-0.885782	-2.09461	1.319216
C	-0.442744	1.219104	0.660585
N	-0.803385	2.216622	1.170563
H	2.559093	0.0	0.0
