14

C	-0.384185	-0.010787	-1.485244
C	0.0	0.0	0.0
Br	0.186422	1.672982	-2.307906
H	1.09597	0.0	0.0
H	0.244709	-0.771505	-1.95669
C	-1.858329	-0.225793	-1.769029
H	-2.048688	-0.234689	-2.844767
H	-2.451187	0.572707	-1.318722
H	-2.176414	-1.182841	-1.345727
C	-0.416327	-1.254623	0.606389
N	-0.745842	-2.289511	1.060121
C	-0.548389	1.122785	0.734801
N	-0.957986	2.039202	1.349356
H	2.51486	0.0	0.0
