14

C	-0.266687	0.018076	-1.498048
C	0.0	0.0	0.0
Br	-2.187753	0.185794	-1.950655
H	1.099296	0.0	0.0
H	0.184374	0.932671	-1.889624
C	0.335922	-1.201313	-2.15986
H	0.267347	-1.128342	-3.24668
H	1.387788	-1.236083	-1.851066
H	-0.168412	-2.112961	-1.833711
C	-0.478826	-1.206607	0.647072
N	-0.815432	-2.214715	1.151483
C	-0.461815	1.19453	0.68183
N	-0.796987	2.190973	1.208943
H	2.534414	0.0	0.0
