12

C	-0.310037	-0.000498	-1.474081
C	0.0	0.0	0.0
F	-1.676835	0.087731	-1.767988
H	1.093612	0.0	0.0
H	-0.343482	0.942007	0.435055
C	0.341754	1.159878	-2.116001
N	0.82959	2.078822	-2.659743
C	0.185608	-1.231618	-2.12166
N	0.541339	-2.206836	-2.670163
C	-0.595098	-1.128368	0.679202
N	-1.063646	-2.04271	1.251301
F	2.478232	0.0	0.0
