12

C	-0.333852	0.026708	-1.480982
C	0.0	0.0	0.0
F	0.100203	-1.140149	-2.080391
H	1.093644	0.0	0.0
H	-0.327269	0.936806	0.46141
C	-1.783814	0.143191	-1.763917
N	-2.939347	0.245099	-1.951103
C	0.348346	1.168328	-2.126889
N	0.853003	2.062737	-2.695639
C	-0.612335	-1.134325	0.654305
N	-1.092732	-2.059031	1.199273
F	2.491145	0.0	0.0
