12

C	-0.331117	-0.071589	-1.480546
C	0.0	0.0	0.0
F	0.082735	-1.285904	-1.994256
H	1.09368	0.0	0.0
H	-0.325191	0.96697	0.396249
C	-1.777272	0.051077	-1.776974
N	-2.929187	0.161607	-1.978488
C	0.372603	1.009499	-2.204109
N	0.8732	1.866832	-2.830131
C	-0.617546	-1.08487	0.728348
N	-1.101073	-1.969911	1.333358
F	2.492482	0.0	0.0
