12

C	-0.318129	0.01095	-1.485378
C	0.0	0.0	0.0
F	0.083612	1.211673	-2.039863
H	1.093548	0.0	0.0
H	-0.326336	-0.950585	0.432003
C	0.408945	-1.085482	-2.159191
N	0.919991	-1.968406	-2.738871
C	-1.758761	-0.143354	-1.793258
N	-2.907118	-0.274881	-2.001608
C	-0.623912	1.113576	0.677376
N	-1.114975	2.021742	1.239795
F	2.494648	0.0	0.0
