12

C	-0.328028	0.036379	-1.482157
C	0.0	0.0	0.0
F	0.090711	-1.13552	-2.083113
H	1.093655	0.0	0.0
H	-0.326821	0.934992	0.46551
C	-1.774618	0.176708	-1.770421
N	-2.927424	0.301303	-1.960769
C	0.374148	1.169034	-2.122918
N	0.879906	2.062123	-2.692973
C	-0.615967	-1.136956	0.645624
N	-1.0991	-2.064015	1.184093
F	2.491029	0.0	0.0
