15
Coordinates from ORCA-job run
  C   0.95151459393514     -0.46651366765160      0.08372377761224
  C   -0.37497541832505      0.22614966864629      0.29406832149941
  F   1.41428672509231     -0.88242781576550      1.30103541232641
  H   -0.22639676152963      1.07769582219753      0.95773763397416
  H   0.92081853764902     -1.30800325094367     -0.60426173143988
  N   1.98771243101105      0.48494646756655     -0.45932745664453
  O   1.90214773993461      1.65970689125845     -0.11119437480044
  O   2.86189023513999     -0.01357927481303     -1.15964301070145
  C   -1.43765169712777     -0.72231534495145      0.82120059274944
  H   -1.61457467787278     -1.53549106004489      0.11346963609832
  H   -2.36915388001878     -0.17804267464447      0.97695378985527
  H   -1.11347399730832     -1.14410748814877      1.77259356041263
  N   -0.84122865905837      0.80162234108037     -1.00638643627221
  O   -0.34108572369748      0.34896523725123     -2.03665123471380
  O   -1.72082944782395      1.65139414896295     -0.94331847995557
