15
Coordinates from ORCA-job run
  C   1.05459646528295      0.23093777649181      0.53543355617243
  C   -0.46389898675677      0.26453490695082      0.50283441076862
  F   1.52980690613367      1.48524950998268      0.72175329139349
  H   -0.77278469699500      0.72674479936598      1.44260917027344
  H   1.40829130368733     -0.42262362193484      1.33493694930387
  N   1.66482252454050     -0.32938464819614     -0.73065076880617
  O   2.23239330070295      0.43926298164308     -1.48855116415464
  O   1.53381539463625     -1.54323390339956     -0.85299472268178
  C   -1.15383053836679     -1.06760570434669      0.28323127296907
  H   -0.83953455620823     -1.78496189565050      1.04318777749869
  H   -0.91573140019855     -1.47385952283488     -0.69698098394155
  H   -2.23333642846379     -0.92759813795272      0.36419855059184
  N   -0.90147686449573      1.23533209960676     -0.55715168537463
  O   -0.64053430929793      0.92549144614315     -1.71689509592330
  O   -1.49959811420085      2.24071391413106     -0.18696055808937
