15
Coordinates from ORCA-job run
  C   0.99114667772254     -0.35797342663608      0.13714822007732
  C   -0.42136038578616      0.16071848421251      0.27525218956955
  F   1.40573562803500     -0.80367070472043      1.36115694236315
  H   -0.42965654314629      0.97398769570052      1.00055794367915
  H   1.11421790742408     -1.14633503524270     -0.60157532121215
  N   1.94463635789217      0.74171440640491     -0.25672697499219
  O   2.93286817255998      0.39301917621102     -0.89318042066816
  O   1.68337787748191      1.87515854765232      0.13772010143765
  C   -1.39964787530211     -0.93966751704550      0.64777374631562
  H   -2.39928976677058     -0.51920948160376      0.75817197027609
  H   -1.42203430129914     -1.71321723478250     -0.12328273699680
  H   -1.10150199680791     -1.39065193718035      1.59429771704578
  N   -0.84990903961017      0.77047257059134     -1.02259845102119
  O   -1.82144458992913      1.51486519042406     -0.98160653633910
  O   -0.22713812246418      0.44278926601464     -2.03310838953473
