15
Coordinates from ORCA-job run
  C   0.96003021465054     -0.48193716864995     -0.04832780119915
  C   -0.36105809242804      0.21291991521880      0.24922642773982
  F   1.28519933124506     -1.32765759529914      0.95690373744169
  H   -0.20578788683652      1.04937124767067      0.93204325525803
  H   0.93349285671052     -1.01882061535225     -0.99714179815750
  N   2.05366581709953      0.55449377282122     -0.17255039697195
  O   3.06337985353492      0.42210352650422      0.50086195799637
  O   1.80234089590815      1.44855707094604     -0.97461630365056
  C   -1.40110842942405     -0.76065846108420      0.77826851096378
  H   -1.08045189214182     -1.16312991058445      1.73806170255208
  H   -1.54607689915134     -1.58320602094098      0.07621762360233
  H   -2.34990847918819     -0.23917122864550      0.91521400613672
  N   -0.89853891454647      0.82207565306186     -1.01322264776077
  O   -0.91959767800420      0.10153823404706     -2.00732469664486
  O   -1.33658069742807      1.96352158028661     -0.93361357730603
