15
Coordinates from ORCA-job run
  C   0.99906161413102      0.18128991619586      0.62042162452413
  C   -0.51079877188441      0.21440977359965      0.42519989943376
  F   1.44765904226602      1.29089772660181      1.24677933389947
  H   -0.90071240981602      0.77441083824789      1.28206380538989
  H   1.28453398035777     -0.69369759460734      1.21057248420735
  N   1.74651250763984      0.02581789540026     -0.68934059035013
  O   2.75461954628339      0.68938288687550     -0.85119202339588
  O   1.27805117037104     -0.81730464891874     -1.44722652726729
  C   -1.17801622488729     -1.14421234413392      0.33990497414156
  H   -2.25890009391455     -1.02572775768569      0.30452573086312
  H   -0.84869424541332     -1.68147040993944     -0.54679948221070
  H   -0.92358619328697     -1.72772895913762      1.22774565064565
  N   -0.86824800321059      1.07891781966218     -0.76316644836450
  O   -1.96493596154272      0.89357209675196     -1.27638149416650
  O   -0.05654595709319      1.94244276108765     -1.08210693734994
