15
Coordinates from ORCA-job run
  C   1.03004126501805      0.22594633342817      0.58332422303662
  C   -0.48593452717861      0.25432372119408      0.48733838455037
  F   1.49153131357133      1.47885056996179      0.80919594321350
  H   -0.83623982302165      0.69945941789643      1.42080629843913
  H   1.35280608683015     -0.43872171854945      1.38672875837243
  N   1.69508460914960     -0.31189492956159     -0.66458919114329
  O   2.29040884539983      0.47068418315051     -1.38608866468761
  O   1.57523536363603     -1.52432104032765     -0.81079836420091
  C   -1.16011993632457     -1.07628831464779      0.21624973907858
  H   -2.24267478342110     -0.94181443921380      0.25480424738100
  H   -0.87435704966117     -1.80564539829367      0.97604933732511
  H   -0.87988871253834     -1.46452769677750     -0.76012312944090
  N   -0.88256278146189      1.24153458449737     -0.57356749007013
  O   -0.57183275879058      0.95274589142786     -1.72647076319604
  O   -1.49949711120708      2.23866883581523     -0.21185932865786
