15
Coordinates from ORCA-job run
  C   1.04148778508996      0.21030994591475      0.56841104303623
  C   -0.47490173167418      0.26348286011632      0.49302596724241
  F   1.52629308450885      1.45609049626486      0.78548094198175
  H   -0.80514243664216      0.71772227583319      1.42941602643556
  H   1.36473846938894     -0.45797743388832      1.36860222273542
  N   1.68048097494555     -0.34061310360986     -0.68720271225709
  O   1.53889590157840     -1.55121678267535     -0.82893694516596
  O   2.27870075005122      0.43065191385336     -1.41837820066643
  C   -1.17486906030351     -1.05654193406981      0.23576278788492
  H   -0.91408897767346     -1.45275752925896     -0.74278413434313
  H   -2.25439562511871     -0.90365238846054      0.28821509735905
  H   -0.89146256362744     -1.78795304940210      0.99449326395654
  N   -0.87002422964155      1.25366257666089     -0.56593016016671
  O   -0.58070393453565      0.95562372915616     -1.72202690421578
  O   -1.46500840634624      2.26216842356543     -0.19914829381678
