15
Coordinates from ORCA-job run
  C   1.04888392144645      0.22113949850157      0.55034369111290
  C   -0.46903327116648      0.26028674732118      0.50030640012228
  F   1.52601838783810      1.47163676099572      0.75624368807370
  H   -0.78758933596795      0.71242526225368      1.44171474975091
  H   1.39065383280147     -0.44227229700055      1.34692650837109
  N   1.67197955710512     -0.32718405529845     -0.71444244323413
  O   1.53849801279267     -1.53912256860165     -0.85178677460020
  O   2.25142324326401      0.44788555363771     -1.45662107484479
  C   -1.16100125756875     -1.06666089171017      0.25731376900951
  H   -0.91283511657251     -1.46309335435391     -0.72443322304987
  H   -2.24087444490438     -0.92320926695485      0.32674847561618
  H   -0.85876675347696     -1.79371353430689      1.01293634867699
  N   -0.89073206775328      1.24486685966922     -0.55340069086702
  O   -1.48942600011733      2.24810876155001     -0.17830782631695
  O   -0.61719870772017      0.94790652429738     -1.71354159782059
