15
Coordinates from ORCA-job run
  C   1.01781509731112      0.38898860055814     -0.20858565425382
  C   -0.41630343193951      0.27898179167590      0.27736887454750
  F   1.08836953490454      0.19059435954509     -1.54347678634665
  H   -0.42050263875808      0.47319536756606      1.35200198082798
  H   1.47630003660529      1.34168751510215      0.05329471991747
  N   1.81483641067555     -0.68337869604589      0.49543060057314
  O   2.24675588710546     -1.61490957293470     -0.16670437665939
  O   1.92910533349739     -0.51016147293519      1.70478074237709
  C   -1.07291950153257     -1.03519573325113     -0.07709137061185
  H   -1.03201904824026     -1.21446507216683     -1.15019245626127
  H   -2.11614484124773     -1.03177137538169      0.23447198613490
  H   -0.56290835492055     -1.85063634733548      0.43959987090586
  N   -1.14411836610411      1.45967291073117     -0.32903771542714
  O   -0.66584202760205      2.56285402185683     -0.07702804929310
  O   -2.14242408975450      1.24454370301556     -1.00583236643071
