15
Coordinates from ORCA-job run
  C   0.99837505440152      0.30076028838903     -0.37977574267138
  C   -0.40765180095755      0.35540000989594      0.19073192777949
  F   1.00645648632745     -0.32776771692346     -1.57610114138963
  H   -0.36171872972110      0.89645765012758      1.13823231100073
  H   1.45100495384555      1.28721040901097     -0.47180555135545
  N   1.84942016327718     -0.47768934007215      0.59561619412882
  O   2.26484253756847     -1.57521504846975      0.25583706199811
  O   2.01955328595095      0.08549432874602      1.67236424666213
  C   -1.05407500262846     -1.00350727831842      0.32959676705697
  H   -1.05906940386044     -1.53214377070101     -0.62222069821349
  H   -2.08177238348107     -0.89879771651380      0.67352548748739
  H   -0.50524181997400     -1.59700608623617      1.06341813760036
  N   -1.18752345937248      1.26474362163099     -0.73400352020398
  O   -2.21272147059340      0.83369747960070     -1.24790471471821
  O   -0.71987841078261      2.39036316983354     -0.88751076516186
