15
Coordinates from ORCA-job run
  C   1.05067890535971      0.20072773595898      0.55452874238602
  C   -0.46623744106238      0.26724885668612      0.49986242085088
  F   1.54937828058387      1.44210298175355      0.76459628157646
  H   -0.77980835514858      0.72209770449377      1.44165231393590
  H   1.37874921831155     -0.47035179784659      1.35042285483428
  N   1.66742487750153     -0.35590701076927     -0.70985038704513
  O   1.51320547055791     -1.56506944055455     -0.85000512781550
  O   2.26248849704893      0.41032588334578     -1.44887608371368
  C   -1.18087681230443     -1.04633496645594      0.24998731026912
  H   -0.93809937829700     -1.44248767841423     -0.73319112762335
  H   -2.25820426701970     -0.88451731848489      0.31868641512205
  H   -0.89241597664355     -1.78194048306487      1.00269671083539
  N   -0.86591160820052      1.26302430932728     -0.55190166692804
  O   -1.44549200394300      2.27686657397082     -0.17541231146790
  O   -0.59487940674434      0.96421465005406     -1.71219634521652
