15
Coordinates from ORCA-job run
  C   1.03617302540867      0.21939450636025      0.57517872609408
  C   -0.48028492395936      0.25568196236205      0.49075194755889
  F   1.50450593337677      1.47024580007781      0.79912039658891
  H   -0.82079726322071      0.69818334631000      1.42910143982114
  H   1.36114183100698     -0.44680936060008      1.37648897006972
  N   1.69237234113163     -0.32143047191738     -0.67624476523387
  O   2.29896025362191      0.45577414788761     -1.39389988217463
  O   1.55610987080406     -1.53148104321576     -0.82717681834714
  C   -1.16592368899095     -1.06929161367671      0.21985405451088
  H   -2.24710292937802     -0.92669160187769      0.26760777283232
  H   -0.89604954991281     -1.45587663269439     -0.76011660117371
  H   -0.87967713573383     -1.80362047422653      0.97463036500954
  N   -0.88143556445884      1.24827516297210     -0.56314213109155
  O   -0.55819448868740      0.97428240913530     -1.71617837309946
  O   -1.51779771100811      2.23136386310344     -0.19697510136512
