15
Coordinates from ORCA-job run
  C   1.04383986665134      0.20894779787841      0.56455839396794
  C   -0.47293455944379      0.26212418477353      0.49621776138584
  F   1.52968382610743      1.45399563263541      0.78265474029018
  H   -0.79897614125471      0.71280045351120      1.43578153252510
  H   1.37046047249536     -0.46161675121474      1.36148765684308
  N   1.67736506454848     -0.33863213423154     -0.69551390108779
  O   2.27272515339311      0.43484769494432     -1.42676139777638
  O   1.53498827739270     -1.54870332687951     -0.84068630585210
  C   -1.17321669561056     -1.05752387093635      0.23768994771880
  H   -0.88465328788526     -1.79172353005368      0.99173900912428
  H   -0.91748817522934     -1.44961939886040     -0.74385953900648
  H   -2.25258866509237     -0.90601037634550      0.29665793162399
  N   -0.87291237726035      1.25564771451795     -0.55744723522708
  O   -1.46802627191807      2.26197212438117     -0.18479500925575
  O   -0.58726648689397      0.96249378587973     -1.71572358527364
