15

C	-0.093161	0.104518	-1.526819
C	0.0	0.0	0.0
Br	-1.924265	0.670476	-2.163303
H	1.096724	0.0	0.0
N	0.887366	1.057824	-1.930176
H	1.746801	0.826514	-1.386195
H	1.060129	1.010197	-2.926439
C	0.073504	-1.23144	-2.126025
N	0.277444	-2.237442	-2.700419
N	-0.554703	-1.222581	0.53279
H	0.043992	-1.554379	1.277769
H	-1.489077	-1.080354	0.894734
C	-0.470026	1.219398	0.64656
N	-0.873705	2.139478	1.258586
F	2.604026	0.0	0.0
