15

C	-0.077526	0.384789	-1.48535
C	0.0	0.0	0.0
Br	-1.912169	0.963842	-2.026393
H	1.10889	0.0	0.0
N	0.873821	1.422736	-1.818866
H	0.586893	2.267824	-1.332821
H	1.745403	1.094015	-1.358109
C	0.203923	-0.805892	-2.296791
N	0.436339	-1.731362	-2.9815
N	-0.564756	-1.288608	0.316937
H	-1.488274	-1.213531	0.722339
H	0.049408	-1.774345	0.955431
C	-0.449682	1.104354	0.83802
N	-0.823347	1.966813	1.546403
F	2.581775	0.0	0.0
