15

C	-0.582759	-0.006886	-1.418833
C	0.0	0.0	0.0
Br	0.552284	-1.292718	-2.515876
H	1.097215	0.0	0.0
N	-1.943147	-0.405963	-1.401582
H	-1.982113	-1.258587	-0.847268
H	-2.294788	-0.577983	-2.335416
C	-0.426554	1.279097	-2.099981
N	-0.308845	2.311164	-2.651648
N	-0.375029	-1.270324	0.653567
H	0.507526	-1.703608	0.915397
H	-0.900806	-1.095416	1.501741
C	-0.518556	1.146006	0.726053
N	-0.912855	2.056252	1.358029
F	2.52121	0.0	0.0
