15

C	-0.476762	0.061921	-1.457208
C	0.0	0.0	0.0
Br	0.416047	-1.349407	-2.497089
H	1.10891	0.0	0.0
N	-1.903807	-0.197886	-1.546459
H	-2.212749	-0.1448	-2.510712
H	-2.385603	0.518133	-1.009541
C	-0.0983	1.333484	-2.095499
N	0.061942	2.368288	-2.631411
N	-0.365182	-1.240697	0.670788
H	0.447392	-1.839489	0.602382
H	-1.151005	-1.685633	0.210423
C	-0.585852	1.143371	0.68984
N	-1.091561	2.06138	1.22624
F	2.516891	0.0	0.0
