18

C	-0.481959	-0.002115	-1.45016
C	0.0	0.0	0.0
F	-1.859754	-0.115623	-1.463149
H	1.098254	0.0	0.0
N	-0.198999	1.359417	-2.068779
O	0.914441	1.527732	-2.552449
O	-1.089232	2.207721	-2.013349
C	0.137289	-1.076255	-2.297091
H	-0.166494	-2.031433	-1.872831
H	-0.20772	-0.993577	-3.330721
H	1.22289	-0.988449	-2.252523
N	-0.433413	-1.276124	0.568957
H	-1.297668	-1.107198	1.069902
H	0.263985	-1.538567	1.255646
N	-0.467538	1.156206	0.756934
H	0.292868	1.818572	0.848491
H	-1.240282	1.62001	0.292956
Cl	3.405135	0.0	0.0
