18

C	-0.586159	0.038252	-1.404289
C	0.0	0.0	0.0
F	-0.007965	1.045704	-2.137806
H	1.093917	0.0	0.0
N	-0.201678	-1.235792	-2.151708
O	-0.970669	-1.620334	-3.03725
O	0.872744	-1.750765	-1.877029
C	-2.08083	0.207143	-1.434586
H	-2.315158	1.133594	-0.911128
H	-2.425151	0.269227	-2.464901
H	-2.565241	-0.642317	-0.951981
N	-0.462346	-1.243546	0.623044
H	-1.173545	-1.053726	1.319773
H	0.325511	-1.684609	1.081953
N	-0.383092	1.245791	0.670714
H	-1.135773	1.089951	1.329654
H	0.421341	1.584575	1.180956
Cl	3.429564	0.0	0.0
