18

C	-0.524442	-0.144207	-1.422558
C	0.0	0.0	0.0
F	-1.868715	-0.463307	-1.370769
H	1.09508	0.0	0.0
N	-0.453284	1.207636	-2.107654
O	0.67155	1.60071	-2.384028
O	-1.501211	1.801626	-2.331946
C	0.219639	-1.159279	-2.2437
H	1.279596	-0.902311	-2.255026
H	-0.181447	-1.191343	-3.260113
H	0.092424	-2.127598	-1.760214
N	-0.373565	-1.232892	0.693023
H	0.244284	-1.352521	1.485104
H	-1.330295	-1.178571	1.020687
N	-0.451053	1.263129	0.562569
H	-1.390576	1.181381	0.933112
H	0.17839	1.53388	1.306432
Cl	3.417206	0.0	0.0
