18

C	-0.492023	-0.13203	-1.454947
C	0.0	0.0	0.0
F	-0.185118	1.022766	-2.123093
H	1.099236	0.0	0.0
N	0.248344	-1.244484	-2.18565
O	0.256038	-2.338852	-1.625175
O	0.709804	-1.003264	-3.292207
C	-1.964409	-0.419543	-1.627952
H	-2.202038	-0.439134	-2.694763
H	-2.222011	-1.364257	-1.156552
H	-2.543255	0.375725	-1.156215
N	-0.58915	-1.059978	0.815818
H	-0.159715	-1.936903	0.545377
H	-0.280464	-0.85456	1.759359
N	-0.408143	1.259044	0.591765
H	-1.396193	1.427257	0.447727
H	0.12752	2.01046	0.178697
Cl	3.457163	0.0	0.0
