12

C	-0.440941	-0.0895	-1.44322
C	0.0	0.0	0.0
Br	-2.408349	-0.324725	-1.620411
H	1.09469	0.0	0.0
H	-0.018141	-0.989069	-1.892041
H	-0.362241	0.93589	0.443503
C	-0.088743	1.085104	-2.231015
N	0.175403	2.032474	-2.873661
N	-0.397219	-1.209008	0.713843
H	0.394054	-1.486807	1.284854
H	-1.188859	-1.037563	1.318019
H	2.858752	0.0	0.0
