12

C	-0.435999	0.010441	-1.448489
C	0.0	0.0	0.0
Br	-2.365345	-0.432096	-1.653086
H	1.095372	0.0	0.0
H	0.085896	-0.771845	-2.005878
H	-0.311062	-0.957071	0.437783
C	-0.228795	1.292852	-2.105893
N	-0.072042	2.303606	-2.682787
N	-0.487761	1.168096	0.71751
H	-1.230086	0.932071	1.359224
H	0.288551	1.547971	1.241303
H	2.8725	0.0	0.0
