12

C	-0.369161	0.022707	-1.492006
C	0.0	0.0	0.0
Br	-0.084379	-1.733322	-2.319996
H	1.092506	0.0	0.0
H	0.316738	0.70185	-2.008726
H	-0.419462	-0.891097	0.473338
C	-1.751618	0.414092	-1.740294
N	-2.869505	0.755218	-1.876997
N	-0.395541	1.213036	0.695898
H	0.319411	1.915936	0.556211
H	-1.297142	1.572794	0.410925
H	2.877164	0.0	0.0
