12

C	-0.478811	0.087586	-1.445569
C	0.0	0.0	0.0
Br	-0.141326	-1.584852	-2.413333
H	1.091989	0.0	0.0
H	0.105709	0.854266	-1.957447
H	-0.387302	-0.912642	0.467734
C	-1.901721	0.389431	-1.549669
N	-3.049367	0.636743	-1.60785
N	-0.405517	1.241689	0.656831
H	0.389122	1.579896	1.188263
H	-1.187271	1.100105	1.280742
H	2.896859	0.0	0.0
