12

C	-0.518483	-0.0621	-1.437418
C	0.0	0.0	0.0
Br	-0.05439	1.55726	-2.449574
H	1.092303	0.0	0.0
H	-1.61276	-0.080817	-1.45832
H	-0.378962	0.920533	0.455356
C	-0.052822	-1.238541	-2.166813
N	0.230806	-2.213616	-2.757615
N	-0.413873	-1.174032	0.760649
H	0.298193	-1.886882	0.65316
H	-1.304721	-1.551473	0.459753
H	2.910257	0.0	0.0
