16

C	0.0	0.0	0.0
C	-0.607612	0.079432	-1.410662
Br	1.929115	0.0	0.0
H	-1.704506	0.21909	-1.216279
N	-0.395718	1.272112	0.764201
O	-0.304638	1.224995	1.983073
O	-0.7219	2.247137	0.100243
C	-0.495408	-1.211416	0.759229
H	-0.114921	-1.178734	1.778141
H	-1.588421	-1.177966	0.761168
H	-0.140968	-2.11857	0.268776
C	-0.421688	-1.195987	-2.103461
N	-0.272049	-2.213106	-2.67153
C	-0.077512	1.147623	-2.257525
N	0.347372	1.950229	-3.002676
Cl	-3.561938	0.0	0.0
