12
Coordinates from ORCA-job run
  C   0.72474651859068     -0.73661568727639      0.13640113300676
  C   -0.47031653700161      0.04017482448389     -0.44188473047945
  Br  0.54067861824892     -0.95792432562679      2.05843022500810
  H   -0.25406609539703      0.29364549462445     -1.48516434391483
  H   0.69783161529436     -1.74526687228815     -0.28407313764718
  C   2.00618040690123     -0.12733343241811     -0.19093406979753
  N   3.05909120501291      0.30569640230381     -0.48163040172443
  N   -0.62462170369855      1.37465156252427      0.26798689686268
  O   -1.63658696089687      1.56039903423888      0.92794538352651
  O   0.31458508415269      2.14288034643543      0.10507842909943
  C   -1.69763070842278     -0.73779468035450     -0.35226853694141
  N   -2.65989144278394     -1.41051266664679     -0.32588684699865
