12
Coordinates from ORCA-job run
  C   0.70949666147780     -0.72606705017703      0.23496124326100
  C   -0.44487949954031      0.00317859187422     -0.47420700797267
  Br  0.40986736579954     -0.79831472797835      2.15326858607471
  H   -0.16664204854026      0.16614562985033     -1.52076429891464
  H   0.70352242811634     -1.76395274780373     -0.10817145166433
  C   2.01058513424354     -0.14179361624541     -0.05917958630171
  N   3.08495721077734      0.27601214000658     -0.28733094947755
  N   -0.62825430018998      1.39263363873945      0.11104132725360
  O   0.31364241057620      2.14997621644815     -0.08505266210317
  O   -1.66228937109776      1.62720290701897      0.71942776335728
  C   -1.68163982963211     -0.76019980441266     -0.39060594251981
  N   -2.64936616199033     -1.42482117732051     -0.36238702099271
