12
Coordinates from ORCA-job run
  C   0.86398489968910     -0.63708777898621     -0.28308800524508
  C   -0.56811648330341     -0.10636957460065     -0.40093165586600
  Br  0.81780186972083     -2.58042064011658     -0.33649549302093
  H   -1.00925783291410     -0.46533275525307     -1.33643924289784
  H   1.43555937461600     -0.31148093774046     -1.15151370023423
  C   1.50253925500176     -0.16822837651486      0.93747153319239
  N   2.01153930977736      0.22772105624349      1.91986262357130
  N   -0.53089842909376      1.41745861938788     -0.54152331272982
  O   -1.48252493108341      2.04067058811340     -0.09816794798722
  O   0.43354130347348      1.86616387886067     -1.14899324022064
  C   -1.40568171797607     -0.47831816840955      0.72992550357867
  N   -2.06848661790779     -0.80477591098407      1.64289293785940
