19

C	-0.084532	-0.048586	-1.527464
C	0.0	0.0	0.0
Cl	-1.797702	-0.250039	-2.151481
H	1.093746	0.0	0.0
C	0.453226	1.269819	-2.074142
H	1.451453	1.373033	-1.636095
H	-0.173344	2.127991	-1.825002
H	0.529533	1.201403	-3.16275
N	0.701718	-1.1796	-1.952728
H	0.899501	-1.084846	-2.943495
H	1.584101	-1.09248	-1.428867
N	-0.519896	-1.254891	0.595088
O	-1.672333	-1.23976	1.04672
O	0.213598	-2.240695	0.622534
C	-0.628162	1.199845	0.666319
H	-1.66282	1.35769	0.352424
H	-0.618717	1.063201	1.749754
H	-0.030094	2.084425	0.44378
F	2.650661	0.0	0.0
