19

C	-0.303353	0.073261	-1.486509
C	0.0	0.0	0.0
Cl	-2.096441	0.749879	-1.754482
H	1.092261	0.0	0.0
C	0.629868	1.108206	-2.09636
H	0.591841	1.046593	-3.185008
H	0.358046	2.120597	-1.805076
H	1.626622	0.865219	-1.71216
N	-0.144692	-1.147992	-2.162482
H	-0.26103	-1.025265	-3.158478
H	-0.766685	-1.856012	-1.80239
N	-0.514671	-1.188369	0.710305
O	-0.16743	-1.315283	1.884086
O	-1.274664	-1.987735	0.145874
C	-0.39457	1.224126	0.813076
H	-0.051932	2.122947	0.302244
H	-1.474796	1.294394	0.963837
H	0.116483	1.170896	1.773431
F	2.598706	0.0	0.0
