19

C	-0.188292	-0.035649	-1.53489
C	0.0	0.0	0.0
Cl	-0.103294	-1.868392	-2.066886
H	1.089391	0.0	0.0
C	-1.516347	0.429519	-2.096141
H	-2.335913	-0.146085	-1.665873
H	-1.64642	1.489287	-1.864804
H	-1.528949	0.306392	-3.181933
N	0.912239	0.687096	-2.024847
H	1.776783	0.446599	-1.489927
H	1.020386	0.598847	-3.025864
N	-0.617546	-1.153828	0.685176
O	0.109402	-1.992538	1.210435
O	-1.854712	-1.194147	0.714336
C	-0.522026	1.280716	0.622294
H	-0.039751	2.119305	0.118178
H	-0.228899	1.309163	1.675636
H	-1.608703	1.373949	0.556023
F	2.67944	0.0	0.0
