19

C	-0.208566	0.030016	-1.539736
C	0.0	0.0	0.0
Cl	-0.14809	-1.701652	-2.133948
H	1.092098	0.0	0.0
C	-1.524715	0.598506	-2.034761
H	-1.607626	1.651414	-1.749889
H	-2.360697	0.048889	-1.601119
H	-1.561352	0.527375	-3.123099
N	0.921661	0.709504	-2.126182
H	1.755521	0.495668	-1.540789
H	0.752594	1.708226	-2.088804
N	-0.639746	-1.158949	0.658742
O	-1.879011	-1.180718	0.68091
O	0.069195	-2.029329	1.158004
C	-0.485451	1.265794	0.682423
H	-0.168816	1.245757	1.729164
H	-1.570962	1.388017	0.642065
H	0.004618	2.125818	0.218519
F	2.666085	0.0	0.0
