19

C	-0.346966	-0.018289	-1.504793
C	0.0	0.0	0.0
Cl	0.055376	1.675714	-2.119891
H	1.089897	0.0	0.0
C	0.632029	-0.932346	-2.230637
H	1.631811	-0.717786	-1.837956
H	0.575768	-0.770994	-3.310999
H	0.384807	-1.973533	-2.009205
N	-1.738264	-0.256807	-1.759116
H	-1.874212	-0.77055	-2.619321
H	-2.183285	-0.732429	-0.985193
N	-0.455638	-1.317428	0.536563
O	-1.584106	-1.38541	1.053068
O	0.287614	-2.290197	0.423539
C	-0.622604	1.118706	0.806839
H	-0.055982	2.027771	0.612
H	-1.673648	1.28908	0.563888
H	-0.543034	0.891478	1.87132
F	2.626516	0.0	0.0
