19

C	-0.203651	0.075453	-1.53813
C	0.0	0.0	0.0
Cl	-0.111719	-1.633892	-2.183169
H	1.092081	0.0	0.0
C	-1.522531	0.64031	-2.025463
H	-2.354353	0.064236	-1.620658
H	-1.544519	0.606599	-3.115913
H	-1.626648	1.681447	-1.703891
N	0.920315	0.787081	-2.099331
H	0.742608	1.782738	-2.023865
H	1.756989	0.558016	-1.524272
N	-0.639193	-1.181064	0.619327
O	0.068933	-2.056048	1.110051
O	-1.877944	-1.213026	0.62046
C	-0.493798	1.240988	0.720271
H	-1.57864	1.360438	0.675135
H	-0.186012	1.186838	1.768166
H	-0.003668	2.117115	0.289791
F	2.666848	0.0	0.0
