14

C	-0.477813	-0.01167	-1.46552
C	0.0	0.0	0.0
Cl	0.143661	1.451354	-2.2826
H	1.096018	0.0	0.0
H	0.016458	-0.859174	-1.946862
C	-1.986398	-0.080847	-1.618392
H	-2.257393	-0.101107	-2.675532
H	-2.453098	0.794364	-1.159217
H	-2.374342	-0.984523	-1.139083
C	-0.452185	-1.228889	0.655395
N	-0.817868	-2.236445	1.136469
C	-0.512011	1.162995	0.723376
N	-0.947768	2.093794	1.29209
Cl	3.198798	0.0	0.0
