14

C	-0.341424	-0.000132	-1.495643
C	0.0	0.0	0.0
Cl	-2.121254	0.046735	-1.761098
H	1.098509	0.0	0.0
H	0.047591	0.932847	-1.907401
C	0.27758	-1.193349	-2.193287
H	0.106886	-1.133382	-3.269799
H	-0.156684	-2.123898	-1.82217
H	1.352347	-1.189659	-1.989231
C	-0.485394	-1.204195	0.668928
N	-0.860192	-2.184647	1.195536
C	-0.483646	1.199699	0.677224
N	-0.857372	2.175684	1.212701
Cl	3.199986	0.0	0.0
