14

C	-0.475297	-0.03712	-1.466364
C	0.0	0.0	0.0
Cl	0.122551	1.426192	-2.297094
H	1.096015	0.0	0.0
H	0.035969	-0.879968	-1.937665
C	-1.980541	-0.13441	-1.624542
H	-2.465821	0.732283	-1.169515
H	-2.246804	-0.163259	-2.682788
H	-2.352433	-1.043321	-1.144035
C	-0.447264	-1.220451	0.674085
N	-0.810359	-2.222349	1.168795
C	-0.517036	1.171214	0.705164
N	-0.963804	2.106114	1.258162
Cl	3.194668	0.0	0.0
