14

C	-0.473428	-0.037966	-1.466926
C	0.0	0.0	0.0
Cl	0.115267	1.429478	-2.296386
H	1.096037	0.0	0.0
H	0.043676	-0.877115	-1.937348
C	-1.977527	-0.146446	-1.625235
H	-2.244363	-0.175167	-2.683313
H	-2.469547	0.715243	-1.168785
H	-2.342007	-1.059014	-1.146538
C	-0.446256	-1.221091	0.673828
N	-0.806518	-2.223972	1.168525
C	-0.519355	1.170347	0.70505
N	-0.96936	2.103962	1.257619
Cl	3.18922	0.0	0.0
