14

C	-0.470735	-0.041204	-1.468135
C	0.0	0.0	0.0
Cl	0.107274	1.431482	-2.295382
H	1.09614	0.0	0.0
H	0.054513	-0.875939	-1.937361
C	-1.973726	-0.161912	-1.630746
H	-2.331324	-1.079151	-1.156265
H	-2.237762	-0.189944	-2.689577
H	-2.474393	0.694035	-1.173118
C	-0.444557	-1.221154	0.675162
N	-0.800535	-2.224291	1.172434
C	-0.522264	1.17027	0.703085
N	-0.975872	2.103043	1.254018
Cl	3.189204	0.0	0.0
