15

C	-0.471941	0.118542	-1.432711
C	0.0	0.0	0.0
Cl	-0.084418	1.681399	-2.106974
H	1.088326	0.0	0.0
H	-0.336391	0.91702	0.486936
N	0.087782	-0.980297	-2.336986
O	0.144076	-0.754637	-3.536383
O	0.380157	-2.027566	-1.776545
N	-1.991981	-0.075493	-1.473255
O	-2.633352	0.73938	-0.829218
O	-2.43699	-1.022098	-2.107464
N	-0.624089	-1.151474	0.644413
H	0.035443	-1.919254	0.636573
H	-0.815039	-0.917793	1.609862
Cl	3.388535	0.0	0.0
