15

C	-0.502233	-0.002647	-1.428354
C	0.0	0.0	0.0
Cl	0.314066	-1.202927	-2.392664
H	1.091323	0.0	0.0
H	-0.319071	-0.953006	0.438276
N	-2.010319	-0.266214	-1.519671
O	-2.627719	-0.342891	-0.46184
O	-2.488429	-0.371868	-2.640588
N	-0.330737	1.389945	-2.037374
O	-1.323997	2.106543	-2.040427
O	0.794668	1.681906	-2.401124
N	-0.467073	1.181048	0.697632
H	-1.292074	0.990399	1.247802
H	0.277265	1.525173	1.289139
Cl	3.384991	0.0	0.0
