15

C	-0.523597	-0.070472	-1.416823
C	0.0	0.0	0.0
Cl	-2.246905	-0.418108	-1.482543
H	1.093815	0.0	0.0
H	-0.328743	-0.92721	0.473934
N	-0.256448	1.208682	-2.201313
O	-0.879226	1.368174	-3.242444
O	0.600397	1.951262	-1.740007
N	0.21788	-1.180214	-2.164217
O	0.05359	-2.301067	-1.706772
O	0.920866	-0.859332	-3.111199
N	-0.582766	1.160228	0.668756
H	0.12305	1.886049	0.676029
H	-0.774995	0.920776	1.631527
Cl	3.389196	0.0	0.0
