15

C	-0.52414	0.023252	-1.41945
C	0.0	0.0	0.0
Cl	-2.252708	0.350793	-1.493083
H	1.094951	0.0	0.0
H	-0.326962	0.942461	0.44457
N	0.204901	1.114397	-2.206607
O	0.905056	0.769891	-3.146373
O	0.0252	2.248926	-1.793229
N	-0.243815	-1.279734	-2.161509
O	-0.869288	-1.483147	-3.191368
O	0.630619	-1.989178	-1.683033
N	-0.573872	-1.147185	0.696475
H	0.160465	-1.833973	0.809742
H	-0.876919	-0.86618	1.618031
Cl	3.386874	0.0	0.0
