16

C	0.0	0.0	0.0
C	-0.601556	0.118793	-1.39613
Br	1.955801	0.0	0.0
H	-1.582937	-0.362777	-1.32449
H	0.014809	-0.433239	-2.105202
C	-0.513615	1.022801	0.975612
H	-0.094764	0.861354	1.966492
H	-1.604264	0.929281	1.010258
H	-0.237018	2.009329	0.605014
N	-0.306467	-1.412453	0.510991
O	-0.313694	-2.308457	-0.328165
O	-0.466223	-1.566053	1.715631
N	-0.710688	1.524371	-1.783982
H	-0.728402	1.575015	-2.794928
H	-1.62395	1.838257	-1.465212
Br	-3.925852	0.0	0.0
