16

C	0.0	0.0	0.0
C	-0.516016	0.238704	-1.414495
Br	1.956183	0.0	0.0
H	-0.149799	-0.553137	-2.069763
H	-1.604595	0.147132	-1.329501
C	-0.511567	1.012276	0.988559
H	-0.120296	0.824515	1.986257
H	-0.21518	1.998974	0.636467
H	-1.601401	0.930142	0.991713
N	-0.376968	-1.408695	0.437621
O	-0.474978	-2.264511	-0.437642
O	-0.507081	-1.606933	1.639935
N	-0.157929	1.58194	-1.855221
H	-0.945035	2.015681	-2.312166
H	0.626816	1.55656	-2.491277
Br	-3.986776	0.0	0.0
