16

C	0.0	0.0	0.0
C	-0.565605	0.240427	-1.387757
Br	1.949117	0.0	0.0
H	-0.348943	1.289649	-1.610027
H	-1.654097	0.142239	-1.26273
C	-0.526555	1.011892	0.992307
H	-0.130171	0.819963	1.987269
H	-1.619343	0.929738	0.996815
H	-0.232831	2.012413	0.668779
N	-0.370314	-1.398319	0.502771
O	-0.266748	-1.605095	1.705695
O	-0.711815	-2.231466	-0.330319
N	0.012002	-0.577712	-2.450117
H	-0.435132	-1.484043	-2.420972
H	-0.23101	-0.148922	-3.33417
Br	-4.002687	0.0	0.0
