16

C	0.0	0.0	0.0
C	-0.39847	0.250781	-1.475252
Br	1.951762	0.0	0.0
H	-0.096822	1.285466	-1.677597
H	0.228948	-0.391284	-2.094869
C	-0.606083	0.956514	0.98827
H	-0.349326	1.977216	0.697302
H	-1.695394	0.831124	0.957109
H	-0.256503	0.764659	2.000723
N	-0.353079	-1.435518	0.389307
O	-0.370882	-2.2696	-0.511095
O	-0.550649	-1.666739	1.576834
N	-1.766881	0.058029	-1.853661
H	-2.447333	0.565271	-1.295219
H	-2.033299	-0.913908	-1.771168
Br	-4.525025	0.0	0.0
