16

C	0.0	0.0	0.0
C	-0.560077	0.072585	-1.410357
Br	1.944336	0.0	0.0
H	-0.366747	1.096285	-1.74631
H	-1.647254	-0.036778	-1.280842
C	-0.536845	1.119226	0.860873
H	-1.6305	1.051452	0.848212
H	-0.218401	2.075172	0.440507
H	-0.168436	1.031892	1.880983
N	-0.36985	-1.333875	0.65718
O	-0.660911	-2.270511	-0.080789
O	-0.311226	-1.392126	1.879439
N	0.045065	-0.841115	-2.374938
H	-0.23009	-0.536116	-3.301196
H	-0.355602	-1.757978	-2.226657
Br	-3.998378	0.0	0.0
