15

C	0.0	0.0	0.0
C	-0.557194	0.326182	-1.373846
Br	1.962707	0.0	0.0
H	-1.650412	0.43072	-1.251542
H	-0.322526	-0.470725	-2.077551
C	-0.373515	0.972718	1.030999
N	-0.591047	1.689411	1.936721
C	-0.488658	-1.389539	0.400562
H	-0.116278	-1.646179	1.39289
H	-0.126549	-2.127737	-0.318746
H	-1.582946	-1.360805	0.404951
N	-0.025337	1.576096	-1.974338
O	0.227112	1.547479	-3.179981
O	0.096945	2.556761	-1.248238
Cl	-3.632374	0.0	0.0
