15

C	0.0	0.0	0.0
C	-0.18399	0.140324	-1.538631
Br	1.968012	0.0	0.0
H	0.384749	-0.668632	-1.994902
H	0.213545	1.10297	-1.853869
C	-0.418298	1.196939	0.720692
N	-0.697166	2.190117	1.283485
C	-0.566483	-1.279294	0.572471
H	-0.198318	-2.134121	0.001803
H	-0.286095	-1.384889	1.621071
H	-1.658232	-1.20347	0.485674
N	-1.534064	0.033161	-2.179612
O	-1.935164	-1.102991	-2.409541
O	-2.051476	1.083485	-2.548013
Cl	-3.714	0.0	0.0
