15

C	0.0	0.0	0.0
C	-0.556045	0.30065	-1.379026
Br	1.962581	0.0	0.0
H	-0.316532	-0.50591	-2.06962
H	-1.649817	0.404018	-1.259864
C	-0.372747	0.988711	1.0157
N	-0.587601	1.718862	1.910882
C	-0.484803	-1.383654	0.426162
H	-0.120782	-2.134493	-0.279285
H	-1.578832	-1.355622	0.429238
H	-0.112411	-1.62071	1.423286
N	-0.026595	1.542771	-1.995944
O	0.078657	2.539141	-1.286434
O	0.241471	1.492842	-3.196853
Cl	-3.631547	0.0	0.0
