15

C	0.0	0.0	0.0
C	-0.55486	0.105756	-1.42021
Br	1.968914	0.0	0.0
H	-1.645354	-0.045034	-1.337243
H	-0.322725	1.071396	-1.863041
C	-0.363805	1.240638	0.690778
N	-0.597294	2.246245	1.25228
C	-0.481094	-1.210075	0.792676
H	-1.574773	-1.18601	0.787381
H	-0.108915	-1.143628	1.816059
H	-0.119754	-2.126227	0.330911
N	0.012007	-0.911168	-2.342769
O	-0.115258	-2.097149	-2.045526
O	0.561338	-0.497328	-3.364842
Cl	-3.627222	0.0	0.0
