15

C	0.0	0.0	0.0
C	-0.207602	-0.048879	-1.540394
Br	1.971823	0.0	0.0
H	0.081322	0.907859	-1.972571
H	0.437359	-0.839456	-1.918839
C	-0.385694	1.289815	0.569997
N	-0.587226	2.346251	1.044342
C	-0.567928	-1.179546	0.75555
H	-0.224012	-2.111488	0.304114
H	-0.260781	-1.137343	1.802045
H	-1.661302	-1.106085	0.684799
N	-1.53842	-0.396747	-2.132537
O	-1.858229	-1.579393	-2.068793
O	-2.112432	0.485163	-2.760576
Cl	-3.721256	0.0	0.0
