15

C	0.0	0.0	0.0
C	-0.553541	-0.025454	-1.413426
Cl	1.756278	0.0	0.0
H	-1.693446	0.000656	-1.105274
H	-0.372233	0.867935	0.531882
N	-0.431949	-1.186906	0.832387
O	-0.574963	-2.279816	0.292117
O	-0.488158	-0.983212	2.040206
N	-0.204352	-1.094234	-2.284222
H	-0.661322	-1.928842	-1.94603
H	0.798033	-1.25405	-2.281397
N	-0.193279	1.274209	-2.018592
O	0.171232	1.316114	-3.197568
O	-0.319674	2.275003	-1.297828
H	-2.714188	0.0	0.0
