15

C	0.0	0.0	0.0
C	-0.375888	-0.016479	-1.504803
Cl	1.752848	0.0	0.0
H	-1.473318	-0.018326	-1.484691
H	-0.342468	0.907812	0.479764
N	-0.642472	-1.118605	0.731844
O	-0.626703	-1.007983	1.976223
O	-0.678595	-2.230752	0.144327
N	0.132679	-1.055042	-2.343023
H	1.14592	-1.034504	-2.347263
H	-0.163308	-1.916087	-1.894525
N	0.027569	1.318336	-2.056036
O	0.772089	1.355016	-3.034937
O	-0.425262	2.311466	-1.484238
H	-2.287252	0.0	0.0
