15

C	0.0	0.0	0.0
C	-0.438977	-0.038456	-1.490307
Cl	1.797649	0.0	0.0
H	0.447258	-0.103867	-2.128968
H	-0.262692	0.976883	0.400586
N	-0.515948	-1.106111	0.752099
H	-1.538109	-0.941081	0.649919
H	-0.28696	-0.923739	1.724957
N	-0.931429	1.404599	-1.872508
O	-0.431467	2.378378	-1.313096
O	-1.713236	1.477571	-2.816095
N	-1.370768	-1.032198	-1.826205
H	-1.597705	-0.94832	-2.808208
H	-2.203253	-0.815839	-1.234679
F	-2.821429	0.0	0.0
