15

C	0.0	0.0	0.0
C	-0.223447	0.003179	-1.541747
Cl	1.81779	0.0	0.0
H	0.534706	-0.642021	-1.988814
H	-0.439445	0.853508	0.506775
N	-0.427433	-1.281449	0.508404
H	0.365973	-1.867332	0.618304
H	-0.859142	-1.139747	1.414942
N	0.283934	1.377041	-2.074857
O	0.808205	1.377531	-3.184632
O	0.080267	2.385783	-1.406448
N	-1.482278	-0.235754	-2.10223
H	-2.204844	-0.201536	-1.335629
H	-1.496824	-1.055862	-2.649688
F	-2.676794	0.0	0.0
