15

C	0.0	0.0	0.0
C	-0.493786	-0.125343	-1.453984
Cl	1.872777	0.0	0.0
H	-1.566182	-0.335455	-1.281486
H	-0.283068	1.00492	0.310759
N	-0.501855	-0.933827	0.940369
H	-1.527881	-0.726313	0.848079
H	-0.349831	-1.864253	0.568055
N	0.15085	-1.303574	-2.108213
O	0.969484	-1.119296	-3.005412
O	-0.152918	-2.415054	-1.662763
N	-0.338496	1.035104	-2.277601
H	-1.057744	1.68848	-1.995128
H	0.573431	1.45437	-2.141475
F	-2.754332	0.0	0.0
