15

C	0.0	0.0	0.0
C	-0.585663	-0.256297	-1.422829
Cl	1.778319	0.0	0.0
H	-1.195692	-1.158621	-1.349139
H	-0.259762	1.040163	0.216962
N	-0.548472	-0.965862	0.907045
H	-1.569446	-0.792006	0.772498
H	-0.305728	-0.681202	1.851199
N	0.478762	-0.635255	-2.418945
O	0.874897	0.200601	-3.22945
O	0.881662	-1.796645	-2.358193
N	-1.290263	0.920217	-1.844807
H	-2.102183	0.862559	-1.190301
H	-1.647277	0.761747	-2.781813
F	-2.868572	0.0	0.0
