15

C	0.0	0.0	0.0
C	-0.299128	0.222276	-1.508557
Cl	1.787337	0.0	0.0
H	0.500984	-0.21311	-2.109455
H	-0.297943	0.891345	0.552089
N	-0.578127	-1.226574	0.458723
H	-1.594935	-1.042082	0.335275
H	-0.419091	-1.277031	1.460742
N	-0.035119	1.749585	-1.789618
O	0.33355	2.007785	-2.940239
O	-0.299067	2.60344	-0.945111
N	-1.549312	-0.185264	-1.962932
H	-1.691905	0.041945	-2.935623
H	-2.334174	0.010791	-1.273183
F	-3.03174	0.0	0.0
