15

C	0.0	0.0	0.0
C	-0.429031	0.091328	-1.510072
Cl	1.811952	0.0	0.0
H	0.483315	0.053421	-2.113591
H	-0.273464	0.917051	0.519491
N	-0.519691	-1.20481	0.573109
H	-1.543105	-0.97885	0.535456
H	-0.239366	-1.228473	1.548514
N	-0.930697	1.501189	-1.763806
O	-0.257981	2.405628	-1.264176
O	-1.899063	1.675271	-2.487268
N	-1.380086	-0.846721	-2.007111
H	-1.009067	-1.76259	-1.775852
H	-2.203858	-0.684764	-1.394834
F	-2.768757	0.0	0.0
