15

C	0.0	0.0	0.0
C	-0.533273	-0.046528	-1.436081
Cl	1.820323	0.0	0.0
H	-1.618465	-0.164776	-1.270801
H	-0.26268	1.000827	0.360577
N	-0.527909	-1.080734	0.762505
H	-0.315068	-0.912602	1.740608
H	-1.55745	-0.913832	0.624136
N	-0.024136	-1.260928	-2.148017
O	-0.66653	-2.302766	-2.027814
O	1.010031	-1.148505	-2.810194
N	-0.255184	1.108019	-2.240961
H	-0.916522	1.825869	-1.975864
H	0.688289	1.439459	-2.081917
F	-2.805923	0.0	0.0
