15
Coordinates from ORCA-job run
  C   0.49134960773323      0.22435480726880     -0.28448871980752
  C   -0.51840602820576     -0.88453017990260     -0.55886638580728
  Cl  1.46601482703171      0.39725305652812     -1.85399013603132
  H   -1.10289482905476     -0.61611719371916     -1.44144175819829
  H   0.04375281993759     -1.79949076128523     -0.80611223558083
  C   -0.15710963633977      1.56620766590420     -0.01874442920371
  H   -0.77366783334082      1.48791775562857      0.87579943796773
  H   -0.78625872687695      1.85528575434619     -0.86068481145129
  H   0.60553029466234      2.33644113679281      0.11877725197751
  N   1.32112129208713     -0.16006514299995      0.80745935183953
  H   1.95395259153532      0.58495662722005      1.07104944600647
  H   1.86862281630075     -0.98083759210073      0.57656661398216
  N   -1.41135040301726     -1.00609264684430      0.58600394096356
  H   -2.12434197236448     -1.69899911166718      0.39703104216108
  H   -0.87631482008828     -1.30728417516960      1.39064139118220
