15
Coordinates from ORCA-job run
  C   0.34071036852923      0.31833980968370     -0.12104063559733
  C   -0.88416011765968     -0.57899531713307      0.00215962919975
  Cl  1.11017367270382     -0.13328757934756     -1.78564222753464
  H   -1.40506248374276     -0.26874950608427      0.91314767833842
  H   -1.54214111081196     -0.39296261981704     -0.85559084842644
  C   -0.01626506437921      1.78462914318018     -0.23196823854354
  H   -0.50273439999964      2.09786871041020      0.69497095973825
  H   0.88268990645613      2.38741714046368     -0.37567017239926
  H   -0.68317146946181      1.96192260381152     -1.07637348286931
  N   1.21145049936427      0.06638425400546      0.95303860096090
  H   2.10148832043154      0.53485630316355      0.85283745875006
  H   1.33266723504185     -0.93267155613514      1.07183427462100
  N   -0.47508370200108     -1.97031346029915      0.15902194167628
  H   -1.23328498457671     -2.51693157421496      0.54461715030608
  H   -0.23627666989398     -2.35750635168710     -0.74534208822022
