15
Coordinates from ORCA-job run
  C   0.52089003180246      0.23574174233414     -0.22077734131180
  C   -0.32741973322560     -0.97198048076772      0.18096887912675
  Cl  0.75324904656710      0.12319511477478     -2.01858476158226
  H   0.24803749015220     -1.87712919167797     -0.07055443278338
  H   -0.41989337130171     -0.93420239046888      1.27261627603119
  C   -0.16146040036873      1.55051879395590      0.09016831532352
  H   -0.31348107144583      1.63089298736850      1.17204157268368
  H   -1.13453796129172      1.59655092182301     -0.39295042030122
  H   0.46760834841644      2.37641426775608     -0.24211584174125
  N   1.84175956180526      0.22323982763273      0.36327517006827
  H   1.77505148307959      0.43275983388902      1.35288049055126
  H   2.27576583310518     -0.68597063509273      0.24901935262507
  N   -1.66470670088193     -0.92957257773008     -0.39205035222395
  H   -1.61230803366269     -1.13454906242346     -1.38226100552171
  H   -2.24655452275000     -1.63690915137330      0.03832409905585
