15
Coordinates from ORCA-job run
  C   0.52339309623940      0.12575972245516     -0.20479710511010
  C   -0.38954934317186     -1.03599328596946      0.17162080343240
  Cl  0.79459271899985      0.05316526974140     -1.99357637187070
  H   0.13476687790036     -1.95717729096562     -0.11231523020235
  H   -0.48049732651802     -1.02759988299489      1.26472655718522
  C   -0.09472197858122      1.47837459008980      0.10591223450232
  H   -1.05253617531146      1.59777402357070     -0.39699689918926
  H   0.58259808751374      2.28047768545998     -0.19536550137360
  H   -0.26229230138912      1.54840716426835      1.18587739363239
  N   1.81683573190880     -0.11496774697688      0.40902048398156
  H   1.71534618266339     -0.03221649227003      1.41600994510393
  H   2.47503987568787      0.59517665536491      0.10711147877064
  N   -1.72297615307326     -0.88062906764991     -0.39361241629485
  H   -2.35021725626071     -1.55571880473750      0.02442341536382
  H   -1.68778203660775     -1.07483253938601     -1.38703878793142
