15
Coordinates from ORCA-job run
  C   0.56635200870160      0.28574434207296     -0.36632171507835
  C   -0.37948443799084     -0.91602933627143     -0.48877965872535
  Cl  1.42040750613220      0.41754978307608     -1.94615871654487
  H   -1.05336609674192     -0.76792886102550     -1.34253158558229
  H   0.22951776761713     -1.79890333683378     -0.70142053401032
  C   -0.19483184538307      1.57370557249351     -0.11897963304634
  H   0.50410443381208      2.40931561873232     -0.10266136511908
  H   -0.94371611887209      1.74372258932346     -0.89555247358139
  H   -0.68956173685967      1.51837180018476      0.85441090394443
  N   1.57376455887513      0.12659759136933      0.66242536510571
  H   1.07347983426613     -0.13394269951452      1.50851078122423
  H   2.18221965426880     -0.64841055591103      0.41868836792302
  N   -1.06963411537940     -1.10505843433057      0.78776567601406
  H   -1.26111302801833     -2.08473721951533      0.94656587073686
  H   -1.95713838442777     -0.61999685385025      0.78703871673969
