15
Coordinates from ORCA-job run
  C   0.53285438709426      0.09580060999909     -0.19771423101997
  C   -0.42248201212129     -1.00711924262368      0.24447258698853
  Cl  0.85628989748352     -0.13334881552727     -1.96453535692180
  H   0.08517686153586     -1.96177812499758      0.05729238957042
  H   -0.54785585507554     -0.90302820551977      1.32923526615549
  C   -0.05766789663294      1.48447410582635     -0.02136546145277
  H   -0.99688492682036      1.58381409612418     -0.56224888103633
  H   0.64901440545788      2.24158357209506     -0.36826146158857
  H   -0.25406591023166      1.65017749990633      1.04314452629056
  N   1.79962542681397     -0.12440475436189      0.47577586201002
  H   2.48287821424169      0.54901820345131      0.14660441150935
  H   1.66713691079458      0.03195045299021      1.47030358121465
  N   -1.73294992293315     -0.86842933730731     -0.37621066580578
  H   -2.38961716172500     -1.49389216160902      0.07271509385557
  H   -1.67045241788181     -1.14281789844599     -1.34920765976935
