12

C	-0.444101	0.058077	-1.453326
C	0.0	0.0	0.0
Br	-2.407927	0.237809	-1.589996
H	1.094658	0.0	0.0
H	-0.044743	0.96077	-1.91588
H	-0.356233	-0.93414	0.451479
C	-0.069092	-1.121142	-2.223439
N	0.207325	-2.071157	-2.856425
N	-0.427556	1.212073	0.689383
H	0.315045	1.497235	1.314434
H	-1.264253	1.049042	1.23221
Br	3.558045	0.0	0.0
