12

C	-0.579299	0.047071	-1.410673
C	0.0	0.0	0.0
Br	-0.022826	-1.50095	-2.466105
H	1.097668	0.0	0.0
H	-1.667865	-0.006555	-1.349462
H	-0.350983	-0.927676	0.459769
C	-0.229771	1.272316	-2.120079
N	0.014637	2.284035	-2.66506
N	-0.570309	1.14767	0.724061
H	0.059416	1.932761	0.587608
H	-0.535972	0.941624	1.715517
Br	3.639795	0.0	0.0
