12

C	-0.468783	-0.000615	-1.447054
C	0.0	0.0	0.0
Br	0.331774	1.460833	-2.481069
H	1.092052	0.0	0.0
H	-0.147676	-0.918359	-1.948873
H	-0.332292	-0.961177	0.430315
C	-1.918815	0.110695	-1.532859
N	-3.093871	0.172815	-1.522599
N	-0.492446	1.175405	0.688601
H	-1.437632	1.045805	1.026996
H	0.105086	1.391304	1.477957
Br	2.762499	0.0	0.0
