12

C	-0.444169	0.061144	-1.45385
C	0.0	0.0	0.0
Br	-2.406967	0.25073	-1.59002
H	1.094657	0.0	0.0
H	-0.040864	0.962335	-1.915986
H	-0.357007	-0.935119	0.448984
C	-0.075541	-1.119647	-2.223631
N	0.202164	-2.072033	-2.852647
N	-0.426139	1.210776	0.691568
H	-1.268173	1.050233	1.227944
H	0.314015	1.490796	1.32256
Br	3.558229	0.0	0.0
