12

C	-0.487568	-0.002615	-1.442123
C	0.0	0.0	0.0
Br	-0.023051	1.664787	-2.36258
H	1.099294	0.0	0.0
H	0.029533	-0.78467	-2.001987
H	-0.332332	-0.951818	0.431762
C	-1.931418	-0.191523	-1.548215
N	-3.085728	-0.392173	-1.635689
N	-0.613618	1.094552	0.752062
H	-0.502227	0.892596	1.738363
H	-0.064721	1.929347	0.577198
Br	3.634655	0.0	0.0
