12

C	-0.52806	0.029037	-1.44077
C	0.0	0.0	0.0
Br	0.019806	-1.556743	-2.447128
H	1.092273	0.0	0.0
H	-1.6216	-0.009436	-1.438916
H	-0.353982	-0.925971	0.462276
C	-0.132537	1.234528	-2.161735
N	0.127422	2.22883	-2.730921
N	-0.44793	1.155612	0.764118
H	-1.400287	1.420051	0.545127
H	0.161322	1.939955	0.57511
Br	3.614667	0.0	0.0
