12

C	-0.482105	-0.059163	-1.449193
C	0.0	0.0	0.0
Br	-0.039692	1.588818	-2.403391
H	1.092032	0.0	0.0
H	0.032371	-0.872484	-1.962966
H	-0.36303	0.923148	0.467952
C	-1.924976	-0.254186	-1.529775
N	-3.088104	-0.415924	-1.550277
N	-0.450911	-1.229319	0.646881
H	-1.290699	-1.074892	1.187721
H	0.280298	-1.566835	1.259838
Br	3.608281	0.0	0.0
