17

C	0.0	0.0	0.0
C	-0.575247	-0.021162	-1.38879
Br	1.95368	0.0	0.0
H	-1.848578	-0.05901	-0.936156
C	-0.452098	1.212965	0.701733
N	-0.656066	2.151691	1.341968
C	-0.382593	-1.246101	0.787671
H	-0.064917	-1.129217	1.829674
H	0.090018	-2.121736	0.35318
H	-1.475249	-1.347675	0.74604
N	-0.064623	-1.137064	-2.195531
O	0.750051	-0.879874	-3.084651
O	-0.467303	-2.266062	-1.919086
N	-0.366987	1.211022	-2.173745
O	-0.981217	1.263702	-3.24734
O	0.345815	2.108714	-1.724048
H	-2.6906	0.0	0.0
