14

C	0.0	0.0	0.0
C	-0.461132	-0.011612	-1.45899
F	1.395289	0.0	0.0
H	-1.56466	-0.036871	-1.349136
H	-0.327191	-0.927547	0.475543
N	-0.512809	1.105308	0.730692
H	-1.523012	0.885348	0.79733
H	-0.453674	1.916454	0.120506
C	-0.003546	-1.215445	-2.167522
N	0.347848	-2.171038	-2.755294
N	-0.040319	1.225439	-2.112605
H	0.958203	1.193779	-2.26517
H	-0.494236	1.307164	-3.010523
H	-3.055867	0.0	0.0
