14

C	0.0	0.0	0.0
C	-0.713214	-0.022043	-1.321213
F	1.409207	0.0	0.0
H	-1.827208	-0.122271	-0.906204
H	-0.275552	-0.906463	0.549462
N	-0.423926	1.152809	0.713328
H	0.168936	1.289867	1.519899
H	-0.374652	1.946728	0.088103
C	-0.340291	-1.171593	-2.126539
N	-0.052492	-2.100261	-2.792028
N	-0.625657	1.251838	-2.032837
H	-1.533246	1.455917	-2.436262
H	0.065889	1.214896	-2.770607
H	-3.126426	0.0	0.0
