14

C	0.0	0.0	0.0
C	-0.418539	-0.022985	-1.484311
F	1.40359	0.0	0.0
H	0.22071	-0.777184	-1.962383
H	-0.338724	-0.920087	0.479283
N	-0.527954	1.11219	0.670532
H	-0.568299	1.020691	1.67077
H	-0.108614	1.981991	0.380572
C	-0.019039	1.272478	-2.075817
N	0.290333	2.312528	-2.525411
N	-1.803569	-0.3085	-1.774689
H	-2.489372	0.031776	-1.049497
H	-1.934363	-1.31175	-1.778162
H	-3.825705	0.0	0.0
