14

C	0.0	0.0	0.0
C	-0.41832	-0.049893	-1.485078
F	1.380944	0.0	0.0
H	0.45076	-0.475718	-1.99988
H	-0.286817	-0.970542	0.42506
N	-0.532979	1.132656	0.682372
H	-0.391643	1.001664	1.679417
H	-1.55063	1.077244	0.528996
C	-0.570856	1.313087	-2.053347
N	-0.67862	2.334245	-2.625731
N	-1.551972	-0.938814	-1.675021
H	-2.333919	-0.605482	-1.051069
H	-1.87853	-0.855369	-2.633212
H	-3.307489	0.0	0.0
