14

C	0.0	0.0	0.0
C	-0.466797	-0.003472	-1.452957
F	1.404596	0.0	0.0
H	-1.574019	-0.04116	-1.328546
H	-0.327968	-0.927383	0.474994
N	-0.502205	1.102111	0.740811
H	-0.45053	1.91165	0.127825
H	-1.511126	0.884688	0.82498
C	-0.008583	-1.199835	-2.175794
N	0.359217	-2.129535	-2.794487
N	-0.070627	1.240594	-2.10859
H	0.914814	1.201634	-2.337822
H	-0.594626	1.357852	-2.965994
H	-3.044806	0.0	0.0
