11

C	0.0	0.0	0.0
C	-0.46263	0.274173	-1.414743
Cl	1.79934	0.0	0.0
H	-1.55375	0.290187	-1.42101
H	-0.267964	0.83883	0.650285
H	-0.095039	-0.518749	-2.068998
H	-0.080395	1.235353	-1.7636
N	-0.497557	-1.273266	0.444342
H	-0.321243	-1.372618	1.438296
H	-1.513201	-1.216012	0.327306
Cl	-3.677243	0.0	0.0
