11

C	0.0	0.0	0.0
C	-0.456705	-0.749558	-1.242088
Cl	1.800418	0.0	0.0
H	-1.547144	-0.718779	-1.253418
H	-0.300272	1.046798	-0.067905
H	-0.11947	-1.78999	-1.187299
H	-0.057297	-0.300719	-2.155865
N	-0.490002	-0.511862	1.251069
H	-0.361417	-1.519904	1.254601
H	-1.499223	-0.343554	1.242258
Cl	-3.664581	0.0	0.0
