17

C	-0.341894	0.122255	-1.499446
C	0.0	0.0	0.0
Cl	-2.053505	0.536946	-1.754444
H	1.096596	0.0	0.0
N	0.479692	1.038215	-2.221354
H	0.243358	1.980069	-1.930696
H	1.452693	0.856935	-1.964341
N	-0.100871	-1.2727	-2.10718
O	1.044556	-1.480144	-2.484711
O	-1.021651	-2.08216	-2.102006
C	-0.535635	-1.229388	0.725023
H	-0.273735	-1.158005	1.78208
H	-0.064663	-2.128824	0.327454
H	-1.61955	-1.31668	0.625949
C	-0.417325	1.234503	0.656921
N	-0.764	2.21791	1.198678
Br	3.424344	0.0	0.0
