17

C	-0.437546	-0.003418	-1.463734
C	0.0	0.0	0.0
Cl	-2.261664	-0.443072	-1.557829
H	1.094582	0.0	0.0
N	-0.115375	1.169382	-2.126285
H	-0.371654	1.154136	-3.102052
H	-0.412725	2.005241	-1.645758
N	0.196452	-1.142687	-2.271483
O	0.66987	-2.092254	-1.668283
O	0.143575	-1.011679	-3.490204
C	-0.486868	-1.144766	0.89235
H	0.040151	-1.062815	1.844921
H	-0.231885	-2.102121	0.446807
H	-1.561481	-1.091517	1.069567
C	-0.442298	1.270751	0.571104
N	-0.831628	2.285814	1.01766
Br	3.422828	0.0	0.0
