17

C	-0.308768	0.048379	-1.50193
C	0.0	0.0	0.0
Cl	-2.037009	0.383837	-1.858287
H	1.097019	0.0	0.0
N	0.510736	1.008217	-2.097145
H	1.475229	0.897522	-1.777284
H	0.464428	0.981748	-3.106887
N	-0.083652	-1.392768	-2.108495
O	0.883905	-1.514198	-2.849663
O	-0.869509	-2.281185	-1.804463
C	-0.521557	-1.186739	0.803377
H	-0.289832	-1.011042	1.855438
H	-0.019436	-2.103158	0.498029
H	-1.599539	-1.311558	0.688079
C	-0.449935	1.256349	0.592883
N	-0.844928	2.220977	1.134598
Br	3.415793	0.0	0.0
