17

C	-0.274014	-0.022909	-1.501827
C	0.0	0.0	0.0
Cl	-0.067058	1.660895	-2.197267
H	1.098306	0.0	0.0
N	0.532354	-0.996946	-2.09751
H	1.503957	-0.870915	-1.806213
H	0.440861	-0.999978	-3.104214
N	-1.735259	-0.330561	-1.843445
O	-1.95082	-0.852707	-2.932751
O	-2.584512	-0.005095	-1.022607
C	-0.434937	-1.291258	0.701803
H	-0.074135	-2.148664	0.133846
H	0.030238	-1.316084	1.689077
H	-1.518366	-1.347189	0.815117
C	-0.507844	1.173726	0.693741
N	-0.881542	2.095448	1.318602
Br	3.437352	0.0	0.0
