17

C	-0.336375	0.071642	-1.506377
C	0.0	0.0	0.0
Cl	-2.024241	0.557994	-1.787593
H	1.094328	0.0	0.0
N	0.530987	0.911222	-2.266324
H	0.342025	1.875678	-2.018414
H	1.493319	0.696921	-1.993857
N	-0.165923	-1.359815	-2.047523
O	-1.127481	-2.11937	-2.014258
O	0.97	-1.645959	-2.40182
C	-0.547118	-1.198285	0.766992
H	-0.289457	-1.09035	1.821748
H	-0.081495	-2.115087	0.404443
H	-1.631183	-1.280523	0.666515
C	-0.408679	1.259051	0.615492
N	-0.746751	2.259237	1.131556
Br	3.428473	0.0	0.0
