15
Coordinates from ORCA-job run
  C   -0.96963611453125      0.20558524112703      0.28730192129507
  C   0.51512918718669     -0.02003817460939      0.04126764956155
  H   -1.42036494345301      0.49454466070743     -0.66691522345469
  H   0.95942133436096     -0.35371759197621      0.99821124125984
  H   -1.10047782588414      1.03951880798209      0.99270346796866
  N   -1.59733575099047     -1.04394084145989      0.72835024606462
  H   -1.39758168937933     -1.19573216396394      1.70986142777708
  H   -2.60294010873099     -0.98511456181590      0.63249259524122
  C   1.20415990740118      1.26703107375488     -0.38325932088554
  H   0.75465215747632      1.63615021963938     -1.30803165199041
  H   2.26736226031750      1.09549154892015     -0.57296121757646
  H   1.12149401795387      2.03672040976392      0.38949055731572
  N   0.63664405721016     -1.01909652403467     -1.01489724546078
  H   0.03883995528173     -1.79976129836842     -0.76474763043764
  H   1.59063355578077     -1.35664080566645     -1.06786681667825
