15
Coordinates from ORCA-job run
  C   -0.99908462333658     -0.38555230679725      0.14082040812836
  C   0.51173882319208     -0.20286597108292      0.05327140232729
  H   -1.21365017890109     -1.42233962809192      0.44883281670703
  H   0.90865218509700     -0.20547004518933      1.08504773238698
  H   -1.40877925214017     -0.26172749168344     -0.86574828832904
  N   -1.59216738524619      0.62086936060139      1.02154633205171
  H   -2.59943608800346      0.61515741944986      0.92238642554740
  H   -1.38761622412915      0.38952425031742      1.98644348181760
  C   0.86869837453303      1.12425585610299     -0.59196801350796
  H   0.53655495214518      1.12013233763268     -1.63366641574768
  H   0.38063903164854      1.94301907496908     -0.06410660832811
  H   1.95031904227690      1.29130860975889     -0.57874356836613
  N   1.05202888317739     -1.29627525075509     -0.75727472358118
  H   0.94692858824788     -2.17657867436234     -0.26480345126788
  H   2.04517387143865     -1.15345754087003     -0.90103752983840
