15
Coordinates from ORCA-job run
  C   -0.75881618816154     -0.05075885089363      0.91460349811101
  C   0.61630504832657     -0.09222247383096      0.25382734241068
  H   -0.79502490270237      0.79789591523391      1.60606423139430
  H   1.36618487663028     -0.14923509915606      1.06011852860665
  H   -0.87231592823330     -0.96572389281871      1.52266697582163
  N   -1.79076784359478      0.11425398396467     -0.10260838794436
  H   -2.70955101239723      0.02853019338587      0.31305268930493
  H   -1.67507282568846     -0.63508322174878     -0.77501646084545
  C   0.88829081430388      1.15584569477152     -0.57116184087186
  H   0.81650639574561      2.04983694236251      0.05263202381999
  H   1.89489335594627      1.12467442944530     -1.00012769420537
  H   0.15877522848704      1.24032014274775     -1.37546306565826
  N   0.65549420110941     -1.26996772301921     -0.62398704261411
  H   1.48019519916413     -1.23522920074935     -1.21165566831194
  H   0.72390358106449     -2.11213683969482     -0.06294512901784
