15

C	-0.236692	-0.042716	-1.497319
C	0.0	0.0	0.0
Cl	-2.015261	0.010192	-1.879691
H	1.107245	0.0	0.0
H	-0.366801	0.952282	0.394409
N	0.355846	1.091658	-2.18787
H	-0.045806	1.950416	-1.824155
H	1.343923	1.090508	-1.932522
N	0.288415	-1.287275	-1.997786
H	0.277214	-1.241372	-3.011855
H	1.260842	-1.342349	-1.691828
N	-0.605162	-1.121626	0.717949
H	-0.019541	-1.314384	1.52395
H	-0.527738	-1.929462	0.108739
Cl	3.481952	0.0	0.0
