15

C	-0.626418	-0.009455	-1.387998
C	0.0	0.0	0.0
Cl	0.025545	-1.492389	-2.283976
H	1.090384	0.0	0.0
H	-0.325788	-0.915609	0.515763
N	-2.063352	-0.153932	-1.242354
H	-2.491329	-0.156747	-2.162988
H	-2.260546	-1.059259	-0.828055
N	-0.253084	1.153982	-2.110532
H	-0.230948	1.910462	-1.433536
H	-0.910455	1.36055	-2.851416
N	-0.417872	1.235472	0.669142
H	-1.329164	1.132028	1.093065
H	0.264623	1.464345	1.379675
Cl	3.58478	0.0	0.0
