13

C	-0.452024	0.043689	-1.447251
C	0.0	0.0	0.0
F	-0.200222	-1.216283	-1.980043
H	1.090788	0.0	0.0
H	-0.351025	-0.911591	0.479688
C	-1.906446	0.277977	-1.579201
N	-3.071801	0.37466	-1.695303
C	0.267082	1.029408	-2.28213
N	0.768537	1.758891	-3.054272
N	-0.449153	1.146161	0.728474
O	-0.458401	1.07696	1.965684
O	-0.658171	2.190053	0.076258
H	2.473933	0.0	0.0
