13

C	-0.468186	-0.016542	-1.427264
C	0.0	0.0	0.0
F	-1.8621	0.051445	-1.525133
H	1.091883	0.0	0.0
H	-0.335726	-0.887487	0.532599
C	0.093944	1.064885	-2.258718
N	0.535104	1.852848	-3.009385
C	-0.064299	-1.305075	-2.026969
N	0.240354	-2.328403	-2.516391
N	-0.460351	1.16115	0.720318
O	-0.593855	2.225512	0.097592
O	-0.578919	1.046098	1.947542
H	2.502068	0.0	0.0
