13

C	-0.470817	-0.031563	-1.427006
C	0.0	0.0	0.0
F	-1.862779	0.048492	-1.527116
H	1.091851	0.0	0.0
H	-0.339707	-0.879492	0.544797
C	0.105634	1.03238	-2.273863
N	0.549606	1.809892	-3.035037
C	-0.069272	-1.333996	-2.001333
N	0.225099	-2.362802	-2.48611
N	-0.453962	1.172014	0.710155
O	-0.555546	1.074854	1.939493
O	-0.600318	2.226198	0.074431
H	2.494248	0.0	0.0
