14

C	0.0	0.0	0.0
C	-0.509424	-0.208061	-1.414119
F	1.393576	0.0	0.0
H	0.230355	-0.83196	-1.928815
H	-0.323958	0.977725	0.366262
H	-1.460968	-0.744756	-1.358739
C	-0.450623	-1.101477	0.934394
H	-0.020194	-0.953763	1.928477
H	-0.107359	-2.068177	0.551606
H	-1.539607	-1.096741	0.996509
N	-0.637366	1.075464	-2.120848
H	-0.767565	0.882985	-3.108445
H	-1.516537	1.475108	-1.801776
Cl	-3.768771	0.0	0.0
