14

C	0.0	0.0	0.0
C	-0.468181	-0.229845	-1.421447
F	1.404184	0.0	0.0
H	-0.05819	-1.189253	-1.760447
H	-0.310769	0.997849	0.327064
H	-1.558639	-0.303121	-1.405165
C	-0.484481	-1.049981	0.968188
H	-0.161743	-2.041217	0.636067
H	-0.07243	-0.868228	1.964201
H	-1.575653	-1.01418	1.007365
N	-0.064307	0.813774	-2.368352
H	-0.64644	1.627153	-2.205091
H	0.890304	1.080544	-2.155992
Cl	-3.845662	0.0	0.0
