16

C	-0.540198	-0.019294	-1.411736
C	0.0	0.0	0.0
Br	0.305166	-1.510995	-2.379135
H	1.090042	0.0	0.0
N	-1.938797	-0.155108	-1.515172
H	-2.211274	-0.089444	-2.491362
H	-2.344273	0.62705	-1.00616
N	-0.017375	1.236483	-2.174296
O	1.017138	1.756095	-1.789459
O	-0.689007	1.574803	-3.147212
C	-0.387909	-1.180911	0.738884
N	-0.69091	-2.137347	1.354928
N	-0.416182	1.16823	0.732396
O	-1.093098	2.046359	0.14625
O	0.031869	1.273184	1.888854
H	2.326776	0.0	0.0
