16

C	-0.264066	0.101678	-1.485624
C	0.0	0.0	0.0
Br	-2.209799	0.290542	-1.950318
H	1.09312	0.0	0.0
N	0.484875	1.120058	-2.037169
H	0.570605	1.012529	-3.038139
H	1.40602	1.136095	-1.582533
N	0.090464	-1.307653	-2.137095
O	0.921967	-1.271429	-3.03747
O	-0.479817	-2.305665	-1.725098
C	-0.544154	-1.140581	0.697487
N	-0.885626	-2.060323	1.346679
N	-0.376644	1.245449	0.714794
O	-1.21994	1.173599	1.615122
O	0.244725	2.261887	0.406241
H	2.450313	0.0	0.0
