16

C	-0.245657	0.101071	-1.490711
C	0.0	0.0	0.0
Br	-2.19159	0.319262	-1.967666
H	1.093105	0.0	0.0
N	0.5253	1.099081	-2.048707
H	0.623953	0.963903	-3.046161
H	1.439809	1.108418	-1.580073
N	0.086415	-1.31866	-2.138396
O	0.908294	-1.295861	-3.049663
O	-0.494774	-2.308752	-1.721042
C	-0.549887	-1.136731	0.691798
N	-0.893793	-2.082944	1.300011
N	-0.357844	1.247194	0.714093
O	-1.156124	1.173685	1.652519
O	0.238553	2.26867	0.373709
H	2.445979	0.0	0.0
