16

C	-0.571217	-0.002019	-1.401757
C	0.0	0.0	0.0
Br	0.23173	-1.492821	-2.400176
H	1.086418	0.0	0.0
N	-1.973381	-0.129798	-1.451694
H	-2.286744	-0.056994	-2.41353
H	-2.358175	0.646398	-0.921546
N	-0.063138	1.249018	-2.179566
O	1.014126	1.724908	-1.864863
O	-0.788561	1.622621	-3.098392
C	-0.356912	-1.204025	0.719825
N	-0.587098	-2.183825	1.328405
N	-0.408009	1.157342	0.746414
O	-0.986332	2.097152	0.14369
O	-0.039065	1.203572	1.931878
H	2.307655	0.0	0.0
