19
Coordinates from ORCA-job run
  C   -0.78846100586361     -0.13599375093943     -0.23122881669665
  C   0.61913155166160     -0.05746181359954      0.37280697598594
  F   -0.67252898738678     -0.68297250381300     -1.51936786296226
  H   0.49539430165465      0.30450972439711      1.40382390465992
  N   -1.58212822035374     -1.07159483535666      0.52707981440300
  H   -2.55713137710914     -1.00563989295742      0.25963336575394
  H   -1.50672268279711     -0.87883021881313      1.51756575142158
  C   -1.45385012943856      1.21759866808811     -0.42904525756306
  H   -2.46367378763834      1.06514726292602     -0.81902225530676
  H   -1.52456485958176      1.75210478710210      0.52176277717000
  H   -0.90799347801044      1.83214276895905     -1.14494412642610
  C   1.50814103145102      0.93098372265576     -0.37996342813704
  H   1.52215200151384      0.68805277136008     -1.44514868221019
  H   2.53356009790257      0.87014313824325     -0.00758934728232
  H   1.17763239791091      1.96491971072467     -0.26458078374839
  C   1.27241793262950     -1.43895572943187      0.40942548480034
  H   0.65611158232182     -2.16623861623568      0.93659563554766
  H   2.24751574606169     -1.38031283575714      0.90020304541379
  H   1.42199788507188     -1.80560235755226     -0.60800619482340
