19
Coordinates from ORCA-job run
  C   -0.78926280994800      0.21311967599436     -0.32214791033835
  C   0.72707909472323      0.29236785307578     -0.13466811354278
  F   -1.04582069151198      0.79976992187473     -1.59985356983944
  H   0.98198649208689      1.34404904872391     -0.31290221286519
  N   -1.24817357408236     -1.13401525404205     -0.29912467722971
  H   -0.85368134883149     -1.65612033291571     -1.07126687994111
  H   -2.25729344898857     -1.16241241184115     -0.38160216217962
  C   -1.57414997615652      1.04975915077109      0.66711405092468
  H   -1.54168193879994      0.61171796377298      1.66394957518283
  H   -2.61514146697268      1.10615418957253      0.33918805816211
  H   -1.17582060663107      2.06512971655743      0.70094951428509
  C   1.46689294214006     -0.55480881001367     -1.16935694488006
  H   2.53375120797014     -0.31940970077291     -1.15265042434136
  H   1.09549572602444     -0.36247290138190     -2.17751348316763
  H   1.36949091335982     -1.62186193480011     -0.94882724260579
  C   1.14721335249831     -0.09195491996930      1.28149023136656
  H   0.77268434147195     -1.08775786010795      1.52808463827792
  H   2.23751827491043     -0.10392484894831      1.36096128420035
  H   0.77191351673734      0.61167145445024      2.02717626853149
