19
Coordinates from ORCA-job run
  C   -0.84645992752314     -0.05694329884633     -0.22925998034065
  C   0.58798119973506     -0.08572875514601      0.33199832078545
  F   -0.75857302704589     -0.54648241212113     -1.54328003200188
  H   0.50450212117635      0.22299212769539      1.38312674889388
  N   -1.78950077965349     -0.90684151656588      0.45079969242800
  H   -2.13155767756338     -0.46045494444673      1.29119831591540
  H   -1.38042729033609     -1.79866738047703      0.69375701583214
  C   -1.43525589447648      1.33830357306944     -0.31489443762969
  H   -2.48168702258541      1.25613023766456     -0.61179116821798
  H   -0.90782768206508      1.92764729112041     -1.06305298993448
  H   -1.37177968244334      1.85319069005132      0.64774058150791
  C   1.51176411659755      0.89243276770341     -0.39429377459372
  H   1.51209837083648      0.68585859613770     -1.46708553445945
  H   1.21525116669562      1.93185178645932     -0.24340298346613
  H   2.53683459315093      0.78839730784013     -0.02959725027777
  C   1.18549486999881     -1.49260410321259      0.28375974381626
  H   2.20175577698260     -1.48234223772262      0.68463344997709
  H   0.61970235941801     -2.21604575498116      0.87569234916398
  H   1.22868440910090     -1.85169397422221     -0.74604806739836
