19
Coordinates from ORCA-job run
  C   -0.81505503898745     -0.01925618974507     -0.13156695552987
  C   0.63772137531062     -0.02400643065247      0.35914834356140
  F   -0.79166961839188     -0.49633759415955     -1.47858199074631
  H   0.60953951085571      0.38873824747554      1.37449678502465
  N   -1.62211808909220     -0.87072176655191      0.67542457609648
  H   -2.58390179878117     -0.83888037523586      0.35936171247425
  H   -1.30374990481828     -1.82881495326129      0.61279198201343
  C   -1.43920004307033      1.36040138445855     -0.19379937083259
  H   -2.48743849254863      1.27465787804219     -0.49154110563587
  H   -1.39098715805117      1.84447716759395      0.78274965665131
  H   -0.93512413432388      1.97858050743019     -0.93455718945119
  C   1.53410529817847      0.85587190138060     -0.51115392289252
  H   1.24176160361174      1.90685373454919     -0.47788690759257
  H   1.50351570303664      0.52248263198063     -1.55038301648673
  H   2.56839394103606      0.79536540584686     -0.16375753352589
  C   1.20188518601087     -1.44417822661468      0.42922570577160
  H   1.09865813853482     -1.94464393347343     -0.53649953288916
  H   0.71034232503497     -2.04684926978625      1.19605496985596
  H   2.26432119645508     -1.41474011927719      0.68147379413361
