19
Coordinates from ORCA-job run
  C   -0.87759535370601     -0.06224266598340     -0.44588076962944
  C   0.60179192471013     -0.45400543900273     -0.31235218727350
  F   -1.09096675583928      0.08912879989073     -1.82871839254517
  H   0.69178052790787     -1.38107676669481     -0.89722305001940
  N   -1.79343697377367     -1.07867290253804     -0.00818130690703
  H   -1.42458946804716     -2.00789057058740     -0.16672850509301
  H   -2.03592967406257     -0.97461197863099      0.96640806238047
  C   -1.25033050840124      1.26018600927679      0.19337800545904
  H   -1.05159444179490      1.26297198465995      1.26707646674790
  H   -2.31536665864280      1.43159321376761      0.02898497745589
  H   -0.69613425452497      2.07538619934328     -0.27037948676531
  C   0.99514336810051     -0.75515424688112      1.13178940243743
  H   0.35306857940453     -1.51354477116739      1.58420596315605
  H   0.95033407054560      0.14562182003600      1.75013418440288
  H   2.02259386851463     -1.12545536735494      1.17196170285672
  C   1.54503823829344      0.57794444611830     -0.92622970644253
  H   2.56177919987289      0.17894364519707     -0.97390085958524
  H   1.23407500406495      0.84089960252363     -1.93741289637661
  H   1.58033930737805      1.48997898802745     -0.32393160425915
