15

C	0.025988	-0.010094	-1.538291
C	0.0	0.0	0.0
Br	-1.766052	-0.014337	-2.38199
H	1.101187	0.0	0.0
N	0.684504	1.225056	-1.908023
H	0.834336	1.233751	-2.910869
H	1.596064	1.164108	-1.437659
N	0.680232	-1.251021	-1.892698
H	1.59279	-1.185368	-1.424562
H	0.827375	-1.27305	-2.895829
C	-0.550986	-1.201065	0.593669
N	-0.978833	-2.159585	1.122564
C	-0.550021	1.208818	0.578433
N	-0.975746	2.175474	1.093783
F	2.566959	0.0	0.0
