15

C	-0.142269	-0.13163	-1.522415
C	0.0	0.0	0.0
Br	0.106594	2.148683	-2.247879
H	1.095353	0.0	0.0
N	0.937431	-0.784246	-1.994837
H	1.027573	-0.851797	-2.995852
H	1.799702	-0.551419	-1.444288
N	-1.3966	-0.430156	-2.026002
H	-2.077885	0.231733	-1.675934
H	-1.418072	-0.418476	-3.03695
C	-0.445463	-1.248224	0.616884
N	-0.783295	-2.232131	1.164366
C	-0.63986	1.131176	0.63927
N	-1.178629	1.987649	1.238599
F	2.551128	0.0	0.0
