15

C	-0.111459	0.021233	-1.534362
C	0.0	0.0	0.0
Br	-1.987358	-0.789055	-2.133942
H	1.094709	0.0	0.0
N	-0.062322	1.352949	-2.009067
H	-0.867709	1.895057	-1.716753
H	0.005345	1.368831	-3.018327
N	0.881561	-0.848641	-2.021071
H	1.016939	-0.752395	-3.018127
H	1.745544	-0.650146	-1.47656
C	-0.44246	-1.240532	0.60911
N	-0.756905	-2.22459	1.169
C	-0.583329	1.158494	0.639509
N	-1.058641	2.111846	1.137314
F	2.54354	0.0	0.0
