15

C	-0.52669	-0.020129	-1.443646
C	0.0	0.0	0.0
Br	0.555286	-1.396038	-2.445824
H	1.093958	0.0	0.0
N	-1.920479	-0.349827	-1.486679
H	-2.103188	-1.222711	-1.003581
H	-2.219873	-0.448836	-2.450302
N	-0.236515	1.235515	-2.086562
H	-0.316545	1.139817	-3.090736
H	-0.917165	1.912353	-1.755172
C	-0.4505	-1.173105	0.728562
N	-0.821275	-2.144203	1.280025
C	-0.469929	1.209842	0.654327
N	-0.82646	2.211121	1.158352
F	2.449313	0.0	0.0
