15

C	-0.104457	0.112853	-1.531101
C	0.0	0.0	0.0
Br	-1.983404	0.944715	-2.074282
H	1.097397	0.0	0.0
N	0.879581	1.037154	-1.934157
H	1.744576	0.795358	-1.409401
H	1.020037	1.027224	-2.935081
N	-0.031014	-1.172157	-2.117318
H	0.031309	-1.101143	-3.125303
H	-0.823487	-1.752928	-1.870563
C	-0.580342	-1.212528	0.533204
N	-1.035192	-2.210045	0.958331
C	-0.448444	1.182574	0.710599
N	-0.769707	2.13273	1.322942
F	2.539881	0.0	0.0
