15

C	-0.497907	-0.08484	-1.428292
C	0.0	0.0	0.0
F	-0.129994	1.141122	-2.038665
H	1.099312	0.0	0.0
H	-0.34744	-0.89911	0.517503
N	0.120577	-1.100443	-2.233293
H	1.128655	-1.009162	-2.131771
H	-0.152298	-2.000052	-1.858325
N	-1.912453	-0.246941	-1.458009
H	-2.302964	0.465853	-0.853915
H	-2.226299	-0.108981	-2.411283
N	-0.587534	1.18116	0.656982
H	-0.12277	1.986443	0.250493
H	-0.304062	1.162939	1.630477
Br	3.691854	0.0	0.0
