15

C	-0.424663	0.013265	-1.462502
C	0.0	0.0	0.0
F	-0.24987	1.275087	-1.986793
H	1.094637	0.0	0.0
H	-0.292185	-0.991541	0.397232
N	0.402169	-0.85087	-2.290706
H	1.368781	-0.545338	-2.178195
H	0.367506	-1.787804	-1.900875
N	-1.831788	-0.293096	-1.594542
H	-2.012073	-1.186922	-1.152818
H	-2.020117	-0.396972	-2.586884
N	-0.521851	1.121084	0.761808
H	-1.467083	0.936059	1.066663
H	0.06495	1.263724	1.572588
Br	3.68846	0.0	0.0
