15

C	-0.453931	0.03466	-1.448546
C	0.0	0.0	0.0
F	-0.162689	-1.258711	-1.96469
H	1.101014	0.0	0.0
H	-0.342557	0.924193	0.474733
N	-1.870587	0.193871	-1.669751
H	-2.333222	-0.429575	-1.015125
H	-2.102028	1.145428	-1.41129
N	0.249497	1.045638	-2.145414
H	1.244966	0.956347	-1.960366
H	0.073499	0.94515	-3.137673
N	-0.62213	-1.145295	0.674577
H	-0.357688	-1.107752	1.652305
H	-0.179725	-1.975698	0.297182
Br	3.715514	0.0	0.0
