15

C	-0.580124	0.008635	-1.3972
C	0.0	0.0	0.0
F	-2.038431	0.049424	-1.175261
H	1.090603	0.0	0.0
H	-0.333372	-0.929778	0.484047
N	-0.206242	1.162061	-2.12135
H	-0.138302	1.921208	-1.452179
H	-0.925954	1.380964	-2.800076
N	-0.289475	-1.180035	-2.11552
H	-0.452858	-1.047574	-3.104569
H	-0.857155	-1.941482	-1.768738
N	-0.435098	1.21419	0.697998
H	0.208647	1.399518	1.456318
H	-1.365267	1.08964	1.074872
Br	3.791904	0.0	0.0
