15

C	-0.589633	-0.020253	-1.393321
C	0.0	0.0	0.0
F	-2.048818	-0.044634	-1.156787
H	1.090602	0.0	0.0
H	-0.331351	0.933971	0.477207
N	-0.29415	1.154309	-2.128861
H	-0.494149	1.022054	-3.11116
H	-0.826242	1.934038	-1.767951
N	-0.237837	-1.188377	-2.105074
H	-0.969311	-1.408801	-2.768981
H	-0.173332	-1.937151	-1.424278
N	-0.432069	-1.206227	0.712574
H	0.229464	-1.398157	1.452812
H	-1.350597	-1.07294	1.113122
Br	3.78553	0.0	0.0
