16

C	-0.545035	-0.016897	-1.423158
C	0.0	0.0	0.0
Cl	0.084516	-1.425941	-2.291945
H	1.094236	0.0	0.0
H	-0.359264	0.920251	0.464981
C	-2.05984	-0.021578	-1.491954
H	-2.445668	0.86347	-0.983718
H	-2.417555	-0.914146	-0.983335
H	-2.394238	-0.022739	-2.53185
N	-0.078507	1.260164	-2.126191
O	-0.417025	2.294751	-1.552018
O	0.519439	1.200894	-3.189539
N	-0.544103	-1.155295	0.730484
H	-0.477968	-0.943648	1.719091
H	0.093743	-1.929082	0.575007
Br	3.629725	0.0	0.0
