16

C	-0.548944	-0.03533	-1.420939
C	0.0	0.0	0.0
Cl	0.01839	-1.493274	-2.250976
H	1.098414	0.0	0.0
H	-0.351256	0.930936	0.449526
C	-2.062994	0.022145	-1.483369
H	-2.454858	-0.829338	-0.930876
H	-2.40557	0.946524	-1.015129
H	-2.405346	-0.012894	-2.520022
N	-0.034442	1.200064	-2.163582
O	-0.285193	2.261896	-1.595273
O	0.5094	1.086709	-3.251512
N	-0.554044	-1.135552	0.752374
H	-0.47341	-0.910118	1.736981
H	0.068292	-1.922852	0.602071
Br	3.632261	0.0	0.0
