16

C	-0.355829	-0.001621	-1.486067
C	0.0	0.0	0.0
Cl	0.045618	1.597751	-2.175568
H	1.092566	0.0	0.0
H	-0.373599	0.911924	0.464425
C	0.356232	-1.08433	-2.258566
H	1.42559	-0.976894	-2.059155
H	0.157423	-1.00694	-3.325515
H	0.020674	-2.064523	-1.90969
N	-1.868017	-0.123688	-1.674619
O	-2.58392	0.364309	-0.800801
O	-2.283791	-0.676554	-2.69037
N	-0.454921	-1.16157	0.740182
H	-1.434785	-1.358753	0.591427
H	0.108364	-1.972466	0.527155
Br	3.635657	0.0	0.0
