16

C	-0.436192	-0.042131	-1.452488
C	0.0	0.0	0.0
Cl	-0.194367	1.56565	-2.196848
H	1.092912	0.0	0.0
H	-0.367448	0.912642	0.47367
C	0.283276	-1.100199	-2.247836
H	0.062887	-2.071021	-1.8024
H	-0.02551	-1.094614	-3.291796
H	1.354492	-0.902116	-2.16129
N	-1.947825	-0.266016	-1.492713
O	-2.614964	0.267871	-0.609274
O	-2.40924	-0.935514	-2.412594
N	-0.46695	-1.227275	0.646057
H	-1.234311	-1.028394	1.272164
H	0.296337	-1.622269	1.178925
Br	3.603996	0.0	0.0
