18

C	-0.551033	0.004528	-1.399502
C	0.0	0.0	0.0
F	-0.183189	-1.120144	-2.086231
H	1.095086	0.0	0.0
N	-1.954872	0.139308	-1.450564
H	-2.19287	0.851174	-0.768925
H	-2.255087	0.395733	-2.38194
N	0.091892	1.14053	-2.245835
O	-0.1935	1.130928	-3.447272
O	0.767989	1.995551	-1.688707
C	-0.454722	-1.261246	0.716295
H	-1.535466	-1.281158	0.895549
H	-0.18098	-2.144811	0.140064
H	0.078506	-1.315395	1.668888
N	-0.524644	1.207982	0.683387
H	-0.704554	0.967054	1.650772
H	0.2463	1.866957	0.68734
F	2.640073	0.0	0.0
