18

C	-0.597254	-0.034833	-1.384702
C	0.0	0.0	0.0
F	-1.997252	-0.322957	-1.309779
H	1.091122	0.0	0.0
N	-0.352897	1.127591	-2.107251
H	-0.448347	1.901742	-1.460212
H	-0.945573	1.189886	-2.921541
N	-0.133265	-1.208728	-2.247464
O	-0.503574	-1.174588	-3.421688
O	0.52238	-2.111441	-1.744202
C	-0.506536	-1.106444	0.909935
H	-0.366578	-2.091031	0.464368
H	-1.568425	-0.980627	1.159073
H	0.084593	-1.072523	1.82955
N	-0.302375	1.343166	0.553739
H	-1.016874	1.286073	1.270808
H	0.563756	1.650871	0.983626
F	2.626192	0.0	0.0
