18

C	-0.168178	0.098373	-1.516355
C	0.0	0.0	0.0
F	-1.372598	0.643126	-1.886883
H	1.094365	0.0	0.0
N	0.900022	0.815626	-2.134226
H	1.748144	0.521443	-1.61028
H	0.743127	1.776842	-1.841339
N	-0.175248	-1.317492	-2.09051
O	-1.266609	-1.84235	-2.308487
O	0.914322	-1.861093	-2.226183
C	-0.653694	-1.184785	0.681737
H	-0.245353	-2.131176	0.319413
H	-1.740865	-1.197376	0.532458
H	-0.449631	-1.131647	1.755416
N	-0.382814	1.313002	0.525018
H	0.218674	1.512821	1.314801
H	-1.346431	1.307283	0.841532
F	2.692248	0.0	0.0
