18

C	-0.071451	-0.048513	-1.526793
C	0.0	0.0	0.0
F	-0.048224	1.260644	-2.031704
H	1.10533	0.0	0.0
N	0.989018	-0.826261	-1.980657
H	1.837547	-0.588612	-1.412273
H	1.132378	-0.738828	-2.977748
N	-1.423049	-0.573538	-2.045605
O	-2.323153	0.24161	-2.228031
O	-1.548207	-1.791643	-2.161352
C	-0.531651	-1.25951	0.64801
H	-1.622418	-1.315211	0.572072
H	-0.087628	-2.13994	0.184352
H	-0.259022	-1.259771	1.708312
N	-0.674847	1.182599	0.537896
H	-0.389231	1.24676	1.510751
H	-0.273502	1.992058	0.077914
F	2.753877	0.0	0.0
