18

C	-0.605331	-0.05597	-1.379195
C	0.0	0.0	0.0
F	-2.004651	-0.33084	-1.287519
H	1.095629	0.0	0.0
N	-0.360408	1.091603	-2.12796
H	-0.978344	1.147075	-2.924858
H	-0.43708	1.877738	-1.491804
N	-0.146861	-1.244063	-2.224737
O	-0.602265	-1.275981	-3.369735
O	0.603609	-2.081318	-1.740371
C	-0.488886	-1.111097	0.915726
H	0.108812	-1.070352	1.830019
H	-1.549728	-0.99907	1.172824
H	-0.339337	-2.094999	0.471214
N	-0.315819	1.341551	0.543476
H	0.530197	1.646117	1.012109
H	-1.06528	1.289603	1.224103
F	2.624534	0.0	0.0
