18

C	-0.063187	-0.093807	-1.525547
C	0.0	0.0	0.0
F	0.001191	1.199745	-2.053992
H	1.10391	0.0	0.0
N	0.992221	-0.900284	-1.954805
H	1.155599	-0.800857	-2.948024
H	1.835383	-0.648964	-1.384729
N	-1.407017	-0.614745	-2.069803
O	-1.60933	-1.823751	-1.96727
O	-2.213213	0.196376	-2.521267
C	-0.522527	-1.23157	0.706129
H	-0.236346	-1.179694	1.763649
H	-1.614666	-1.299006	0.643843
H	-0.080429	-2.131325	0.277817
N	-0.681283	1.200901	0.485658
H	-0.227846	1.999262	0.057894
H	-0.472703	1.262246	1.476221
F	2.75344	0.0	0.0
