18

C	-0.533554	0.131563	-1.414285
C	0.0	0.0	0.0
F	-0.42554	-1.05753	-2.089829
H	1.096159	0.0	0.0
N	-1.864739	0.627361	-1.510385
H	-2.221908	0.751807	-0.569312
H	-2.429027	-0.005016	-2.058964
N	0.356208	1.10733	-2.213961
O	0.779593	0.766549	-3.311827
O	0.512464	2.207546	-1.696268
C	-0.473038	-1.314393	0.599729
H	-0.090462	-1.377765	1.622955
H	-1.566629	-1.401191	0.633584
H	-0.054362	-2.154456	0.046668
N	-0.561466	1.111412	0.805966
H	-0.103769	1.955012	0.471873
H	-0.201943	0.965733	1.74404
F	2.652204	0.0	0.0
