18

C	-0.088457	-0.038454	-1.522768
C	0.0	0.0	0.0
F	-0.10397	1.2527	-2.060299
H	1.097986	0.0	0.0
N	0.958713	-0.824072	-1.999549
H	1.075524	-0.73733	-2.998687
H	1.814461	-0.587795	-1.449416
N	-1.429737	-0.55418	-2.078155
O	-1.432116	-1.106505	-3.176964
O	-2.438045	-0.321566	-1.411423
C	-0.447862	-1.312334	0.632803
H	-1.539621	-1.396725	0.671137
H	-0.043682	-2.16494	0.082058
H	-0.055872	-1.358129	1.653348
N	-0.558962	1.197827	0.591063
H	-1.483708	1.007458	0.959348
H	0.044055	1.480563	1.352601
F	2.729346	0.0	0.0
