18

C	-0.514496	0.027524	-1.419064
C	0.0	0.0	0.0
F	0.087533	-0.923261	-2.199169
H	1.091919	0.0	0.0
N	-1.917632	-0.13286	-1.532675
H	-2.392404	0.312049	-0.763377
H	-2.268778	0.249967	-2.400266
N	-0.067039	1.364404	-2.079355
O	-0.894445	2.285395	-2.081315
O	1.066794	1.435638	-2.520441
C	-0.482389	-1.257186	0.709254
H	-0.284202	-2.145616	0.104202
H	0.090178	-1.33925	1.635287
H	-1.549154	-1.223524	0.958627
N	-0.373848	1.210947	0.755678
H	0.469753	1.772055	0.806765
H	-1.078595	1.767616	0.287822
F	2.629783	0.0	0.0
