18

C	-0.146856	0.095238	-1.529884
C	0.0	0.0	0.0
F	-0.418587	1.382469	-1.919703
H	1.097383	0.0	0.0
N	0.991624	-0.396921	-2.199351
H	0.83889	-1.327546	-2.555874
H	1.799961	-0.346552	-1.547053
N	-1.404222	-0.674298	-1.984996
O	-1.274638	-1.78908	-2.492956
O	-2.484291	-0.152407	-1.723863
C	-0.414958	-1.376934	0.505173
H	0.057647	-2.17286	-0.075241
H	-0.080705	-1.481911	1.540508
H	-1.503947	-1.520376	0.473878
N	-0.572104	1.11275	0.727143
H	-1.474753	0.864921	1.115048
H	0.055321	1.344702	1.486099
F	2.713537	0.0	0.0
