16

C	0.0	0.0	0.0
C	-0.298664	0.041087	-1.534721
Br	1.967742	0.0	0.0
H	0.22411	0.920124	-1.917868
C	-0.400755	1.289183	0.562014
N	-0.578564	2.354797	1.026686
C	-0.49964	-1.176444	0.818586
H	-0.201739	-1.025672	1.858271
H	-1.590481	-1.192049	0.747768
H	-0.073697	-2.104639	0.445362
C	-1.643832	0.071969	-2.133493
N	-2.311743	0.13592	-3.107105
N	0.385063	-1.115357	-2.248953
O	0.089926	-2.250728	-1.897199
O	1.152073	-0.81456	-3.157673
Br	-3.620944	0.0	0.0
