16

C	0.0	0.0	0.0
C	-0.57441	0.044881	-1.421765
Br	1.952587	0.0	0.0
H	-1.686772	0.096895	-1.268805
C	-0.419621	1.13712	0.820489
N	-0.66257	1.984448	1.597763
C	-0.458948	-1.297746	0.673716
H	-1.553232	-1.316657	0.648643
H	-0.038794	-2.160785	0.154262
H	-0.114145	-1.305473	1.709202
C	-0.197049	-1.136931	-2.181557
N	0.154476	-2.105729	-2.747924
N	-0.179016	1.272718	-2.204715
O	-0.044967	2.312496	-1.572539
O	-0.081712	1.148807	-3.420888
Br	-3.688152	0.0	0.0
