17

C	-0.352516	-0.138556	-1.496766
C	0.0	0.0	0.0
F	-0.053315	-1.449825	-1.842538
H	1.094236	0.0	0.0
N	-1.754292	0.05502	-1.740238
H	-2.09066	0.874477	-1.24993
H	-1.879223	0.196665	-2.73693
N	0.478303	0.670488	-2.356775
H	1.454812	0.46715	-2.143231
H	0.327434	1.647844	-2.131435
C	-0.552825	-1.115821	0.880127
H	-0.148359	-2.06407	0.531747
H	-1.643256	-1.154175	0.833682
H	-0.237593	-0.965212	1.913615
C	-0.454076	1.309452	0.455671
N	-0.905011	2.337801	0.80246
Cl	3.366319	0.0	0.0
