17

C	-0.487583	-0.038358	-1.450729
C	0.0	0.0	0.0
F	-1.9207	0.052605	-1.390245
H	1.094217	0.0	0.0
N	0.04228	1.034063	-2.210453
H	0.176085	1.867584	-1.651567
H	-0.571509	1.234371	-2.992089
N	-0.185131	-1.291816	-2.077337
H	0.286954	-1.139197	-2.955944
H	-1.019303	-1.849471	-2.187365
C	-0.46751	-1.223193	0.787789
H	-0.05837	-2.113319	0.309974
H	-0.079405	-1.172538	1.805552
H	-1.557708	-1.285063	0.822044
C	-0.474541	1.229598	0.636931
N	-0.876856	2.213361	1.137866
Cl	3.45014	0.0	0.0
