17

C	-0.367751	0.073361	-1.500172
C	0.0	0.0	0.0
F	-0.170592	-1.237203	-1.994968
H	1.096928	0.0	0.0
N	-1.732984	0.378051	-1.851861
H	-1.957342	1.297335	-1.491891
H	-2.350522	-0.30266	-1.426601
N	0.477446	1.020795	-2.109004
H	0.365845	0.985367	-3.113623
H	1.446752	0.867285	-1.839866
C	-0.5255	-1.241741	0.713455
H	-0.094671	-2.128691	0.252267
H	-0.227201	-1.215803	1.762932
H	-1.617758	-1.305018	0.668139
C	-0.484048	1.212598	0.651218
N	-0.934998	2.148192	1.200979
Cl	3.365546	0.0	0.0
