17

C	-0.363499	-0.0702	-1.497514
C	0.0	0.0	0.0
F	-0.108216	1.215868	-2.011228
H	1.09678	0.0	0.0
N	0.449826	-1.060914	-2.094705
H	1.424188	-0.904947	-1.843148
H	0.334295	-1.017379	-3.099108
N	-1.738609	-0.323331	-1.847722
H	-1.996752	-1.240597	-1.508696
H	-2.328236	0.37367	-1.407383
C	-0.459393	-1.23965	0.769822
H	-0.078547	-2.129024	0.266877
H	-0.050164	-1.214515	1.781272
H	-1.549811	-1.29624	0.8395
C	-0.553699	1.205264	0.600866
N	-1.086458	2.129006	1.093873
Cl	3.358933	0.0	0.0
