17

C	-0.341437	-0.109215	-1.50265
C	0.0	0.0	0.0
F	-1.642407	-0.682424	-1.60544
H	1.095482	0.0	0.0
N	-0.280199	1.150063	-2.135059
H	-0.937432	1.806671	-1.736526
H	-0.438941	1.027556	-3.125705
N	0.527408	-1.001693	-2.22046
H	0.403573	-1.939824	-1.858759
H	1.486864	-0.722795	-2.016933
C	-0.456798	-1.2191	0.803584
H	-0.050311	-2.12805	0.355443
H	-0.061545	-1.152432	1.818735
H	-1.544177	-1.295912	0.838386
C	-0.535389	1.22065	0.587091
N	-1.02494	2.187051	1.042691
Cl	3.361314	0.0	0.0
