11

C	0.0	0.0	0.0
C	-0.516949	-0.045929	-1.414419
F	1.384443	0.0	0.0
H	0.109698	-0.748318	-1.977365
H	-0.343461	-0.875682	0.555714
H	-0.354033	0.894053	0.514097
H	-1.550876	-0.401593	-1.350419
N	-0.418088	1.287906	-2.037921
H	-0.620969	1.183676	-3.02698
H	-1.204352	1.810914	-1.6573
H	-3.217391	0.0	0.0
