11

C	0.0	0.0	0.0
C	-0.543086	0.04458	-1.395768
F	1.396344	0.0	0.0
H	-0.282027	-0.890569	-1.920265
H	-0.331528	0.883876	0.545669
H	-0.344674	-0.895011	0.520731
H	-1.634971	0.080151	-1.255615
N	-0.063303	1.247878	-2.084363
H	-0.597996	1.376722	-2.933958
H	0.905883	1.116446	-2.346519
H	-3.392253	0.0	0.0
