11

C	0.0	0.0	0.0
C	-0.380586	0.001007	-1.48464
F	1.390049	0.0	0.0
H	0.116514	-0.874001	-1.922197
H	-0.356102	-0.890953	0.520686
H	-0.356108	0.890249	0.521889
H	0.116404	0.876663	-1.920993
N	-1.7747	0.001193	-1.875456
H	-2.272133	-0.767263	-1.432592
H	-2.272337	0.768816	-1.431363
H	-3.874088	0.0	0.0
