16

C	-0.245395	0.020612	-1.514496
C	0.0	0.0	0.0
F	-0.033328	-1.303427	-1.986008
H	1.097948	0.0	0.0
C	-1.648549	0.308943	-1.902918
N	-2.764109	0.523414	-2.201276
N	0.647539	0.946847	-2.07653
H	1.578593	0.794627	-1.663569
H	0.671386	0.881205	-3.085918
C	-0.553195	-1.223161	0.714155
H	-0.295985	-1.164012	1.773826
H	-0.091187	-2.11847	0.300181
H	-1.641027	-1.299658	0.621423
C	-0.47202	1.238745	0.594689
N	-0.862694	2.210955	1.128676
H	2.752618	0.0	0.0
