16

C	-0.474266	-0.059735	-1.446432
C	0.0	0.0	0.0
F	0.045981	1.053173	-2.123495
H	1.094945	0.0	0.0
C	0.056536	-1.253638	-2.145612
N	0.383554	-2.203124	-2.753243
N	-1.898758	-0.09404	-1.553101
H	-2.279942	0.707485	-1.061477
H	-2.173146	-0.045215	-2.528109
C	-0.415901	-1.228913	0.806411
H	-0.007766	-1.135691	1.815368
H	-1.498716	-1.359917	0.855028
H	0.03774	-2.115234	0.356212
C	-0.511411	1.223753	0.590996
N	-0.952666	2.205118	1.068028
H	2.69124	0.0	0.0
