16

C	-0.477469	-0.043483	-1.446376
C	0.0	0.0	0.0
F	0.048265	1.071611	-2.116307
H	1.094849	0.0	0.0
C	0.043848	-1.236633	-2.154294
N	0.36792	-2.184963	-2.765136
N	-1.903235	-0.068012	-1.550829
H	-2.179101	-0.009465	-2.524627
H	-2.278558	0.733019	-1.052457
C	-0.416149	-1.236017	0.795841
H	-1.498865	-1.368492	0.841267
H	-0.010173	-1.150893	1.806269
H	0.039839	-2.117868	0.339312
C	-0.507711	1.219011	0.604401
N	-0.94556	2.195285	1.094913
H	2.69291	0.0	0.0
