16

C	-0.280838	-0.097066	-1.493416
C	0.0	0.0	0.0
F	-1.608517	-0.471676	-1.756209
H	1.097482	0.0	0.0
C	-0.127525	1.223312	-2.162662
N	0.047677	2.241861	-2.723087
N	0.593853	-1.093132	-2.021446
H	0.673096	-1.006208	-3.02677
H	1.521967	-0.957626	-1.592189
C	-0.447431	-1.257498	0.74461
H	-0.056796	-1.217753	1.764282
H	-1.535016	-1.349415	0.776252
H	-0.025908	-2.131769	0.24894
C	-0.547202	1.198198	0.604433
N	-1.004771	2.144595	1.13265
H	2.696528	0.0	0.0
