16

C	-0.251531	0.020627	-1.512138
C	0.0	0.0	0.0
F	-0.014837	-1.298024	-1.98897
H	1.097967	0.0	0.0
C	-1.664949	0.275897	-1.886087
N	-2.794043	0.451974	-2.15881
N	0.620317	0.964985	-2.076847
H	0.638669	0.902737	-3.08674
H	1.556124	0.824822	-1.671902
C	-0.550565	-1.224947	0.713804
H	-0.096613	-2.119972	0.289672
H	-0.28184	-1.172498	1.771164
H	-1.639967	-1.296323	0.631851
C	-0.473284	1.236335	0.598623
N	-0.862995	2.206721	1.136731
H	2.750103	0.0	0.0
