16

C	-0.262471	-0.142252	-1.510168
C	0.0	0.0	0.0
F	-0.040936	-1.477027	-1.831699
H	1.095903	0.0	0.0
C	-1.673324	0.140607	-1.878594
N	-2.791255	0.358266	-2.165293
N	0.631426	0.649226	-2.300601
H	0.34011	1.61959	-2.281945
H	1.5517	0.581617	-1.845126
C	-0.565024	-1.110626	0.870861
H	-0.119582	-2.057595	0.567146
H	-0.296009	-0.927386	1.913643
H	-1.654784	-1.182973	0.79661
C	-0.438583	1.319852	0.419649
N	-0.782713	2.392647	0.758146
H	2.742041	0.0	0.0
