16

C	-0.263996	-0.118462	-1.501167
C	0.0	0.0	0.0
F	-1.548712	-0.632243	-1.764809
H	1.097545	0.0	0.0
C	-0.264689	1.207943	-2.173654
N	-0.227944	2.228834	-2.754086
N	0.710632	-1.012768	-2.023677
H	1.617505	-0.823568	-1.56221
H	0.802348	-0.915698	-3.026908
C	-0.438803	-1.260926	0.743176
H	-1.525803	-1.353512	0.788039
H	-0.033456	-1.229566	1.757475
H	-0.023424	-2.130454	0.233985
C	-0.55801	1.195935	0.59619
N	-1.020663	2.143116	1.118376
H	2.70479	0.0	0.0
