16

C	-0.455697	0.009915	-1.45004
C	0.0	0.0	0.0
F	-0.041099	1.1839	-2.056039
H	1.096034	0.0	0.0
C	0.197519	-1.09795	-2.204352
N	0.584402	-2.032862	-2.801938
N	-1.887216	-0.047184	-1.580269
H	-2.159988	-0.337023	-2.510176
H	-2.277386	-0.688106	-0.904936
C	-0.372791	-1.279607	0.74888
H	-0.033357	-2.150298	0.181695
H	0.173375	-1.284069	1.69509
H	-1.442095	-1.376165	0.967068
C	-0.501	1.179028	0.682636
N	-0.884209	2.108857	1.292575
H	2.67311	0.0	0.0
