16

C	-0.26008	-0.123821	-1.501244
C	0.0	0.0	0.0
F	-1.546332	-0.632785	-1.766303
H	1.097467	0.0	0.0
C	-0.250948	1.199364	-2.179732
N	-0.20436	2.216551	-2.766673
N	0.712268	-1.025239	-2.017471
H	1.618943	-0.835283	-1.555512
H	0.808104	-0.930404	-3.020373
C	-0.441555	-1.257708	0.746846
H	-1.528877	-1.350502	0.786509
H	-0.042074	-1.221801	1.763348
H	-0.023225	-2.129624	0.24373
C	-0.558443	1.198911	0.590117
N	-1.022205	2.148227	1.107392
H	2.704749	0.0	0.0
