16

C	-0.49255	-0.002108	-1.448446
C	0.0	0.0	0.0
F	-0.026368	1.147544	-2.054022
H	1.095125	0.0	0.0
C	0.060189	-1.166023	-2.181498
N	0.434072	-2.096416	-2.790806
N	-1.927406	-0.019032	-1.652266
H	-2.347649	0.638171	-1.001424
H	-2.292943	-0.943998	-1.461065
C	-0.408177	-1.255462	0.76656
H	0.025438	-2.131575	0.277004
H	-1.491933	-1.380231	0.856067
H	0.022859	-1.203793	1.768639
C	-0.51649	1.197827	0.637135
N	-0.974246	2.151111	1.154187
H	2.689479	0.0	0.0
