16

C	-0.454519	0.025178	-1.443253
C	0.0	0.0	0.0
Br	-0.156323	-1.697669	-2.270356
H	1.088366	0.0	0.0
H	-0.363253	0.903041	0.494996
N	-1.936724	0.408499	-1.549117
O	-2.674449	-0.189132	-2.314917
O	-2.245817	1.391722	-0.883489
C	0.336856	1.087187	-2.193251
H	1.402654	0.853027	-2.102951
H	0.039765	1.109304	-3.24454
H	0.147534	2.061285	-1.735694
N	-0.577344	-1.138813	0.757185
O	0.142831	-1.741514	1.542349
O	-1.774054	-1.364202	0.569367
Br	3.506312	0.0	0.0
