15

C	-0.572415	0.001162	-1.410835
C	0.0	0.0	0.0
Br	0.096979	-1.449388	-2.482965
H	1.088949	0.0	0.0
H	-1.658515	-0.05591	-1.407613
N	-0.237773	1.314201	-2.064534
O	-1.207992	1.999478	-2.39025
O	0.939305	1.601009	-2.20877
N	-0.492255	-1.296444	0.632752
O	0.321757	-2.125336	1.016833
O	-1.720897	-1.398677	0.741619
N	-0.503175	1.141466	0.688295
H	0.08219	1.357432	1.484083
H	-1.468335	1.014084	0.965707
Cl	3.282701	0.0	0.0
