15

C	-0.381374	0.059179	-1.47533
C	0.0	0.0	0.0
Br	-2.276098	0.344823	-1.836168
H	1.09693	0.0	0.0
H	0.149564	0.898453	-1.918839
N	0.043203	-1.149775	-2.263011
O	0.797072	-0.939947	-3.206099
O	-0.412415	-2.234057	-1.918592
N	-0.548642	-1.236961	0.6585
O	-1.732726	-1.194457	0.990072
O	0.208673	-2.186288	0.827086
N	-0.410168	1.139418	0.748575
H	-1.281416	1.546545	0.450261
H	0.340894	1.812714	0.80213
Cl	3.241696	0.0	0.0
