15

C	-0.673389	-0.047035	-1.365077
C	0.0	0.0	0.0
Br	0.007617	-1.441613	-2.497255
H	1.089038	0.0	0.0
H	-1.749128	-0.185416	-1.261767
N	-0.514349	1.291048	-2.037851
O	0.608047	1.645319	-2.361906
O	-1.55749	1.929107	-2.181468
N	-0.47061	-1.277268	0.69549
O	0.337738	-2.16392	0.930868
O	-1.672154	-1.312477	0.986454
N	-0.450295	1.166405	0.686335
H	0.208736	1.412901	1.409437
H	-1.38251	1.05436	1.057379
Cl	3.303494	0.0	0.0
