15

C	-0.418798	-0.0791	-1.473389
C	0.0	0.0	0.0
Br	-0.013019	1.560631	-2.398559
H	1.090568	0.0	0.0
H	0.090772	-0.889687	-1.98438
N	-1.892039	-0.348655	-1.622652
O	-2.670995	0.395989	-1.031393
O	-2.215032	-1.307116	-2.316466
N	-0.435075	-1.34653	0.585282
O	-1.06522	-1.376696	1.632299
O	-0.101419	-2.333709	-0.072162
N	-0.45699	1.07176	0.794786
H	-1.352982	1.443323	0.521012
H	0.256017	1.782375	0.863377
Cl	3.236469	0.0	0.0
