15

C	-0.485054	0.014893	-1.438132
C	0.0	0.0	0.0
Br	0.245733	1.493258	-2.420669
H	1.096161	0.0	0.0
H	-0.198386	-0.904793	-1.937778
N	-2.000175	0.056584	-1.452216
O	-2.539049	-1.047506	-1.394748
O	-2.575878	1.138597	-1.459431
N	-0.357969	-1.384275	0.560183
O	-0.888572	-1.449882	1.66398
O	-0.01233	-2.342537	-0.128637
N	-0.592156	1.023614	0.799206
H	0.080013	1.337991	1.486496
H	-0.875232	1.811482	0.234211
Cl	3.252732	0.0	0.0
