15

C	-0.589166	0.06844	-1.399949
C	0.0	0.0	0.0
Br	-2.530358	0.093223	-1.355395
H	1.091941	0.0	0.0
H	-0.268001	1.010878	-1.835547
N	-0.093998	-1.001755	-2.352562
O	1.032016	-0.775639	-2.779973
O	-0.805523	-1.957314	-2.627499
N	-0.408666	-1.310159	0.654572
O	-1.022044	-1.263506	1.72013
O	-0.077956	-2.335047	0.067456
N	-0.405025	1.15014	0.736022
H	0.305921	1.353039	1.426684
H	-1.289728	0.995291	1.201181
Cl	3.223392	0.0	0.0
