15

C	-0.627373	-0.004081	-1.387311
C	0.0	0.0	0.0
Br	0.353969	-1.038697	-2.686944
H	1.093566	0.0	0.0
H	-1.652226	-0.366374	-1.363768
N	-0.710048	1.402878	-1.917434
O	-1.735454	1.688945	-2.533442
O	0.247307	2.143892	-1.730575
N	-0.420026	-1.258428	0.709203
O	-0.253526	-1.278404	1.925603
O	-0.869236	-2.192315	0.048776
N	-0.555019	1.118376	0.757703
H	-0.484708	0.858599	1.736407
H	0.095429	1.886671	0.627739
Cl	3.266198	0.0	0.0
