12

C	-0.035669	0.044517	0.021353
C	-0.513714	0.234792	-1.423616
F	1.327399	-0.218431	0.037878
H	-1.623728	0.264518	-1.331952
H	-0.581759	-0.800089	0.442927
C	-0.278198	1.2506	0.822698
N	-0.389497	2.219196	1.475962
C	-0.146362	-0.935884	-2.221302
N	0.151319	-1.871529	-2.864433
C	0.031612	1.448205	-2.031022
N	0.459548	2.427224	-2.518462
Cl	-3.208724	-0.560633	-0.074672
