13

C	-0.653156	-0.001211	-1.368695
C	0.0	0.0	0.0
Br	0.375158	-0.987498	-2.702034
H	1.090472	0.0	0.0
H	-1.599502	-0.550974	-1.329834
H	-0.31954	0.878594	0.565095
N	-0.765786	1.372252	-1.826208
H	-1.137283	1.390189	-2.767699
H	-1.406036	1.869498	-1.21624
N	-0.430094	-1.16356	0.821352
O	-0.754717	-2.201097	0.244822
O	-0.407936	-1.018005	2.042089
Br	3.502689	0.0	0.0
