13

C	-0.58696	0.034281	-1.394733
C	0.0	0.0	0.0
Br	0.042263	1.544142	-2.475425
H	1.089572	0.0	0.0
H	-0.167491	-0.829498	-1.92169
H	-0.342285	-0.924578	0.472575
N	-2.02699	0.093865	-1.339517
H	-2.378397	-0.539972	-0.629828
H	-2.432256	-0.13336	-2.238852
N	-0.55063	1.086682	0.846732
O	-0.091355	2.215077	0.713054
O	-1.463738	0.779879	1.621553
Br	3.524672	0.0	0.0
