13

C	-0.550829	0.018187	-1.409847
C	0.0	0.0	0.0
Br	-0.147607	1.825157	-2.227921
H	1.086945	0.0	0.0
H	0.07673	-0.640577	-2.008566
H	-0.359076	-0.91628	0.479296
N	-1.911015	-0.357587	-1.509488
H	-2.479776	0.252298	-0.936489
H	-2.230227	-0.329488	-2.468497
N	-0.524106	1.113471	0.838894
O	-1.742068	1.32619	0.789202
O	0.256651	1.721261	1.558115
Br	3.55091	0.0	0.0
