13

C	-0.441132	0.14489	-1.455862
C	0.0	0.0	0.0
Br	-0.637731	-1.691441	-2.170606
H	1.090662	0.0	0.0
H	-1.442637	0.570718	-1.529118
H	-0.397673	-0.861358	0.52998
N	0.452522	0.887967	-2.294101
H	1.41144	0.624982	-2.07139
H	0.34489	1.866141	-2.048875
N	-0.41845	1.196288	0.781919
O	-0.555692	1.056654	1.993695
O	-0.580872	2.261564	0.180856
Br	3.47333	0.0	0.0
