14

C	-0.240935	0.054941	-1.502031
C	0.0	0.0	0.0
Br	-2.133061	0.538572	-1.953003
H	1.095834	0.0	0.0
H	-0.325544	0.946122	0.442935
C	0.710715	1.08914	-2.096971
H	0.433093	2.082197	-1.735411
H	0.684062	1.080487	-3.186343
H	1.700112	0.828498	-1.694549
C	-0.020407	-1.251595	-2.120466
N	0.172153	-2.299242	-2.618064
C	-0.626197	-1.112336	0.677597
N	-1.130538	-2.007371	1.248801
F	2.584233	0.0	0.0
