14

C	-0.463444	0.00603	-1.461848
C	0.0	0.0	0.0
Br	0.247229	-1.628855	-2.311217
H	1.092797	0.0	0.0
H	-0.346598	-0.925408	0.472387
C	-1.978069	0.000711	-1.647528
H	-2.246355	-0.035078	-2.705333
H	-2.397844	-0.871634	-1.141644
H	-2.394899	0.907188	-1.198996
C	0.115972	1.143978	-2.178564
N	0.500602	2.10919	-2.729089
C	-0.555683	1.13949	0.70261
N	-1.01638	2.065546	1.264636
F	2.522932	0.0	0.0
