14

C	-0.48872	-0.003532	-1.443503
C	0.0	0.0	0.0
Br	-2.470387	0.109662	-1.653722
H	1.095822	0.0	0.0
H	-0.339468	0.926987	0.472363
C	0.112633	1.188153	-2.176972
H	-0.222934	2.111232	-1.699812
H	-0.189376	1.199781	-3.228489
H	1.203398	1.107572	-2.084015
C	-0.103614	-1.241835	-2.117224
N	0.252894	-2.218757	-2.665168
C	-0.493124	-1.135776	0.760223
N	-0.872976	-2.055251	1.387182
F	2.519268	0.0	0.0
