14

C	-0.256873	-0.058629	-1.518653
C	0.0	0.0	0.0
Br	0.175167	1.728731	-2.241629
H	1.093709	0.0	0.0
H	-0.421532	0.900508	0.448874
C	0.709762	-1.067676	-2.133517
H	0.422397	-2.071146	-1.802068
H	1.696013	-0.822975	-1.716942
H	0.691794	-1.028488	-3.223799
C	-1.649608	-0.306719	-1.885147
N	-2.770599	-0.536307	-2.158221
C	-0.517762	-1.189777	0.649786
N	-0.933104	-2.159065	1.170807
F	2.596333	0.0	0.0
