14

C	-0.243279	0.054154	-1.502316
C	0.0	0.0	0.0
Br	-2.134533	0.545314	-1.949216
H	1.095835	0.0	0.0
H	-0.323504	0.947176	0.442385
C	0.711523	1.08228	-2.101286
H	1.701792	0.818947	-1.700684
H	0.679367	1.073535	-3.192044
H	0.439307	2.076496	-1.738732
C	-0.034051	-1.254299	-2.119803
N	0.154773	-2.30433	-2.614299
C	-0.627276	-1.110393	0.680311
N	-1.132483	-2.005784	1.250705
F	2.585828	0.0	0.0
