14

C	-0.256583	-0.046551	-1.51861
C	0.0	0.0	0.0
Br	0.195852	1.741698	-2.230521
H	1.093732	0.0	0.0
H	-0.423108	0.896203	0.454993
C	0.703164	-1.059234	-2.13645
H	0.404337	-2.065338	-1.820441
H	0.703266	-1.006544	-3.225204
H	1.686508	-0.823774	-1.707009
C	-1.653236	-0.274207	-1.884064
N	-2.776715	-0.476629	-2.171108
C	-0.519201	-1.194741	0.639302
N	-0.937457	-2.163997	1.158267
F	2.591471	0.0	0.0
