14

C	-0.275411	-0.055702	-1.511062
C	0.0	0.0	0.0
Br	0.136379	1.703394	-2.306274
H	1.093698	0.0	0.0
H	-0.327359	-0.956185	0.427398
C	0.686878	-1.082647	-2.105359
H	0.393978	-2.08274	-1.766104
H	0.679209	-1.058167	-3.193255
H	1.672075	-0.839324	-1.684807
C	-1.670701	-0.322836	-1.847941
N	-2.788047	-0.581907	-2.107448
C	-0.641092	1.08718	0.707118
N	-1.159941	1.953158	1.310837
F	2.592044	0.0	0.0
