13
Coordinates from ORCA-job run
  C   0.86529373044059     -0.03580648939356      0.84563031426203
  C   -0.58544648861697      0.03574134980441      0.34340085910979
  Cl  1.08925620524709      0.99619479166243      2.28102303148407
  H   -1.22243348246522     -0.22677823167275      1.19518553167376
  H   1.07117919807000     -1.06134767846456      1.16281640415026
  C   1.81249800996978      0.33376396056235     -0.20179489089053
  N   2.55512148552814      0.60489717520985     -1.07039095216119
  C   -0.81833810046895     -0.94921374793431     -0.80633125307559
  H   -0.20675454243577     -0.68974274290033     -1.67208515578711
  H   -0.57103272210707     -1.96500542810719     -0.48873055890100
  H   -1.86648843889961     -0.92934946206334     -1.10780536109036
  C   -0.92021384938943      1.40220389132818     -0.06157416428649
  N   -1.20264100487258      2.48444261196880     -0.41834380448764
