13
Coordinates from ORCA-job run
  C   0.99135663205523      0.54345019669901      0.38530788921918
  C   -0.49021754182625      0.12084707306998      0.32439467550972
  Cl  1.51719975273318      1.32785403496659     -1.12689513180291
  H   -0.71479281191360     -0.33009988100800      1.29951703390089
  H   1.12803600718452      1.28214354454132      1.17865016739676
  C   1.83165685692713     -0.61709558150914      0.66898218968025
  N   2.47734223108141     -1.56646213643168      0.91640459229511
  C   -0.79145016469943     -0.89493772977786     -0.77870178983301
  H   -0.60476323268002     -0.46616868321457     -1.76279876208943
  H   -1.83843575015580     -1.19614294472162     -0.72538335428737
  H   -0.16864492043189     -1.78255499652532     -0.65212694997984
  C   -1.32800583839040      1.31482187946542      0.19360588353457
  N   -2.01028121988407      2.26334522444587      0.08004355645608
