13
Coordinates from ORCA-job run
  C   1.04220462762595      0.42765083069829      0.39835582617980
  C   -0.48274929026349      0.25886292614578      0.24369483530942
  Cl  1.82300714596245      0.82669996106251     -1.15381782282535
  H   -0.86417237215298      0.03517387921993      1.24829262552904
  H   1.25082251468990      1.26266537233917      1.07132081203843
  C   1.62515275420465     -0.78931390973186      0.95732885626225
  N   2.05577552756369     -1.77739086892940      1.42364652662988
  C   -0.87935716030189     -0.87252620011551     -0.70600954985022
  H   -0.53969168041678     -0.66534545961437     -1.72038332592029
  H   -1.96494852080652     -0.97810088866859     -0.71916553189523
  H   -0.44371745658487     -1.81525985830581     -0.36934453065385
  C   -1.07004802695074      1.53505976553588     -0.16998878448337
  N   -1.55127806256937      2.55182445036398     -0.50592993632051
