13
Coordinates from ORCA-job run
  C   0.92987182928242      0.52924708405495      0.52847404097437
  C   -0.52039642347696      0.06198510479563      0.29204593923285
  Cl  1.53975904111497      1.50456139481526     -0.83372578035314
  H   -0.80123712467536     -0.51169041973983      1.18464119539971
  H   0.96674997502606      1.17438786831137      1.40945322416803
  C   1.79790208273212     -0.62443393771775      0.74976885547551
  N   2.46608880837032     -1.57085985053012      0.94286177233877
  C   -0.68350141549886     -0.82351383681915     -0.94429525659372
  H   -1.71354052756488     -1.17505079379648     -1.01164576870802
  H   -0.02534769869901     -1.69130591917906     -0.87373446625739
  H   -0.44694793881048     -0.27061884422878     -1.85260568321478
  C   -1.39934381422975      1.23192214207745      0.23235319862248
  N   -2.10905679357060      2.16537000795652      0.17740872891534
