13
Coordinates from ORCA-job run
  C   0.98628878033576      0.42488203286462      0.52259614648667
  C   -0.51206894149310      0.21753461377501      0.22178004656954
  Cl  1.87761274875318      0.98565923991408     -0.91568978492632
  H   -0.96528282553463     -0.11186277792622      1.16559415787872
  H   1.10209815019312      1.20431704922429      1.27938068838401
  C   1.56985028896077     -0.81559173699831      1.02636321088353
  N   1.99910446905506     -1.82419057635756      1.44794725102994
  C   -0.77952699559087     -0.83394620792991     -0.85616011160063
  H   -0.32990461175712     -1.78694285762877     -0.57070328997863
  H   -1.85465405571682     -0.97853390624939     -0.96992855875442
  H   -0.36945736039114     -0.52008843256436     -1.81563921909800
  C   -1.11667054138406      1.50543944604935     -0.12509260944103
  N   -1.60738910543014      2.53332411382717     -0.40944792743337
