13
Coordinates from ORCA-job run
  C   1.05323758402015     -0.11466784572376      0.35759482126350
  C   -0.43758660316414      0.18695643448303      0.10481806726269
  Cl  1.23612756373301     -1.22947750500577      1.74081561019872
  H   -0.84192882887174      0.63778526372785      1.01801405287953
  H   1.47708948307718     -0.62053080795284     -0.51395570582615
  C   1.80859215294019      1.10697393842774      0.61981194491855
  N   2.40423955530386      2.09769271205931      0.82740384326140
  C   -1.23869975916262     -1.06542353440662     -0.26017831938191
  H   -1.22276071927236     -1.78335053029100      0.55890160025083
  H   -0.82575519633142     -1.53626832776296     -1.15508093873038
  H   -2.27534605930636     -0.79425508739276     -0.46403929323304
  C   -0.52892229906894      1.17545919312263     -0.97316827741080
  N   -0.60828687389681      1.93910609671514     -1.86193740545293
