13
Coordinates from ORCA-job run
  C   0.88823053910865     -0.06382837896192      0.81995042374141
  C   -0.57369320010201      0.05238635407944      0.36092189152432
  Cl  1.18512219651740      0.95712197645647      2.24998359679201
  H   -1.19313706376110     -0.19312598286835      1.23051794279989
  H   1.07262478690155     -1.09590968101719      1.12909342877462
  C   1.81535919606700      0.27970004417902     -0.25397512184892
  N   2.54237523910953      0.52987509962648     -1.14191622737224
  C   -0.87009491451740     -0.92181923352392     -0.78343583790283
  H   -0.64436164304201     -1.94561167394538     -0.47570501601409
  H   -0.27676320581333     -0.67815441285455     -1.66634387720240
  H   -1.92563258374422     -0.86912878721022     -1.05355541354945
  C   -0.87924069044493      1.42914670842841     -0.03231560341999
  N   -1.13978865627913      2.51934796761170     -0.38122018632233
