13

C	-0.175223	-0.020414	-1.35998
C	-0.204333	0.325401	0.110552
Br	-1.908812	-0.608585	-2.027373
H	0.767731	0.801859	0.291443
H	0.582832	-0.825852	-1.482454
H	-0.995071	1.049499	0.328538
N	0.207381	1.16111	-2.195694
O	-0.055547	2.288656	-1.771702
O	0.763435	0.934216	-3.268289
N	-0.380776	-0.919381	0.847477
H	-0.250271	-0.717224	1.832752
H	0.430499	-1.481955	0.518821
F	1.716235	-1.706424	-0.570531
