13

C	-0.635105	0.022877	-1.425878
C	0.04663	-0.134712	-0.072652
Br	0.22746	1.329914	-2.552329
H	1.124132	-0.280608	-0.20733
H	-1.671408	0.327278	-1.311518
H	-0.398458	-1.044423	0.362333
N	-0.673487	-1.295924	-2.139983
O	0.384511	-1.799965	-2.499591
O	-1.782645	-1.828996	-2.237557
N	-0.18485	1.066122	0.70565
H	-0.536208	0.78972	1.614431
H	0.827071	1.404727	0.841472
F	2.329049	1.325329	0.785955
