13

C	-0.184021	-0.142757	-1.342773
C	-0.160636	-0.244864	0.171802
Br	0.047293	-1.893024	-2.192689
H	0.78815	-0.732094	0.410726
H	0.638991	0.561857	-1.630979
H	-0.978852	-0.871939	0.536656
N	-1.485567	0.397494	-1.858911
O	-2.46684	0.388042	-1.110501
O	-1.496056	0.832539	-3.007613
N	-0.164573	1.066102	0.799121
H	-1.057169	1.506955	0.610248
H	0.57111	1.57989	0.275272
F	1.652031	1.712018	-1.046453
