13

C	-0.712111	0.018439	-1.451535
C	0.133536	-0.023472	-0.183644
Br	-0.102607	1.328047	-2.73599
H	1.194769	-0.10147	-0.429482
H	-1.753501	0.245921	-1.238579
H	-0.150374	-0.962393	0.325957
N	-0.72808	-1.333454	-2.104485
O	0.314955	-1.7649	-2.581647
O	-1.790615	-1.956719	-2.034778
N	-0.054523	1.179541	0.589316
H	-0.745636	0.995955	1.308602
H	0.912968	1.25127	1.067351
F	2.281471	0.841085	1.464133
