17

C	0.0	0.0	0.0
C	-0.184376	0.045054	-1.557643
F	1.361949	0.0	0.0
H	0.486733	0.875487	-1.82325
N	-0.395707	1.270563	0.699555
O	-0.445265	2.289882	0.017755
O	-0.477078	1.229508	1.921212
C	-0.515095	-1.16764	0.7007
N	-0.59391	-2.17701	1.301621
C	-1.497584	0.299701	-2.265075
H	-1.253449	0.457813	-3.328511
H	-1.993689	1.175532	-1.864908
H	-2.171566	-0.540439	-2.134414
N	0.361206	-1.242671	-2.019137
H	0.039204	-1.410476	-2.963349
H	1.372193	-1.216516	-2.028408
F	-2.289982	0.0	0.0
