17

C	0.0	0.0	0.0
C	-0.183895	-0.081221	-1.553868
F	1.362356	0.0	0.0
H	0.480279	0.73143	-1.884901
N	-0.409461	1.317569	0.59743
O	-0.530496	1.367579	1.815336
O	-0.4291	2.284097	-0.158329
C	-0.506108	-1.116374	0.788858
N	-0.599801	-2.078105	1.461116
C	-1.496877	0.104637	-2.279383
H	-2.000122	1.005521	-1.951141
H	-1.252519	0.174419	-3.352685
H	-2.165762	-0.726373	-2.082398
N	0.375177	-1.39545	-1.911536
H	0.036297	-1.654542	-2.827953
H	1.384422	-1.354528	-1.944103
F	-2.299069	0.0	0.0
