17

C	0.0	0.0	0.0
C	-0.215668	-0.113375	-1.562648
F	1.364839	0.0	0.0
H	0.625163	0.486	-1.931526
N	-0.365888	1.326854	0.604552
O	-0.539136	1.372956	1.816012
O	-0.301963	2.298527	-0.144248
C	-0.527871	-1.102933	0.790959
N	-0.608798	-2.112502	1.392858
C	-1.45185	0.374676	-2.289466
H	-1.711786	1.385055	-1.987745
H	-2.302325	-0.258356	-2.065775
H	-1.207228	0.353531	-3.359021
N	0.055316	-1.494923	-1.966937
H	-0.694163	-2.078288	-1.607147
H	0.915349	-1.814792	-1.533478
F	-2.269678	0.0	0.0
