17

C	0.0	0.0	0.0
C	-0.41792	0.254941	-1.467792
F	1.352882	0.0	0.0
H	-1.355294	0.795708	-1.392181
N	-0.388083	1.159261	0.90316
O	-0.571689	2.253803	0.392336
O	-0.346979	0.932254	2.109153
C	-0.488893	-1.242804	0.599624
N	-0.591355	-2.321262	1.057346
C	-0.69604	-1.068007	-2.172618
H	0.170575	-1.740826	-2.131785
H	-1.557323	-1.534266	-1.696281
H	-0.925917	-0.870152	-3.225072
N	0.610546	1.074259	-2.118049
H	0.155533	1.646946	-2.815833
H	1.282223	0.480265	-2.590359
F	-2.378474	0.0	0.0
