17

C	0.0	0.0	0.0
C	-0.375942	0.288975	-1.5123
F	1.365169	0.0	0.0
H	0.608843	0.245584	-1.995589
N	-0.354977	1.011348	1.075235
O	-0.719431	0.587729	2.163389
O	-0.101841	2.184436	0.81865
C	-0.45475	-1.323665	0.44016
N	-0.547877	-2.460464	0.725467
C	-0.987247	1.657545	-1.782176
H	-1.900515	1.733743	-1.196084
H	-0.306729	2.473327	-1.54187
H	-1.227892	1.683025	-2.847547
N	-1.219126	-0.72187	-2.126557
H	-0.778116	-1.631084	-2.033711
H	-2.039908	-0.706582	-1.501289
F	-2.426074	0.0	0.0
