17

C	0.0	0.0	0.0
C	-0.368092	-0.076419	-1.539038
F	1.364474	0.0	0.0
H	0.618197	-0.245935	-1.989637
N	-0.365172	1.226686	0.813409
O	-0.142934	2.313526	0.28824
O	-0.706104	1.058414	1.97537
C	-0.449352	-1.189195	0.732231
N	-0.550505	-2.230801	1.268301
C	-0.966009	1.188676	-2.139034
H	-1.897742	1.390452	-1.614138
H	-1.171826	0.963572	-3.188781
H	-0.300343	2.046726	-2.07558
N	-1.218354	-1.199828	-1.899361
H	-0.787784	-2.051941	-1.55684
H	-2.042598	-1.014585	-1.303626
F	-2.416717	0.0	0.0
