17

C	-0.252774	-0.04126	-1.517898
C	0.0	0.0	0.0
Br	-2.166587	-0.4894	-1.937301
H	1.092164	0.0	0.0
C	0.002479	1.225556	-2.195742
N	0.251219	2.206996	-2.793855
C	0.659493	-1.117953	-2.096884
H	0.337139	-2.100296	-1.746604
H	0.645199	-1.103854	-3.189932
H	1.658854	-0.892747	-1.690392
N	-0.401886	-1.151303	0.727671
H	-1.253827	-1.583693	0.398644
H	0.368153	-1.801571	0.769091
N	-0.614524	1.230603	0.584611
O	-1.657903	1.112321	1.224932
O	-0.045566	2.298345	0.362139
F	2.580481	0.0	0.0
