17

C	-0.485408	0.002214	-1.455872
C	0.0	0.0	0.0
Br	0.326764	-1.564419	-2.325059
H	1.090432	0.0	0.0
C	-1.932262	-0.197839	-1.546419
N	-3.098528	-0.338772	-1.615706
C	-0.024526	1.245628	-2.207071
H	-0.212044	1.138139	-3.276272
H	1.043023	1.359248	-2.005262
H	-0.55969	2.125653	-1.842011
N	-0.526484	-1.100685	0.7328
H	-1.462505	-0.90572	1.067997
H	0.092631	-1.289928	1.511528
N	-0.466498	1.328665	0.587647
O	0.275429	2.301382	0.492659
O	-1.580177	1.359696	1.130607
F	2.563806	0.0	0.0
