17

C	-0.262215	-0.06185	-1.51133
C	0.0	0.0	0.0
Br	-2.184158	-0.494832	-1.90615
H	1.092745	0.0	0.0
C	-0.006102	1.184604	-2.228147
N	0.201665	2.116399	-2.915032
C	0.636559	-1.155497	-2.083109
H	0.604941	-1.161795	-3.173334
H	0.316517	-2.128109	-1.706986
H	1.640009	-0.926293	-1.695975
N	-0.395563	-1.141913	0.744363
H	0.382054	-1.782269	0.802145
H	-1.24308	-1.58871	0.42309
N	-0.604917	1.240882	0.572763
O	-0.083021	2.308986	0.249383
O	-1.587025	1.135495	1.307396
F	2.574826	0.0	0.0
