17

C	-0.310623	0.014224	-1.521972
C	0.0	0.0	0.0
Br	0.290797	-1.732208	-2.233216
H	1.090176	0.0	0.0
C	-1.740449	0.074534	-1.81698
N	-2.898761	0.128042	-2.015834
C	0.511591	1.095177	-2.213905
H	1.529074	0.9858	-1.823836
H	0.12692	2.080246	-1.945074
H	0.474359	0.976527	-3.297659
N	-0.522268	-1.066997	0.779392
H	-1.415488	-1.416096	0.461143
H	0.164116	-1.805898	0.802105
N	-0.552235	1.296835	0.535495
O	0.147465	2.307767	0.450492
O	-1.691918	1.275034	1.009879
F	2.585042	0.0	0.0
