17

C	-0.256938	-0.039131	-1.511924
C	0.0	0.0	0.0
Br	-2.188356	-0.417677	-1.916413
H	1.092993	0.0	0.0
C	0.040055	1.204171	-2.218635
N	0.271539	2.129195	-2.906794
C	0.61749	-1.150901	-2.091087
H	1.624616	-0.945895	-1.700647
H	0.590504	-1.145836	-3.181018
H	0.273045	-2.119597	-1.725499
N	-0.402454	-1.1523	0.724941
H	-1.247843	-1.5909	0.388483
H	0.371246	-1.799389	0.770812
N	-0.597426	1.235683	0.592101
O	-1.538894	1.124596	1.376312
O	-0.105235	2.307768	0.237584
F	2.570601	0.0	0.0
