17

C	-0.324923	-0.04206	-1.485964
C	0.0	0.0	0.0
Br	-2.292617	-0.29433	-1.771136
H	1.093734	0.0	0.0
C	0.024814	1.15572	-2.248107
N	0.3038	2.013205	-3.00313
C	0.440394	-1.223339	-2.076253
H	0.344419	-1.249429	-3.16275
H	0.068249	-2.145257	-1.633219
H	1.480423	-1.068262	-1.76499
N	-0.424143	-1.186919	0.664475
H	-1.349368	-1.07606	1.060202
H	0.231213	-1.371374	1.413372
N	-0.508098	1.249139	0.65177
O	-0.278883	2.321416	0.097184
O	-1.095163	1.14121	1.733304
F	2.540217	0.0	0.0
