13

C	0.0	0.0	0.0
C	-0.443988	0.206945	-1.445918
Br	1.939337	0.0	0.0
H	0.080972	1.062312	-1.874297
H	-0.342956	0.829663	0.616262
H	-0.349485	-0.952057	0.394262
N	-1.827633	0.27929	-1.701665
H	-2.139461	1.213903	-1.913628
H	-2.473001	-0.105861	-1.006666
N	0.10676	-0.971096	-2.262421
O	0.642885	-0.712426	-3.338102
O	-0.094463	-2.098704	-1.819462
Cl	-4.434497	0.0	0.0
