13

C	0.0	0.0	0.0
C	-0.234711	-0.070499	-1.550341
Br	1.936269	0.0	0.0
H	0.577211	0.416577	-2.104326
H	-0.461555	-0.893403	0.415257
H	-0.410457	0.90365	0.428557
N	-1.428055	0.411404	-2.102268
H	-2.292033	0.138875	-1.628827
H	-1.443167	0.278189	-3.099633
N	0.07673	-1.583964	-1.946322
O	-0.197977	-2.493183	-1.165509
O	0.528658	-1.745842	-3.089934
Cl	-3.580155	0.0	0.0
