13

C	0.0	0.0	0.0
C	-0.598888	-0.105411	-1.383769
Br	1.935387	0.0	0.0
H	-1.66808	0.139649	-1.247643
H	-0.318606	0.922274	0.477847
H	-0.342307	-0.848142	0.589842
N	-0.3634	-1.402759	-1.984355
H	-1.012978	-2.031133	-1.526375
H	-0.645542	-1.350071	-2.956027
N	-0.063689	0.968159	-2.279971
O	0.107231	0.698505	-3.468725
O	0.092112	2.081267	-1.786555
Cl	-3.528541	0.0	0.0
