13

C	0.0	0.0	0.0
C	-0.571309	0.066734	-1.4087
Br	1.939986	0.0	0.0
H	-1.639657	0.279599	-1.25867
H	-0.346144	-0.912105	0.478431
H	-0.31931	0.863985	0.576618
N	-0.422151	-1.078955	-2.242754
H	-1.149495	-1.741952	-2.001451
H	0.49256	-1.502746	-2.14417
N	0.01982	1.286757	-2.07755
O	0.71171	1.143575	-3.081149
O	-0.217368	2.364193	-1.531677
Cl	-3.499604	0.0	0.0
