13

C	0.0	0.0	0.0
C	-0.41157	-0.385499	-1.430885
Br	1.939632	0.0	0.0
H	0.050139	0.296873	-2.145008
H	-0.366131	0.996389	0.241951
H	-0.360345	-0.728885	0.725278
N	-1.781797	-0.559773	-1.737187
H	-2.391776	-0.795169	-0.955707
H	-2.19214	0.262397	-2.162735
N	0.274984	-1.72098	-1.697595
O	-0.007707	-2.638113	-0.933052
O	1.02979	-1.808305	-2.659959
Cl	-4.319133	0.0	0.0
