14
Coordinates from ORCA-job run
  C   -0.80887975226706      0.04301086839769     -0.33978909326428
  C   0.59024449103016     -0.53712769566525     -0.54092758835637
  Cl  -1.85207123647336     -0.58375874132288     -1.73464752104149
  H   0.90842476191734     -0.30788634099585     -1.56013811959302
  H   0.49642436288959     -1.62676916268240     -0.47612085320236
  C   -0.79999330692742      1.50291529475418     -0.48605642168976
  N   -0.76315723729138      2.67188027344218     -0.59167802652028
  N   -1.32974021943409     -0.29754075856921      0.93453304215229
  H   -1.35562040972352     -1.30319977810226      1.05330960242935
  H   -2.25530393815613      0.08426193605716      1.08343999398218
  C   1.59688093509067     -0.01080349352427      0.47583114901237
  H   1.28920698471706     -0.24503965705837      1.49454827634318
  H   1.70893529873226      1.07247955073885      0.39419085012616
  H   2.57464926589588     -0.46242229546956      0.29450470962201
