14
Coordinates from ORCA-job run
  C   -0.73395439442218      0.09362739953265     -0.33648844973198
  C   0.77064243468163      0.35416200834153     -0.23784899511928
  Cl  -1.06218552348265     -1.19378491490842     -1.54877676384510
  H   1.12071138639811      0.66223287152033     -1.22635873910735
  H   0.89731910627351      1.21836164282461      0.42617530685493
  C   -1.40268515510488      1.31041254622330     -0.84057994443042
  N   -1.91333969587715      2.31420005710153     -1.17751188958978
  N   -1.25430811646703     -0.36010507204323      0.93060296431601
  H   -2.25525146896277     -0.50871288743751      0.87225122233891
  H   -1.07154535519311      0.34145158590966      1.64079689965765
  C   1.56991348327585     -0.83474493651391      0.27908182079982
  H   1.47701468203783     -1.69002254943162     -0.39056604613906
  H   2.62651357943784     -0.56540199088788      0.34054206552383
  H   1.23015503740501     -1.14067576023104      1.26768054847183
