15
Coordinates from ORCA-job run
  C   0.96030017522073      0.22978975739058     -0.35006356102919
  C   -0.50715528882228      0.66296875114531     -0.34860001509873
  Cl  1.97021878262205      1.67181376642780     -0.04863489784599
  H   -0.63956286322045      1.49951921901381     -1.03574373089324
  H   1.20965444129206     -0.10094847296193     -1.35880045515323
  C   1.26857450676486     -0.84702785147674      0.67097057515744
  H   1.12408862870671     -0.46647710309444      1.68297694726110
  H   2.30750786118284     -1.16408254387323      0.57661299619743
  H   0.62828843331592     -1.71995470562989      0.51664846303301
  N   -1.00627104535525      0.97670167567081      0.93292587995946
  H   -1.89752600232383      1.44962196404148      0.87785478857660
  H   -1.11469540195940      0.14815619005343      1.50217314488152
  N   -1.26228559750662     -0.49622349364854     -1.03847237424653
  O   -1.94748044462613     -1.23224275988293     -0.33240861928288
  O   -1.09165618529121     -0.61161439317552     -2.24843914151678
