15
Coordinates from ORCA-job run
  C   0.50318936803581     -0.64430123912724      0.44923176521284
  C   -0.56973646128541      0.01990233990876     -0.39065897466764
  Cl  0.59533615628849     -2.36311543581110     -0.04232091811358
  H   -0.45737957872254     -0.26405940085122     -1.44428367021136
  H   0.18124234287240     -0.63497897203631      1.48956678744599
  C   1.85973624749776      0.01307561825788      0.28075513285768
  H   2.62028904378056     -0.56410460826498      0.80699550715624
  H   2.14590104455049      0.06488384735475     -0.77293613896141
  H   1.84540174466285      1.01722917840144      0.70947938798376
  N   -0.63658689693311      1.44384409666948     -0.13328300754650
  H   0.19993087203002      1.88988797853282     -0.48888385472528
  H   -1.42177793912817      1.82940310643908     -0.64792526177255
  N   -1.94175288258756     -0.49892673085106     -0.02197409192776
  O   -2.11726529345981     -0.99166521210299      1.08498835756243
  O   -2.80552776760177     -0.31807456651933     -0.87875102029285
