15
Coordinates from ORCA-job run
  C   0.86961897675254      0.26130555690136     -0.38405454201565
  C   -0.63800399861275      0.57945246558897     -0.40927767107871
  Cl  1.71756048862425      1.79139555968496      0.00552293222162
  H   -0.81503304576464      1.33858207676354     -1.17226382178195
  H   1.17488648684125      0.00143960313546     -1.39939654481396
  C   1.26750175401049     -0.81988202783955      0.59818153259405
  H   2.34689028000386     -0.97157187221209      0.56757457828499
  H   0.78029560118558     -1.76481234872478      0.34792401085927
  H   0.99799784330221     -0.54283930477164      1.61860833092763
  N   -1.29179958045385      0.95930710737514      0.79986884196763
  H   -1.15762001849110      0.27848964117990      1.53457900114900
  H   -0.96882138629624      1.86794526773398      1.10258077057167
  N   -1.29018433727114     -0.67498883137419     -0.93801629693616
  O   -1.19311914027198     -0.86706280350857     -2.14764519239014
  O   -1.80016992355850     -1.43776008993251     -0.12318592955928
