15
Coordinates from ORCA-job run
  C   0.98059422655680      0.27508648538915     -0.09275586472419
  C   -0.48213750900379      0.57917152997964     -0.40884022969365
  Cl  1.65868208452815      1.73485776795599      0.70834463397072
  H   -0.52498582537122      1.44841707036550     -1.08254360833061
  H   1.52094296974941      0.18080234566438     -1.03229794927070
  C   1.17319573130719     -0.94635619822091      0.78010603455048
  H   0.80650289763479     -1.83200772151633      0.25555448948329
  H   2.23389761074609     -1.09009556545125      0.98970788423659
  H   0.63002708928115     -0.84360434058154      1.71769929588413
  N   -1.28042521706275      0.66551268090349      0.77840822648264
  H   -2.25420833550441      0.80237272932121      0.54345645825897
  H   -0.95865541267951      1.44488712156545      1.33813371162775
  N   -1.02964665330424     -0.54551401501764     -1.27010026727452
  O   -2.18826326619726     -0.89556214692352     -1.07832528498188
  O   -0.28552039068040     -0.97696774343362     -2.14654753021904
