15
Coordinates from ORCA-job run
  C   0.70441565990056      0.23132920434015      0.48033155205152
  C   -0.53004903721828      0.48852420781725     -0.40088668618295
  Cl  0.22384836269517     -0.06048579051554      2.17944351791161
  H   -0.16302356507808      0.74108538902080     -1.39817319956817
  H   1.25076826561479      1.17874266459655      0.49406916485607
  C   1.60522797398607     -0.88866625399529     -0.00344711755762
  H   1.11434253255626     -1.85721402762699      0.09019656853302
  H   1.86413792514448     -0.73708514986861     -1.05417110368991
  H   2.52187656378328     -0.90836873710802      0.58717944859413
  N   -1.46956348554534      1.47609808211394      0.02479503917133
  H   -1.09990703828265      2.40554383913392     -0.12073968864443
  H   -1.71314699805856      1.35120284327832      0.99868516225300
  N   -1.26621706098493     -0.81275012491034     -0.58669876147951
  O   -2.14200094884844     -1.07997775762175      0.22818389768676
  O   -0.89970914966432     -1.52597838865440     -1.51976779393484
