15
Coordinates from ORCA-job run
  C   0.78059206066884      0.19898327119602      0.48636517224526
  C   -0.45470456541168      0.54428787561330     -0.34391871610559
  Cl  0.29274997646390     -0.22533997499716      2.15934375394079
  H   -0.12468040896590      0.75204288765593     -1.36491902571430
  H   1.32749474614102      1.13981744862346      0.57280632928171
  C   1.66853659415538     -0.88959197923188     -0.08177989234748
  H   2.58110061720064     -0.95938114693279      0.51163402365142
  H   1.17216924260996     -1.85859882725320     -0.07182201023093
  H   1.93739256231592     -0.65243491723105     -1.11407296683013
  N   -1.15665422371336      1.65213792208029      0.18643666758503
  H   -1.51843722159822      1.43998228617461      1.10741117496486
  H   -1.92720799577347      1.91960248636994     -0.41127747730887
  N   -1.31974939222926     -0.71456739795116     -0.50336919834114
  O   -2.32147321250573     -0.80827638476516      0.19877877632757
  O   -0.93712877935804     -1.53966354935117     -1.33061661111822
