15
Coordinates from ORCA-job run
  C   0.44772127800204     -0.56500833503121      0.46199817066664
  C   -0.56871482640688      0.03398757142538     -0.50543443618577
  Cl  0.57882529457075     -2.32204180205662      0.15008746900305
  H   -0.29038757060855     -0.18574050864157     -1.53695033719412
  H   0.05490193449299     -0.46291040484389      1.47631304867063
  C   1.81117672095700      0.08393893606385      0.32427655393552
  H   2.18374958242489     -0.01615409227804     -0.69796441661711
  H   1.75884147201658      1.14299219705357      0.58438761256632
  H   2.52552119572733     -0.39522081319196      0.99429365820280
  N   -0.82456381809110      1.43656832453593     -0.34710507733011
  H   -0.13848477363925      1.99977326084401     -0.82683288494791
  H   -0.88462247669487      1.70198848622331      0.62716471635584
  N   -1.89086406885872     -0.65871491487930     -0.29353711866417
  O   -2.39501975217194     -1.24616635860375     -1.24288785879596
  O   -2.36808019172027     -0.54729154661970      0.83319090033435
