15
Coordinates from ORCA-job run
  C   0.89368393551534      0.37749355433714     -0.17267332860824
  C   -0.61179493219149      0.61250653243868     -0.40173650111789
  Cl  1.53316843568603      1.84629013659096      0.63109187619518
  H   -0.72919927363888      1.49439153348482     -1.03278809550863
  H   1.37996113629205      0.33705826329685     -1.14914951644511
  C   1.22044963627113     -0.85067090517787      0.65014332084833
  H   0.86214594831878     -1.75409826525076      0.15187592367129
  H   0.76914665584471     -0.79146981476316      1.64182307813865
  H   2.29989816620759     -0.93518588379012      0.77927782436154
  N   -1.48169891428392      0.71456481564794      0.72386165618654
  H   -1.40777405616967     -0.08695324402647      1.33499592591449
  H   -1.29051891564707      1.56357987174160      1.23795681788579
  N   -1.06001264138397     -0.54917913256728     -1.25572702038160
  O   -0.75397563862512     -0.49678468295978     -2.44447774433820
  O   -1.62547954219551     -1.48254277900256     -0.69447421680213
