15
Coordinates from ORCA-job run
  C   0.44278972506371     -0.61951217538471      0.39115499663336
  C   -0.57349865688936      0.09810376272428     -0.49192506905249
  Cl  0.53942287159185     -2.33358330038864     -0.11379533156447
  H   -0.31104396955468     -0.01359101115708     -1.54476785422000
  H   0.06336329079944     -0.62355977039820      1.41560910748604
  C   1.81590610431494      0.01819882455561      0.30772031826341
  H   2.52893307404940     -0.54337933465901      0.91191758162497
  H   1.78521569375846      1.04283632984146      0.68353708585720
  H   2.17546895962680      0.02517633905964     -0.72399959129930
  N   -0.80270851766272      1.47986735979400     -0.18039128596812
  H   -0.85596706102449      1.63620032474693      0.81776294841825
  H   -0.10458275372937      2.07866433850574     -0.59554905416291
  N   -1.90609578155191     -0.58992692900659     -0.33850505770339
  O   -2.36746920346135     -0.59346426801200      0.80027824439878
  O   -2.43173377533071     -1.06203049022143     -1.33904703871134
