15
Coordinates from ORCA-job run
  C   0.56658627313971     -0.71731054239041      0.18435466950184
  C   -0.59252684249070      0.10697794732580     -0.33934837560460
  Cl  0.73099316393678     -2.15773066603308     -0.86573441631747
  H   -0.52740107147670      0.20454863809318     -1.43003233540962
  H   0.30841717606421     -1.08350040773968      1.17696981567101
  C   1.86926722535181      0.05967234938912      0.19972542833980
  H   2.69238258706801     -0.60101792763117      0.47265698224260
  H   2.08902292017862      0.48255335437213     -0.78397551545614
  H   1.82083665937461      0.85834863711544      0.94276709659799
  N   -0.72817865529060      1.35145500831276      0.38990020072666
  H   -1.56574581067547      1.82558414786006      0.06776002367245
  H   0.05609717220405      1.95457889010481      0.17447087932771
  N   -1.90670827056222     -0.60896305453037     -0.11906923069593
  O   -2.83011902742354     -0.21687293157112     -0.83061772261150
  O   -1.98492349939854     -1.45732344267749      0.76017250001519
