15
Coordinates from ORCA-job run
  C   1.00272947378952      0.27559026301310     -0.12463920170300
  C   -0.44903048574219      0.69630887268327     -0.36309346006009
  Cl  1.89052633234681      1.67805077960266      0.53475681606076
  H   -0.46939880443010      1.60837291874622     -0.96073430641442
  H   1.45430019613671      0.06890669537817     -1.09549928873227
  C   1.13722760592473     -0.91310594834144      0.80605664008977
  H   0.56436463846235     -1.76493128836081      0.42932313634742
  H   2.18324108208845     -1.21126866082696      0.88178188128685
  H   0.78741758143267     -0.65567460496080      1.80663412337998
  N   -1.19776514776429      0.85146453587650      0.82248723993786
  H   -1.39262194505881     -0.04014540470135      1.25765460337228
  H   -2.07357354075917      1.32435442432587      0.64830307632982
  N   -1.01987804209397     -0.37657243425532     -1.31803065910850
  O   -0.61689915995137     -0.34195235361104     -2.47671308254962
  O   -1.80163978438132     -1.20039779456806     -0.84928751823683
