15
Coordinates from ORCA-job run
  C   0.87702079004296      0.18387198463982     -0.41087039684361
  C   -0.61692072172494      0.55766914900458     -0.46803507764388
  Cl  1.78707505036852      1.71169886545181     -0.18754997531234
  H   -0.76786124061586      1.23924419179112     -1.30612443935854
  H   1.16662104455282     -0.19428391379133     -1.39306802295326
  C   1.23734888617900     -0.80091877471077      0.68112062017720
  H   2.30890262756021     -1.00194325840165      0.66194032317363
  H   0.98984027134782     -0.40291708402704      1.66648792334553
  H   0.70766129109111     -1.74527664053832      0.53802073566432
  N   -1.24844088821489      1.08807196069503      0.69559490483927
  H   -0.88648459546070      2.00908568950162      0.90139210314944
  H   -1.13748751630236      0.48262188232302      1.49715185256105
  N   -1.32161341184491     -0.71811576613175     -0.86166259651504
  O   -1.23977180505814     -1.03875087126896     -2.04486869233348
  O   -1.85588978192063     -1.37105741453717      0.02947073804970
