15
Coordinates from ORCA-job run
  C   0.71304541424577      0.22591316937966      0.46636405653110
  C   -0.54080737351258      0.48795768310816     -0.38513995112010
  Cl  0.26842262986984     -0.08706494231704      2.17171720613919
  H   -0.19620765236214      0.74455459126710     -1.38942797919769
  H   1.25439068049155      1.17620857907574      0.47994756963717
  C   1.60953917544217     -0.88371739946096     -0.04807946180969
  H   1.12608815360417     -1.85606868839544      0.04404055255403
  H   2.53813481130879     -0.90425920764634      0.52358887641335
  H   1.84606358589198     -0.71861887080994     -1.10206024972297
  N   -1.46739652664812      1.47568397416959      0.06720167707233
  H   -1.09890255078379      2.40492918096202     -0.08227268453248
  H   -1.69011358154178      1.34647467134982      1.04547221298061
  N   -1.28339207213828     -0.81151531456416     -0.56037492650398
  O   -2.14858126877940     -1.07630085640642      0.26628759070845
  O   -0.93028342508817     -1.52517656971179     -1.49826448914932
