16

C	-0.51697	-0.004001	-1.427896
C	0.0	0.0	0.0
F	-0.06136	-1.092127	-2.120688
H	1.091684	0.0	0.0
N	-1.918459	0.060089	-1.531431
H	-2.221739	0.839344	-0.957141
H	-2.174652	0.249534	-2.496346
N	0.143297	1.196098	-2.217392
O	-0.553527	1.68932	-3.116186
O	1.275084	1.55543	-1.922202
C	-0.471786	-1.204223	0.6613
N	-0.835096	-2.154327	1.253112
N	-0.466757	1.23203	0.645567
H	-1.129628	1.034759	1.38747
H	0.354205	1.666035	1.062176
F	2.54432	0.0	0.0
