16

C	-0.566688	0.026145	-1.397497
C	0.0	0.0	0.0
F	-1.980927	-0.078386	-1.35472
H	1.090886	0.0	0.0
N	-0.142262	1.144852	-2.104085
H	-0.702461	1.29319	-2.930668
H	-0.14238	1.930986	-1.465557
N	-0.208318	-1.209552	-2.21215
O	-0.531994	-1.167852	-3.398016
O	0.332924	-2.152508	-1.64994
C	-0.539324	-1.096083	0.790528
N	-0.993972	-1.907828	1.509991
N	-0.285957	1.310551	0.619239
H	-1.090128	1.272913	1.23303
H	0.540393	1.536711	1.162024
F	2.521081	0.0	0.0
