16

C	-0.588489	0.054198	-1.40885
C	0.0	0.0	0.0
F	-0.387908	-1.14102	-2.021408
H	1.095608	0.0	0.0
N	-1.971778	0.394255	-1.536659
H	-2.49376	-0.336126	-1.060966
H	-2.096308	1.260305	-1.02241
N	0.18246	1.09867	-2.21533
O	-0.188518	2.262794	-2.085887
O	1.091461	0.704516	-2.927634
C	-0.515406	-1.194169	0.64665
N	-0.983469	-2.117769	1.20632
N	-0.391136	1.218277	0.732931
H	-0.933295	0.990131	1.555916
H	0.480264	1.635499	1.04264
F	2.521222	0.0	0.0
