16

C	-0.155326	0.198531	-1.523221
C	0.0	0.0	0.0
F	-1.311712	0.907132	-1.846215
H	1.100655	0.0	0.0
N	0.979271	0.841738	-1.995043
H	1.121634	0.714035	-2.984862
H	1.812224	0.567623	-1.427962
N	-0.4336	-1.162522	-2.23635
O	-1.573583	-1.608	-2.171204
O	0.515699	-1.699589	-2.802641
C	-0.608627	-1.206394	0.534975
N	-1.08368	-2.166917	1.01882
N	-0.407193	1.179233	0.75535
H	0.381286	1.814765	0.73722
H	-1.193108	1.630321	0.302626
F	2.632612	0.0	0.0
