17

C	-0.492384	0.0052	-1.565431
C	0.218439	0.017951	-0.193102
Cl	-2.263436	-0.261625	-1.34989
H	1.294875	0.083911	-0.422976
C	-0.335061	1.302357	-2.226356
N	-0.162766	2.334337	-2.761788
C	0.053553	-1.106193	-2.450178
H	-0.059304	-2.043857	-1.908671
H	1.116209	-0.929314	-2.636281
H	-0.478945	-1.141563	-3.402089
N	0.021462	-1.254278	0.459061
H	-0.861897	-1.194218	0.957291
H	0.75629	-1.307005	1.165938
N	-0.242683	1.127845	0.625372
H	0.326209	1.063242	1.471038
H	0.016385	2.0071	0.185311
Cl	2.371648	-0.024707	2.427308
