17

C	-0.521187	0.071378	-1.584568
C	0.210347	-0.019569	-0.231409
Cl	-0.286359	-1.475627	-2.501147
H	1.283681	-0.118417	-0.456788
C	-1.960746	0.234606	-1.373433
N	-3.111487	0.429499	-1.239943
C	0.021736	1.205759	-2.440985
H	-0.108758	2.138505	-1.894801
H	1.087569	1.040116	-2.61046
H	-0.493574	1.244425	-3.402437
N	-0.308984	-1.120834	0.563605
H	0.254451	-1.099239	1.414906
H	-0.093513	-2.000739	0.105928
N	0.032399	1.246603	0.448439
H	-0.839545	1.177739	0.967598
H	0.779159	1.281964	1.144289
Cl	2.350156	-0.089295	2.378824
