16

C	0.0	0.0	0.0
C	-0.461514	0.044333	-1.451581
Cl	1.810681	0.0	0.0
H	-1.55441	0.016364	-1.407298
H	-0.153209	1.018091	-1.855573
N	-0.467947	1.208745	0.637322
H	-1.487029	1.19166	0.537943
H	-0.2731	1.146728	1.632166
C	-0.43352	-1.284219	0.686814
H	-0.060994	-1.300249	1.715685
H	-0.058991	-2.15506	0.14926
H	-1.526423	-1.294336	0.694339
N	0.012734	-1.104091	-2.220439
H	-0.589144	-1.229571	-3.02384
H	0.950709	-0.924301	-2.556017
Cl	-3.780632	0.0	0.0
