16

C	0.0	0.0	0.0
C	-0.301361	0.080519	-1.52371
Cl	1.811385	0.0	0.0
H	0.225138	0.968883	-1.883218
H	0.186611	-0.786773	-1.981396
N	-0.509454	1.177115	0.656269
H	-1.521976	1.14865	0.522392
H	-0.352319	1.096537	1.656222
C	-0.459815	-1.310334	0.620984
H	-0.046178	-2.172922	0.091939
H	-1.553182	-1.345422	0.587914
H	-0.146511	-1.361195	1.667634
N	-1.668545	0.14364	-1.975425
H	-2.241787	-0.593537	-1.58498
H	-2.121259	0.992297	-1.663792
Cl	-4.163779	0.0	0.0
