16

C	0.0	0.0	0.0
C	-0.35676	0.295906	-1.470972
Cl	1.854876	0.0	0.0
H	0.109476	1.257945	-1.718415
H	0.139451	-0.455218	-2.094219
N	-0.489416	1.043301	0.820161
H	-0.076077	1.937147	0.593768
H	-0.412342	0.849076	1.807913
C	-0.510374	-1.335014	0.486326
H	-1.602915	-1.294543	0.497196
H	-0.153803	-1.537198	1.50045
H	-0.16923	-2.141372	-0.165653
N	-1.757927	0.350297	-1.799147
H	-2.202333	-0.555874	-1.724701
H	-2.277377	0.923243	-1.14227
Cl	-4.53239	0.0	0.0
