16

C	0.0	0.0	0.0
C	-0.42984	0.247713	-1.456195
Cl	1.811008	0.0	0.0
H	0.038496	-0.510511	-2.092367
H	-1.513107	0.099998	-1.47047
N	-0.467648	0.979754	0.945381
H	-0.292795	1.90766	0.574323
H	-1.482525	0.856955	0.992245
C	-0.446885	-1.376503	0.453077
H	-0.080018	-1.565732	1.463325
H	-0.059769	-2.144523	-0.219965
H	-1.539345	-1.398437	0.446098
N	-0.139915	1.564929	-2.006647
H	0.810909	1.835753	-1.782789
H	-0.774606	2.245046	-1.609032
Cl	-3.739225	0.0	0.0
