16

C	0.0	0.0	0.0
C	-0.447525	0.014084	-1.461879
Cl	1.869568	0.0	0.0
H	0.030486	-0.824342	-1.977637
H	-1.530027	-0.151012	-1.424485
N	-0.470289	1.144388	0.668199
H	-0.107063	2.001214	0.277942
H	-0.315167	1.11174	1.664974
C	-0.468293	-1.253805	0.700235
H	-0.097058	-1.285431	1.728812
H	-0.109312	-2.142731	0.178304
H	-1.563532	-1.225764	0.699957
N	-0.199247	1.239891	-2.204113
H	0.749803	1.561079	-2.052793
H	-0.84967	1.950932	-1.895463
Cl	-3.960817	0.0	0.0
