15
Coordinates from ORCA-job run
  C   0.63006583699510     -0.04738446003253     -0.68130298593698
  C   -0.40522356360999      0.61462079914627      0.25900444213659
  Cl  0.27704491799786      0.29713115286313     -2.39307197164042
  H   -0.29156312455267      1.69792123374067      0.21820673671020
  C   1.93196761155016      0.57516549046155     -0.37177052293638
  N   2.98218674715199      1.02842689726018     -0.10105617502052
  N   0.61139638781574     -1.47626144753848     -0.48742484699047
  H   1.04381432850797     -1.69411705888265      0.40394380228949
  H   1.13747994899425     -1.93326745282077     -1.22247325801044
  N   -0.19998853826903      0.10148334058014      1.57019782685786
  H   -0.68260013273428     -0.78681422732369      1.65710821251901
  H   -0.55378396395651      0.73642820721408      2.27287697208942
  N   -1.81735024603006      0.35419140166559     -0.25539587256636
  O   -2.35770619241415     -0.68593973930878      0.10790418121283
  O   -2.30674001744637      1.21741586297528     -0.97774654071383
