15
Coordinates from ORCA-job run
  C   0.80436911744936      0.10642347660848     -0.52545688811179
  C   -0.56667839010487      0.41029777635227      0.10816749270746
  Cl  1.42940972150510      1.72830959987870     -1.03434707632956
  H   -1.19717123155665      0.86235293721559     -0.67222342840683
  C   1.73333478616811     -0.44412633169164      0.46545546529154
  N   2.50080575942355     -0.88505627626236      1.23697943615344
  N   0.79181484924925     -0.72182684913395     -1.69380748054305
  H   0.55704815002801     -1.67387432975188     -1.44340695178548
  H   0.14687807421111     -0.36326712407984     -2.38782670118599
  N   -0.46108519988410      1.13435540277196      1.34106650658658
  H   0.09089458095674      1.97220281486269      1.21474379093507
  H   -1.38306742124560      1.39117668113901      1.67176294352561
  N   -1.29232429545687     -0.86915107405578      0.47208276075442
  O   -2.45839700593656     -0.70484084854437      0.81537353302183
  O   -0.69583149480657     -1.94097585530887      0.43143659738674
