15
Coordinates from ORCA-job run
  C   0.57846488971264     -0.31751946189056     -0.51816033757551
  C   -0.50859037347521      0.27473836184063      0.39471608559065
  Cl  -0.11448465331805     -1.47558842154919     -1.67461234878476
  H   -0.01718931830628      1.03982031285062      1.02106063367889
  C   1.28322042132590      0.73717404437170     -1.26354544347169
  N   1.97304673983865      1.54801537674394     -1.76233969011194
  N   1.48100509194007     -1.05830131690148      0.35472836392391
  H   2.10441929784403     -1.62437528194195     -0.21072121773780
  H   2.05047670769035     -0.40240121950174      0.88265336858326
  N   -1.19308193570390     -0.76184593602508      1.09437593111756
  H   -1.73688907138842     -0.38139992822240      1.85597578011589
  H   -0.51517410064379     -1.43242316253896      1.43420385877055
  N   -1.54213086206302      1.07699556233238     -0.36844375369566
  O   -2.51993691295604      1.40147874330164      0.29584458749102
  O   -1.32515592049693      1.37663232713044     -1.53673581789435
