15
Coordinates from ORCA-job run
  C   0.79639431741408      0.08287119420098     -0.41606019124528
  C   -0.56046675268598      0.52077419232459      0.14830608816582
  Cl  1.79425668107590      1.58024366705193     -0.48507373671975
  H   -0.97816510072178      1.24617706697848     -0.56194780451803
  C   1.48757626599710     -0.85075025530782      0.48760306561967
  N   2.07792825912493     -1.63176207803674      1.13782082573730
  N   0.64114562735551     -0.37762156136681     -1.77387330418457
  H   0.24117644825673     -1.30916543036292     -1.75924214384634
  H   1.54666120380766     -0.41734544068619     -2.22713361617398
  N   -0.47059500793765      0.92457635847250      1.52313544815630
  H   0.20096127916992      1.67406455500056      1.62638043557265
  H   -1.37544028349842      1.25229886131482      1.83851914022177
  N   -1.54750630992405     -0.62618716500158      0.14266430969013
  O   -2.68717914422723     -0.31284699120638      0.46707621173090
  O   -1.16574748320672     -1.75632697337543     -0.14817472820658
