15
Coordinates from ORCA-job run
  C   0.75651230243275     -0.27233611636159     -0.28275816089579
  C   -0.48089688664946      0.65964800071485     -0.15363716600417
  Cl  2.09804552009913      0.85464892372366     -0.89067022897720
  H   -0.65428344179581      1.11565069219444     -1.12935116152392
  C   1.20415980947434     -0.74120366926919      1.02873923722733
  N   1.56385043690497     -1.09599707601276      2.08940657505439
  N   0.48389912283638     -1.35980845649546     -1.12978186807532
  H   1.26656374246493     -1.99170312980537     -1.23338133762401
  H   0.12681777193946     -1.07532406005019     -2.03321779193990
  N   -0.46332291658122      1.65197482054482      0.86201925475904
  H   0.18411749108760      2.39465370628815      0.63990403256124
  H   -0.25240600689544      1.25544995133407      1.76971494981414
  N   -1.66204782117721     -0.24139419833575      0.09297964422151
  O   -1.78989703678393     -0.65859507354681      1.23876011538754
  O   -2.38111208735648     -0.49466431492285     -0.86772609398488
