15
Coordinates from ORCA-job run
  C   0.77562471799604      0.12772655643343     -0.53058180712717
  C   -0.56813344765588      0.59305942587509      0.05462121153576
  Cl  1.59090614319256      1.59646900290336     -1.14140847027451
  H   -1.05900333069653      1.21809528175481     -0.69043639978926
  C   1.64069755005687     -0.43754345075781      0.51957318974386
  N   2.31963263887338     -0.90685544073538      1.35650503555387
  N   0.53614234564645     -0.74356866477048     -1.65695188240587
  H   0.30234001272369     -1.67236807680430     -1.32218196760423
  H   1.37114059568066     -0.80399978949465     -2.22810611201227
  N   -0.41111319796519      1.28368949249923      1.27980834683844
  H   -0.07755219955041      0.68452400366457      2.02525327158995
  H   -1.25819812605226      1.75859670338265      1.55891020453689
  N   -1.49017324666367     -0.61551990498747      0.19314533094539
  O   -2.68594773998513     -0.40847432591558      0.01620153355753
  O   -0.98536271560058     -1.67583081304746      0.56664851491162
