15
Coordinates from ORCA-job run
  C   0.79685791321797     -0.09885333250823     -0.41127760470065
  C   -0.53555372145533      0.56464420506465     -0.04320271680083
  Cl  1.86135389714939      1.23980868647610     -0.97513499297719
  H   -0.92414445710448      1.02328364855447     -0.96175422169893
  C   1.45032334919362     -0.69942308979261      0.76273063615206
  N   2.00795074814984     -1.24040687409308      1.64451752769571
  N   0.61385483889712     -0.98610290591221     -1.53318210656738
  H   1.51424236614906     -1.22046875696352     -1.93478827024874
  H   0.16883745870147     -1.83698601591974     -1.20782554518956
  N   -0.41950672444249      1.40777020678003      1.11321817091051
  H   0.28732526643231      2.11558235367750      0.96226640247966
  H   -1.30610294244043      1.86507765896399      1.28764593745894
  N   -1.57387617446490     -0.47065115523038      0.33176150747799
  O   -1.24560109728518     -1.64830781498768      0.44517072120448
  O   -2.69596072069799     -0.01496681410930      0.51985455480392
