15
Coordinates from ORCA-job run
  C   0.53927291557690     -0.32516909635294     -0.55470544448972
  C   -0.47600580559953      0.28415129603310      0.42679863795063
  Cl  -0.26486342819745     -1.37433155709003     -1.74248782677971
  H   0.08440187182560      0.98133592887243      1.07405505085443
  C   1.28479607718129      0.72222458128167     -1.27038921990962
  N   2.00777125201494      1.51385854850414     -1.75273769814292
  N   1.42126532730346     -1.16610043564701      0.24540024067575
  H   2.05074812873555     -0.57622681101332      0.78287699105774
  H   1.98584920683939     -1.74114683256189     -0.37049356764918
  N   -1.20330089153203     -0.74325212383898      1.09631559734109
  H   -0.55944211862796     -1.47215920752295      1.37717597391824
  H   -1.69555978546983     -0.37017736575279      1.89571772922128
  N   -1.48010957687250      1.19039048103949     -0.25506190731436
  O   -2.40895434529331      1.54347179061000      0.46283220939705
  O   -1.28686882788452      1.53413080343908     -1.41529676613070
