15
Coordinates from ORCA-job run
  C   0.64387332542629     -0.15641679500565     -0.45382812788781
  C   -0.48357571778589      0.33618841263565      0.49799620672405
  Cl  -0.11718511610583     -1.21468328591700     -1.74148514087060
  H   -0.02308890667974      1.07563713114902      1.15482825879173
  C   1.31243895409769      0.94417255220782     -1.14800806129067
  N   1.91429536263636      1.79350513912916     -1.69284388842372
  N   1.59809815572299     -0.84441354782070      0.34552539887358
  H   1.19345698815632     -1.69189857008436      0.72417491658978
  H   2.42582074526852     -1.08070287055395     -0.18790249552210
  N   -1.13734410437130     -0.65740638336542      1.26083829040632
  H   -1.47377769833820     -1.44104966585958      0.72089661859849
  H   -0.62483232168229     -0.92950565974080      2.08439500114534
  N   -1.50386756247163      1.09989121280751     -0.31723260563265
  O   -1.17623291950385      2.23802962606479     -0.64525893614284
  O   -2.54707918436945      0.52665270435351     -0.60209543535890
