15
Coordinates from ORCA-job run
  C   0.72425927072626     -0.04343071338733     -0.55127022279111
  C   -0.40970342695156      0.64084920081257      0.23600603003696
  Cl  0.46646482101436      0.37451229746155     -2.32180096628861
  H   -0.39007000424551      1.71452739641383      0.04964159016592
  C   1.98532255434625      0.59317002721086     -0.16088812763241
  N   3.00828536878310      1.08912260554774      0.13253057379368
  N   0.79167201731507     -1.43060978763726     -0.28054817300120
  H   1.61531832800447     -1.85358542184468     -0.68785275910779
  H   -0.04889726993797     -1.90666439060012     -0.58399739297560
  N   -0.26623284325292      0.34758371357103      1.60792530588939
  H   -0.26322078830681     -0.64792509713519      1.78398090806306
  H   -0.93420036192995      0.83427400063172      2.18937162303626
  N   -1.75660451468358      0.20273615197496     -0.35015036510678
  O   -2.51225547781560      1.08868453763010     -0.73417247502757
  O   -2.00913767306562     -1.00224452064977     -0.32877554905422
