15
Coordinates from ORCA-job run
  C   0.71626454651668     -0.01544084136420     -0.56386895139955
  C   -0.40263410161157      0.62687950964652      0.27869267824269
  Cl  0.43377400025989      0.50367130102978     -2.30358442649867
  H   -0.38050963414632      1.70941623153993      0.15399076425150
  C   1.98494527922905      0.59521099682475     -0.15660533391620
  N   3.01126547623705      1.07698425223220      0.14976890740154
  N   0.78137708360732     -1.41590529358754     -0.37362394932531
  H   -0.06714191610386     -1.87046873815863     -0.68767095717121
  H   1.59474845650551     -1.81875256450036     -0.82006516203660
  N   -0.24052588469537      0.25410103279692      1.62869400924790
  H   -0.23972605376617     -0.74981166839774      1.74783332136211
  H   -0.89498541303850      0.71049574021165      2.24845176712893
  N   -1.76037942616600      0.22883186041537     -0.31193499088652
  O   -2.01915597523899     -0.97424685888157     -0.35509210118492
  O   -2.51631643758873      1.13803504019294     -0.63498557521570
