15
Coordinates from ORCA-job run
  C   0.64637842485812     -0.20045636976527     -0.55767146213638
  C   -0.45791355631303      0.24163067043554      0.46015774123613
  Cl  -0.12636546588937     -1.21492722638591     -1.81929094847593
  H   0.03489887830894      0.89004005803785      1.18771905571959
  C   1.26875583532580      0.95909936774789     -1.20091843724782
  N   1.79643292282187      1.89609765739483     -1.67422068552097
  N   1.68451073284895     -0.98280787916117      0.05840727097030
  H   1.28654451182202     -1.75918962717577      0.57250544204060
  H   2.26091777651157     -0.41092861749305      0.66508772112887
  N   -1.15278724605794     -0.79602566085926      1.12551831224263
  H   -1.50074966936783     -1.51615362527127      0.50974712888142
  H   -0.66278024683842     -1.16537282790552      1.92398306835677
  N   -1.45810160847209      1.13363961256680     -0.24061120351386
  O   -1.14749655194896      2.31922701534835     -0.33700764226146
  O   -2.47424473760963      0.60412745248593     -0.67340536141991
