15
Coordinates from ORCA-job run
  C   0.66653861169526     -0.13453826341353     -0.42722959098810
  C   -0.51315767281790      0.31786090489485      0.47999383387743
  Cl  -0.00883751824904     -1.21196491222187     -1.74694940426805
  H   -0.10202254895797      1.06553783298101      1.15978535139142
  C   1.32643393579057      0.98900216175954     -1.09243879479695
  N   1.92181326404782      1.85745301406879     -1.61375265436483
  N   1.60965020178157     -0.79489841951679      0.40780901717605
  H   1.21693821276046     -1.65574961369574      0.76852075259016
  H   2.46459833445868     -1.00386970635117     -0.09317651977168
  N   -1.16802788989271     -0.69988972373899      1.20904397334382
  H   -0.68395085061837     -0.96220516303971      2.05256547212421
  H   -1.45916941490485     -1.48884809275769      0.65108592559941
  N   -1.52129400602708      1.05743899282766     -0.37171589921445
  O   -2.53391059718284      0.45555194816471     -0.70408349203093
  O   -1.21560206188360      2.20811904003892     -0.67645797066752
