15
Coordinates from ORCA-job run
  C   0.81363384484254     -0.05691362233962     -0.51450212725379
  C   -0.53841231362169      0.60835463076172     -0.16529567141430
  Cl  1.84021007311673      1.18402920659361     -1.29743694115163
  H   -1.02604707182740      0.87186279878707     -1.10468477759764
  C   1.48974571093807     -0.43868612112975      0.74138714471467
  N   1.98485017329292     -0.77912391985096      1.75235455327872
  N   0.63654743259092     -1.12286934749335     -1.45586931930590
  H   -0.05935130181445     -1.79193025367206     -1.15179533187430
  H   1.51561443947192     -1.58959844343301     -1.63968381144581
  N   -0.38509207238541      1.71398211097541      0.69038762210462
  H   -0.10693692693924      1.43257651730095      1.62260973103513
  H   -1.23013005585820      2.26496179964043      0.74263658516787
  N   -1.43188990791899     -0.49853196093699      0.44607618111873
  O   -2.01129290207148     -1.24990338191497     -0.33679781814361
  O   -1.49044912181624     -0.54921001328849      1.67061398076725
