15
Coordinates from ORCA-job run
  C   0.71665691673112     -0.13187977691364     -0.56704875234140
  C   -0.70728038433014      0.32749195474884     -0.18176076312908
  Cl  1.05726179797599      0.64724869870692     -2.19137495354766
  H   -1.38206688534686      0.10068938748764     -1.00808829448296
  C   1.70295223495281      0.41744552292839      0.36756324292875
  N   2.48731690303461      0.85793574423459      1.12282919410952
  N   0.80383279617366     -1.54292035831731     -0.57358634696656
  H   0.11955283197475     -1.96511048596169     -1.18957384517253
  H   1.73317436739911     -1.86505584870791     -0.80963495944484
  N   -0.74529893162150      1.69583978232634      0.15374155874269
  H   -0.28180717017883      1.87377805347800      1.03679931912571
  H   -1.69072948995378      2.05059243095429      0.18358342349676
  N   -1.16304010859154     -0.60087863362453      0.94820030714975
  O   -0.77964515906957     -0.31386487077175      2.07741268466539
  O   -1.87187971914985     -1.55131160056817      0.63193818486645
