15

C	0.0	0.0	0.0
C	-0.586054	0.07408	-1.435922
Br	1.967338	0.0	0.0
H	-1.717002	0.00025	-1.107286
C	-0.353771	1.275732	0.650418
N	-0.561107	2.305265	1.176896
N	-0.476422	-1.067937	0.82153
H	-0.284178	-1.941053	0.343935
H	-1.503212	-0.905345	0.788113
N	-0.166184	-1.087522	-2.267481
O	0.334422	-0.87364	-3.37116
O	-0.367061	-2.209047	-1.80193
C	-0.270929	1.309456	-2.122285
N	-0.067739	2.340622	-2.649444
F	-2.713472	0.0	0.0
