15

C	0.0	0.0	0.0
C	-0.606902	-0.101629	-1.410622
Br	1.948286	0.0	0.0
H	-1.724285	-0.057169	-1.121891
C	-0.349688	1.34238	0.520344
N	-0.558166	2.40533	0.978211
N	-0.50488	-1.089425	0.776551
H	-0.218906	-0.962173	1.741349
H	-1.537939	-0.94258	0.697113
N	-0.293686	-1.433843	-2.019751
O	0.744166	-1.533591	-2.676553
O	-1.100598	-2.336122	-1.822255
C	-0.17407	0.957879	-2.297583
N	0.125707	1.840358	-3.013927
F	-2.758097	0.0	0.0
