15

C	0.0	0.0	0.0
C	-0.599019	-0.228015	-1.400064
Br	1.959082	0.0	0.0
H	-1.714357	-0.156762	-1.126858
C	-0.345962	1.38407	0.397545
N	-0.548492	2.471886	0.796193
N	-0.509535	-1.012692	0.867555
H	-0.22352	-0.803691	1.818203
H	-1.543433	-0.867179	0.770049
N	-0.286929	-1.611538	-1.88359
O	0.764043	-1.779282	-2.504409
O	-1.109144	-2.484805	-1.626625
C	-0.157621	0.745151	-2.378079
N	0.144821	1.545814	-3.183649
F	-2.754514	0.0	0.0
