15

C	0.0	0.0	0.0
C	-0.601647	0.10945	-1.412445
Br	1.957995	0.0	0.0
H	-1.718334	0.116751	-1.126561
C	-0.346903	1.249348	0.714949
N	-0.551859	2.213195	1.357062
N	-0.508794	-1.190522	0.6032
H	-0.221292	-1.213197	1.575894
H	-1.542298	-1.026901	0.54495
N	-0.29548	-1.123646	-2.20685
O	-1.125014	-2.025884	-2.168112
O	0.758824	-1.148412	-2.843422
C	-0.159039	1.282115	-2.137915
N	0.142583	2.249043	-2.734141
F	-2.755663	0.0	0.0
