12
Coordinates from ORCA-job run
  C   0.39296277217981     -0.08527387097350      0.63921866831442
  C   -0.36723167590472     -0.17846735450259     -0.66715701666575
  Cl  0.03947516450923      1.58363697526062      1.36767008114465
  H   0.02107932471440      0.59366431268382     -1.35031177625132
  H   -0.03499972751244     -0.77694796534173      1.36290045471786
  H   -0.12212359676397     -1.15628372066700     -1.08959628730390
  N   1.77361922328726     -0.33567971474808      0.46171950727490
  H   2.19435033886115      0.34250829704857     -0.16078906270020
  H   2.27326348324605     -0.32347310452339      1.34057118982745
  N   -1.80287229756913     -0.11930626551725     -0.43555717888638
  H   -2.29620342747836     -0.36735111407922     -1.28301463128688
  H   -2.07231958156927      0.82397352535977     -0.18665394818484
