12
Coordinates from ORCA-job run
  C   0.43659069988553     -0.22038696511903      0.56430243267507
  C   -0.39532492864381      0.25179933632719     -0.61055865489685
  Cl  -0.47025770944180      0.07191528143942      2.08934693014950
  H   0.22319867783306      0.14497845069808     -1.50909126373190
  H   0.53862975705558     -1.30967164544275      0.51155238437050
  H   -0.59604788234963      1.32155593197554     -0.46550048038032
  N   1.67115144085072      0.52682570718966      0.63384843819046
  H   2.21748059933132      0.22782985133647      1.43230377434306
  H   2.21368546441482      0.34619375949888     -0.20350472348447
  N   -1.57264777505484     -0.59090758636775     -0.77391532965658
  H   -2.03665725681392     -0.36672472023587     -1.64449048033291
  H   -2.22780108706704     -0.40240740129983     -0.02529302724556
