12
Coordinates from ORCA-job run
  C   0.52113040282401     -0.34618960838318      0.42431468196036
  C   -0.39644414793405      0.23359037924018     -0.63213073645722
  Cl  -0.31498117517191     -0.12731681959102      2.06531914388956
  H   -0.51000217186846      1.31214875558151     -0.43784358354584
  H   0.57873626934172     -1.42701816013802      0.30706229862715
  H   0.12817108866320      0.11611789978987     -1.58380292461062
  N   1.81022598101830      0.23379275963471      0.37359550933081
  H   1.77323910304875      1.23078308681838      0.54395445552989
  H   2.43832789038949     -0.18740241400530      1.04458981756895
  N   -1.64629503235836     -0.50828069349877     -0.69555840384473
  H   -2.21704523535509     -0.29230355294808      0.11177442927831
  H   -2.16406297259759     -0.23792163250029     -1.52127468772661
