12
Coordinates from ORCA-job run
  C   0.41332481777649     -0.31883768495661      0.64252866143010
  C   -0.31716028236893      0.19785279344527     -0.58781475813560
  Cl  -0.56721670632900      0.11693092568246      2.09305214814200
  H   -0.39367516998281      1.29389820473217     -0.50155216972758
  H   0.43141156719748     -1.40901305373262      0.61268887974702
  H   0.32453831236447     -0.02405878784914     -1.44726200620805
  N   1.75010856734723      0.17454726875992      0.82978846198776
  H   2.37842068278597     -0.26671061033432      0.17020090705114
  H   1.78419759253771      1.17892704689475      0.70428170213262
  N   -1.58451450061256     -0.49299094976568     -0.77640927784400
  H   -2.24096189770144     -0.19876565750843     -0.06430523291738
  H   -1.98047298301462     -0.25377949536777     -1.67619731565802
