12
Coordinates from ORCA-job run
  C   0.46934573698132     -0.39392358991870      0.55588487547673
  C   -0.36210805557296      0.27565435401841     -0.52774540170980
  Cl  -0.46483411055719     -0.31512824587370      2.09836587902185
  H   -0.51494871709628      1.32756005092991     -0.23631044527507
  H   0.56803068599247     -1.45485511602108      0.32282568200436
  H   0.24745940908268      0.26777930073571     -1.43770762945903
  N   1.77259314853585      0.16737197048154      0.78017205033360
  H   2.40203514367442     -0.10541762814896      0.03618548314845
  H   1.72759378438247      1.17783411006807      0.82896883776425
  N   -1.58262628480949     -0.47184635369401     -0.79280722395079
  H   -2.04226865748842     -0.10551899049365     -1.61631743331267
  H   -2.22027208312488     -0.36850986208354     -0.01351467404188
