12
Coordinates from ORCA-job run
  C   0.54437270336986     -0.61038681384363      0.50327795950106
  C   -0.81704928694356     -0.10812679848773      0.02741785768580
  Cl  0.33402565469255     -1.35823036709894      2.11450844765496
  H   -1.14747145461897      0.67221544445391      0.71894240890429
  H   0.88986495379624     -1.40804295220811     -0.16019161615423
  H   -1.55097792045560     -0.92309053359426      0.07164512240741
  N   1.57739371136218      0.39306441585244      0.57762702996046
  H   1.31661609935755      1.08470773529420      1.27314564921338
  H   1.58938401851358      0.85724949948440     -0.32581083105015
  N   -0.64593552607767      0.47423666722105     -1.30351886106189
  H   -0.73302181459136     -0.24102005724596     -2.01417823245941
  H   -1.35820113840478      1.16842376017263     -1.48386493460168
