12
Coordinates from ORCA-job run
  C   0.45464027516859     -0.31991387219853      0.51245538591210
  C   -0.41788642043246      0.35343826832541     -0.55127908378016
  Cl  -0.45818648151509     -0.32674753944631      2.06672459345252
  H   0.18194472398989      0.39835498216129     -1.46774029994074
  H   0.60919783014050     -1.37168449385223      0.25758648236057
  H   -0.59852475192911      1.38534922250387     -0.23180668658167
  N   1.73923101271926      0.28718672799486      0.73522302623926
  H   2.36166023088560      0.07757842386269     -0.03524681766560
  H   1.64675937004678      1.29236279702600      0.82243723484425
  N   -1.69284998477772     -0.26081109521920     -0.86832413949209
  H   -2.26801232735148     -0.30845132928368     -0.03713365006321
  H   -1.55597347694474     -1.20666209187417     -1.20289604528523
