12
Coordinates from ORCA-job run
  C   0.44060894119593     -0.43736544151587      0.54982205649430
  C   -0.51589519563536     -0.57543276649864     -0.63339151979122
  Cl  -0.48919413725085     -0.29856876244902      2.07716009194203
  H   -1.11129452281830     -1.48178634851475     -0.50134163721805
  H   1.02473535967570     -1.35913381778416      0.66548029467363
  H   0.10362808147257     -0.72819627959806     -1.52695307507189
  N   1.23239024314839      0.76536158559116      0.39721563481348
  H   1.82506338399221      0.66509798624287     -0.42023912907480
  H   1.82985712509653      0.90282565749780      1.20313090110327
  N   -1.40237640263361      0.54721165283872     -0.86696653384536
  H   -0.85777665789093      1.40068276431110     -0.82663425482091
  H   -2.08074621835229      0.59830376987884     -0.11728282920447
