12
Coordinates from ORCA-job run
  C   0.60731031549899     -0.51939836406025      0.40297096425817
  C   -0.77431036048247     -0.48779100901254     -0.25593023249719
  Cl  0.60121933121319     -1.86829837800570      1.60085782958604
  H   -1.51983630844028     -0.29542698750266      0.52270460912044
  H   1.36628355537378     -0.78182723889626     -0.33851907759468
  H   -0.99985596761377     -1.47063168460160     -0.67651036919785
  N   1.02464189861838      0.68843062530332      1.05553938569422
  H   1.37185741988939      1.36714187044605      0.39317635626279
  H   0.28071588891917      1.08853014072301      1.61320976158720
  N   -0.92593014859018      0.50939316173271     -1.30304710874033
  H   -0.74479750521144      1.43829014838648     -0.94635616374185
  H   -0.28729811917475      0.33158771548744     -2.06809595473695
