17

C	0.0	0.0	0.0
C	-0.352741	0.2843	-1.554321
Cl	1.775555	0.0	0.0
H	0.58058	0.682778	-1.960115
N	-0.380889	1.137404	0.928549
O	-0.677894	0.860969	2.080345
O	-0.250448	2.269614	0.475419
C	-0.483909	-1.253474	0.557815
N	-0.628523	-2.345693	0.970047
N	-1.392232	1.213828	-1.896642
H	-1.109431	2.13409	-1.585868
H	-2.176069	0.909656	-1.293519
C	-0.649537	-1.065035	-2.19399
H	0.129272	-1.808132	-2.000274
H	-1.598925	-1.41339	-1.785552
H	-0.744996	-0.915477	-3.270785
F	-2.444401	0.0	0.0
