17

C	0.0	0.0	0.0
C	-0.530282	0.239406	-1.4517
Cl	1.751181	0.0	0.0
H	-1.342214	0.940849	-1.291872
N	-0.399451	1.177412	0.890844
O	-0.548871	0.959056	2.083132
O	-0.42522	2.276889	0.353793
C	-0.467412	-1.232816	0.62862
N	-0.609666	-2.264796	1.17389
N	-1.05334	-1.037658	-1.924617
H	-1.296732	-0.920575	-2.901442
H	-1.924304	-1.08642	-1.382406
C	0.476028	0.812312	-2.435618
H	-0.074617	1.102448	-3.335433
H	0.960558	1.706983	-2.047416
H	1.229715	0.070924	-2.717733
F	-2.500643	0.0	0.0
