17

C	0.0	0.0	0.0
C	-0.472133	-0.036988	-1.485067
Cl	1.759934	0.0	0.0
H	-1.561178	-0.101604	-1.328608
N	-0.442531	1.200075	0.82076
O	-0.434873	2.292082	0.266699
O	-0.649287	1.007119	2.009882
C	-0.452849	-1.211314	0.687003
N	-0.593363	-2.248047	1.221762
N	0.057951	-1.288904	-2.022006
H	0.809547	-1.122768	-2.678891
H	-0.681862	-1.797057	-2.484307
C	-0.112077	1.168506	-2.336328
H	-0.411455	0.939016	-3.364376
H	-0.645405	2.05784	-2.011746
H	0.962097	1.383209	-2.333784
F	-2.526864	0.0	0.0
