17

C	0.0	0.0	0.0
C	-0.438946	-0.021464	-1.496288
Cl	1.759587	0.0	0.0
H	-1.531095	-0.014734	-1.368814
N	-0.453322	1.207737	0.804911
O	-0.548092	2.277604	0.219516
O	-0.564797	1.046821	2.011685
C	-0.468588	-1.202969	0.687801
N	-0.614198	-2.222692	1.254037
N	0.014402	-1.314957	-2.005704
H	-0.732669	-1.755956	-2.523014
H	0.817135	-1.20707	-2.612653
C	0.044086	1.132735	-2.361819
H	-0.373285	2.082511	-2.041868
H	-0.287427	0.928811	-3.38552
H	1.136332	1.213624	-2.373424
F	-2.490068	0.0	0.0
