17

C	0.0	0.0	0.0
C	-0.357159	0.023464	-1.580177
Cl	1.774785	0.0	0.0
H	0.577849	0.341319	-2.048836
N	-0.382335	1.27463	0.728698
O	-0.244824	2.317364	0.097316
O	-0.688466	1.190593	1.907957
C	-0.483566	-1.144315	0.757251
N	-0.626218	-2.152273	1.346629
N	-1.391948	0.891793	-2.065666
H	-2.179584	0.683988	-1.427508
H	-1.1087	1.848224	-1.896476
C	-0.669167	-1.410117	-1.985106
H	-1.618072	-1.676562	-1.51918
H	0.105302	-2.11748	-1.675196
H	-0.772063	-1.441123	-3.071864
F	-2.45453	0.0	0.0
