17

C	0.0	0.0	0.0
C	-0.357686	0.035754	-1.580586
Cl	1.775304	0.0	0.0
H	0.576516	0.359786	-2.046261
N	-0.381281	1.26854	0.738217
O	-0.248035	2.315875	0.113101
O	-0.682377	1.17593	1.918402
C	-0.480841	-1.150774	0.750042
N	-0.628991	-2.1645	1.327974
N	-1.395486	0.904599	-2.059915
H	-1.113587	1.86175	-1.887148
H	-2.180281	0.691953	-1.418515
C	-0.661597	-1.396159	-1.997205
H	-1.604789	-1.680643	-1.526834
H	0.125088	-2.098473	-1.701827
H	-0.772267	-1.417326	-3.083326
F	-2.450451	0.0	0.0
