17

C	0.0	0.0	0.0
C	-0.262067	0.133374	-1.574208
Cl	1.768319	0.0	0.0
H	0.600716	-0.43217	-1.96016
N	-0.427653	1.085693	0.962766
O	-0.383253	2.243209	0.572056
O	-0.630611	0.729656	2.114718
C	-0.481882	-1.289399	0.473998
N	-0.561548	-2.420361	0.791535
N	-0.201556	1.526005	-2.022915
H	0.507954	2.04227	-1.521735
H	0.053052	1.506861	-3.004847
C	-1.459596	-0.530427	-2.232671
H	-1.587374	-1.55702	-1.889606
H	-2.360896	0.025342	-2.012798
H	-1.241249	-0.55327	-3.313304
F	-2.270552	0.0	0.0
