17

C	0.0	0.0	0.0
C	-0.504452	0.215077	-1.491817
Cl	1.759205	0.0	0.0
H	-1.319364	0.917474	-1.357179
N	-0.406177	1.169444	0.88303
O	-0.593783	0.946468	2.069624
O	-0.403864	2.270938	0.34858
C	-0.476069	-1.24203	0.595606
N	-0.603249	-2.324067	1.039313
N	-1.122711	-0.971327	-2.05094
H	-0.516619	-1.779553	-1.946763
H	-1.937367	-1.079584	-1.438704
C	0.52467	0.798876	-2.446722
H	1.320647	0.094894	-2.702111
H	-0.017351	1.045225	-3.362725
H	0.970632	1.711811	-2.049265
F	-2.457036	0.0	0.0
