17

C	-0.397787	0.064203	-1.450726
C	0.0	0.0	0.0
Cl	0.232993	-1.273912	-2.428098
H	1.096329	0.0	0.0
H	-0.051341	0.988991	-1.905626
N	-1.900915	0.103768	-1.604551
O	-2.538216	-0.943825	-1.531723
O	-2.398893	1.229102	-1.681214
C	-0.475291	-1.243126	0.733639
H	0.042591	-1.281413	1.696521
H	-0.206919	-2.150852	0.189235
H	-1.557766	-1.257336	0.916509
C	-0.423937	1.274152	0.719119
H	0.055644	1.279406	1.702191
H	-1.509104	1.367006	0.858437
H	-0.06839	2.160636	0.184922
F	2.623046	0.0	0.0
