17

C	-0.343638	0.037252	-1.463761
C	0.0	0.0	0.0
Cl	0.061765	-1.447924	-2.346715
H	1.096835	0.0	0.0
H	0.185662	0.852925	-1.951733
N	-1.808889	0.334027	-1.687439
O	-2.085118	1.50174	-1.973551
O	-2.63322	-0.551708	-1.477312
C	-0.543363	-1.189296	0.769087
H	-0.251095	-2.131298	0.302029
H	-0.101637	-1.173539	1.769671
H	-1.635535	-1.176327	0.869167
C	-0.396773	1.323581	0.647275
H	-1.481849	1.459229	0.751062
H	0.054201	1.360932	1.642239
H	0.004009	2.169337	0.081298
F	2.622148	0.0	0.0
