17

C	-0.334965	-0.055525	-1.455356
C	0.0	0.0	0.0
Cl	-2.096501	-0.267179	-1.839104
H	1.096433	0.0	0.0
H	0.182928	-0.8798	-1.937048
N	0.132261	1.168121	-2.199645
O	-0.466068	2.224218	-2.027231
O	1.110782	1.012705	-2.924764
C	-0.39778	-1.317819	0.653783
H	-0.015802	-2.166835	0.078169
H	-1.482505	-1.43312	0.768796
H	0.07053	-1.365113	1.640011
C	-0.547083	1.196196	0.756492
H	-0.112452	2.128454	0.396353
H	-0.269143	1.092101	1.809015
H	-1.639538	1.275791	0.693456
F	2.613092	0.0	0.0
