17

C	-0.57595	0.044111	-1.393757
C	0.0	0.0	0.0
Cl	0.22005	1.24218	-2.438939
H	1.095276	0.0	0.0
H	-1.645619	0.265574	-1.414507
N	-0.488216	-1.309619	-2.055714
O	-1.535743	-1.963585	-2.048446
O	0.587482	-1.695344	-2.488045
C	-0.444539	-1.260035	0.735272
H	-1.53513	-1.382181	0.79052
H	-0.045121	-1.21003	1.751455
H	-0.014862	-2.152441	0.274602
C	-0.445446	1.249825	0.749913
H	-1.534414	1.291145	0.904451
H	-0.130124	2.154565	0.225234
H	0.045716	1.260762	1.726109
F	2.628148	0.0	0.0
