17

C	-0.335462	-0.040003	-1.456384
C	0.0	0.0	0.0
Cl	-2.0896	-0.251295	-1.850292
H	1.096407	0.0	0.0
H	0.191531	-0.854293	-1.945672
N	0.132806	1.19501	-2.180724
O	1.159942	1.0729	-2.842274
O	-0.509685	2.231564	-2.043595
C	-0.408077	-1.313424	0.654413
H	-0.038622	-2.165364	0.075706
H	-1.492824	-1.416646	0.774473
H	0.063949	-1.367107	1.638696
C	-0.53361	1.202954	0.755058
H	-0.091561	2.129694	0.388285
H	-1.625349	1.294087	0.699221
H	-0.247271	1.101171	1.805794
F	2.614534	0.0	0.0
