17

C	-0.346839	0.075779	-1.460889
C	0.0	0.0	0.0
Cl	0.063248	-1.384178	-2.384129
H	1.096767	0.0	0.0
H	0.178087	0.907292	-1.927472
N	-1.814373	0.37168	-1.672987
O	-2.633886	-0.524269	-1.487701
O	-2.097474	1.545935	-1.92319
C	-0.541573	-1.210102	0.737429
H	-1.632919	-1.195969	0.846831
H	-0.091311	-1.225155	1.734083
H	-0.256801	-2.138802	0.240165
C	-0.395185	1.305556	0.683905
H	0.005905	2.166131	0.141222
H	0.056685	1.315415	1.679302
H	-1.480151	1.439292	0.792349
F	2.622065	0.0	0.0
