19

C	-0.577377	0.001817	-1.574476
C	0.204995	-0.04943	-0.259423
F	-0.202259	-1.122354	-2.342608
H	1.245115	-0.288358	-0.529663
C	-2.071239	-0.08825	-1.354148
H	-2.609799	0.028371	-2.299588
H	-2.379644	0.692574	-0.656492
H	-2.304486	-1.06578	-0.930905
C	-0.196234	1.213741	-2.405018
H	-0.559724	2.130138	-1.938481
H	0.891233	1.271814	-2.510152
H	-0.633545	1.12288	-3.403254
N	-0.250913	-1.128084	0.598769
H	0.44584	-1.135607	1.356522
H	-1.092865	-0.781545	1.054518
N	0.090812	1.232859	0.446345
H	0.589308	1.040097	1.337191
H	0.673368	1.920639	-0.027337
H	1.674382	0.052214	2.487873
