19

C	-0.361429	-0.060008	-1.454212
C	0.055131	-0.170243	0.016165
F	-1.783823	0.112587	-1.475314
H	1.116756	-0.445831	0.011133
C	0.254543	1.152938	-2.115204
H	0.176387	1.08188	-3.205064
H	1.297429	1.267473	-1.793561
H	-0.266347	2.054019	-1.787878
C	-0.078588	-1.338569	-2.216621
H	1.002392	-1.479922	-2.296879
H	-0.508244	-2.190201	-1.690581
H	-0.499503	-1.270813	-3.224333
N	-0.706732	-1.269815	0.630366
H	-0.467792	-1.225552	1.615998
H	-1.684326	-0.99747	0.576667
N	-0.010276	1.066159	0.768585
H	-0.753602	1.656941	0.411256
H	0.907268	1.536692	0.618065
H	2.604443	1.709788	0.042434
