19

C	-0.568307	0.01035	-1.561985
C	0.203982	-0.049755	-0.242087
F	-0.279788	-1.168209	-2.284072
H	1.242344	-0.273808	-0.507569
C	-2.072052	0.019533	-1.364335
H	-2.372051	-0.898637	-0.857366
H	-2.578031	0.06447	-2.333083
H	-2.383325	0.883394	-0.770993
C	-0.095083	1.160395	-2.428829
H	-0.329518	2.115103	-1.962213
H	-0.562133	1.092244	-3.416628
H	0.989669	1.103771	-2.546806
N	-0.239824	-1.157189	0.602419
H	0.467058	-1.157461	1.35194
H	-1.094262	-0.856133	1.06712
N	0.22855	1.265217	0.401484
H	0.894856	1.112667	1.182347
H	-0.67359	1.392171	0.857646
H	1.861388	-0.01851	2.338229
