13

C	0.0	0.0	0.0
C	-0.431541	0.066305	-1.520621
Br	1.932746	0.0	0.0
H	0.482352	0.14247	-2.119012
H	-0.376341	-0.869523	0.520906
H	-0.885978	-0.912006	-1.692139
N	-0.389476	1.164912	0.855535
O	-0.313472	2.288793	0.364003
O	-0.658976	0.92594	2.026006
N	-1.373486	1.06226	-1.970442
H	-2.160263	0.885806	-1.321106
H	-0.992415	1.976592	-1.76592
F	-2.503682	0.0	0.0
