13

C	0.0	0.0	0.0
C	-0.224617	-0.494448	-1.506527
Br	1.932618	0.0	0.0
H	0.121201	-1.540819	-1.453965
H	-0.39207	-0.616753	0.797179
H	0.547656	0.045581	-2.069068
N	-0.436856	1.411464	0.250874
O	-0.571594	1.735352	1.427711
O	-0.5356	2.157051	-0.718829
N	-1.481616	-0.355955	-2.241635
H	-1.731508	-1.269361	-2.596441
H	-2.17549	-0.102881	-1.495779
F	-2.44049	0.0	0.0
