13

C	0.0	0.0	0.0
C	-0.497965	0.254156	-1.426237
Br	1.926323	0.0	0.0
H	-1.229667	1.056195	-1.358541
H	-0.359859	-0.937107	0.402993
H	0.334393	0.553731	-2.070802
N	-0.409104	1.062614	0.975908
O	-0.458102	2.219809	0.573098
O	-0.565431	0.708596	2.138749
N	-1.094174	-1.002116	-1.888503
H	-1.384791	-0.866205	-2.850352
H	-1.944668	-0.979505	-1.297995
F	-2.553322	0.0	0.0
