13

C	0.0	0.0	0.0
C	-0.47025	0.185899	-1.427719
Br	1.93275	0.0	0.0
H	-0.081255	1.134544	-1.81249
H	-0.368942	-0.922165	0.429401
H	-1.566879	0.217645	-1.268939
N	-0.439003	1.104935	0.907758
O	-0.556875	2.225438	0.424754
O	-0.556152	0.828673	2.095764
N	-0.064182	-0.985551	-2.209137
H	-0.817126	-1.232581	-2.835389
H	0.756884	-0.781404	-2.763436
F	-2.610519	0.0	0.0
