18

C	0.0	0.0	0.0
C	-0.383645	-0.078513	-1.52509
Br	1.935735	0.0	0.0
H	-1.46438	0.070306	-1.517495
N	-0.709752	1.202335	0.552271
O	-0.686221	1.309283	1.803352
O	-0.739455	2.212898	-0.210484
C	-0.310565	-1.22435	0.864048
H	0.054766	-1.022042	1.870537
H	0.190348	-2.106493	0.466197
H	-1.387735	-1.384686	0.883919
N	-0.186253	-1.484691	-2.004286
O	0.848267	-1.747058	-2.619937
O	-1.072498	-2.300392	-1.751097
N	0.235226	0.802645	-2.468805
H	0.013578	1.730235	-2.117697
H	1.240293	0.685223	-2.443374
H	-2.272437	0.0	0.0
