15

C	0.0	0.0	0.0
C	-0.441284	-0.160239	-1.524958
F	1.354743	0.0	0.0
H	-0.946333	0.780046	-1.750886
C	-0.474058	1.245674	0.600813
N	-0.578854	2.331231	1.039978
N	-0.354693	-1.176848	0.880317
O	-0.132851	-2.281453	0.388831
O	-0.678946	-0.9612	2.037932
N	-1.3452	-1.211515	-1.927441
H	-0.935517	-2.102317	-1.679962
H	-2.138428	-1.020093	-1.295535
C	0.771416	-0.246325	-2.366572
N	1.691281	-0.34535	-3.089541
F	-2.379758	0.0	0.0
