15

C	0.0	0.0	0.0
C	-0.427078	0.043226	-1.488529
F	1.363873	0.0	0.0
H	0.516078	-0.032687	-2.046001
C	-0.454264	1.133615	0.80665
N	-0.537352	2.085495	1.492172
N	-0.332028	-1.299339	0.715394
O	-0.611647	-1.250098	1.902966
O	-0.123993	-2.316947	0.061749
N	-1.024912	1.343718	-1.764411
H	-1.905516	1.266703	-1.241832
H	-1.229363	1.390298	-2.756828
C	-1.274256	-1.070065	-1.954225
N	-1.873213	-1.855257	-2.59255
F	-2.332555	0.0	0.0
