10
Coordinates from ORCA-job run
  C   1.10513164509483     -0.08103180312488      0.25618411356386
  C   -0.27712988237692     -0.48252049579415     -0.20846298587506
  Cl  1.61815582068654      1.45309118486396     -0.51606380570811
  H   -0.26749903989150     -0.58684272075214     -1.30326799106549
  H   1.84812494627234     -0.83202721501215     -0.01112743672855
  H   1.10091461424692      0.08721464174097      1.33198571544568
  H   -0.48591472450333     -1.47008084187600      0.21647035851860
  N   -1.27492965097400      0.44947528731221      0.30189577252778
  H   -1.16358416822212      1.34760626412924     -0.15207479980056
  H   -2.20426956033276      0.11411569851294      0.08346105912186
