17

C	0.0	0.0	0.0
C	-0.501103	-0.002379	-1.453036
F	1.37701	0.0	0.0
H	-1.572893	0.219793	-1.361148
N	-0.540556	1.138947	0.664085
H	-1.574247	0.99005	0.570131
H	-0.322191	1.076841	1.654141
C	-0.320798	-1.296178	0.673029
N	-0.428144	-2.330659	1.216689
N	-0.266941	-1.324727	-2.049593
H	-1.0022	-1.940291	-1.709473
H	-0.418806	-1.23831	-3.049314
C	0.22835	1.066677	-2.245324
H	1.266726	0.771999	-2.413017
H	0.206602	2.013412	-1.705399
H	-0.258599	1.208854	-3.216257
H	-3.040907	0.0	0.0
