17

C	0.0	0.0	0.0
C	-0.467902	-0.055222	-1.448136
F	1.390675	0.0	0.0
H	-1.55498	-0.205758	-1.359126
N	-0.558848	1.12597	0.659213
H	-0.385986	1.040224	1.657186
H	-1.593665	0.967743	0.524279
C	-0.310804	-1.297685	0.683713
N	-0.454147	-2.274828	1.319876
N	0.138857	-1.227764	-2.076937
H	1.096073	-1.01457	-2.334108
H	-0.370238	-1.445944	-2.924148
C	-0.177159	1.259657	-2.164229
H	-0.500932	1.182918	-3.207723
H	-0.700693	2.090234	-1.691119
H	0.896874	1.475169	-2.149128
H	-3.036278	0.0	0.0
