17

C	0.0	0.0	0.0
C	-0.27724	0.041293	-1.539373
F	1.382741	0.0	0.0
H	0.514703	0.728556	-1.878468
N	-0.53051	1.086234	0.752994
H	-1.537318	0.875279	0.844265
H	-0.492452	1.907489	0.156404
C	-0.393893	-1.284336	0.622976
N	-0.547351	-2.353345	1.084465
N	-1.564354	0.626883	-1.863008
H	-1.872157	0.261079	-2.757538
H	-2.290593	0.343446	-1.155809
C	0.005885	-1.317145	-2.184864
H	-0.740948	-2.051744	-1.873589
H	1.002751	-1.686003	-1.922384
H	-0.042408	-1.218308	-3.274477
H	-3.236675	0.0	0.0
