17

C	0.0	0.0	0.0
C	-0.425181	-0.000261	-1.478938
F	1.408617	0.0	0.0
H	-1.522486	-0.052483	-1.420772
N	-0.549752	1.020965	0.822732
H	-0.449787	1.905506	0.331072
H	-1.578248	0.79053	0.774356
C	-0.347169	-1.317449	0.612678
N	-0.487067	-2.377642	1.097184
N	0.074773	-1.159968	-2.222356
H	1.04817	-1.311579	-1.977526
H	-0.439139	-1.979667	-1.918312
C	0.006961	1.277012	-2.186448
H	-0.272182	1.19353	-3.238111
H	-0.487139	2.160091	-1.77418
H	1.090592	1.418266	-2.126226
H	-2.994694	0.0	0.0
