17

C	0.0	0.0	0.0
C	-0.184772	-0.027631	-1.556637
F	1.417851	0.0	0.0
H	0.514715	-0.809913	-1.890065
N	-0.582076	1.071916	0.701295
H	-1.594367	0.817424	0.750168
H	-0.529374	1.871597	0.073598
C	-0.368172	-1.297816	0.605902
N	-0.505738	-2.367983	1.069059
N	0.248418	1.303014	-2.005861
H	-0.064032	1.450308	-2.95702
H	1.259122	1.355356	-1.987484
C	-1.547866	-0.343422	-2.130071
H	-1.457081	-0.355809	-3.226565
H	-1.901488	-1.316659	-1.791083
H	-2.307822	0.357842	-1.791309
H	-3.255202	0.0	0.0
