11

C	-0.361639	-0.083145	-1.48511
C	0.0	0.0	0.0
Br	-0.05392	1.600463	-2.406172
H	1.096101	0.0	0.0
H	0.312766	-0.811614	-1.939966
H	-1.403139	-0.346995	-1.663013
C	-0.428193	-1.233326	0.641801
N	-0.768755	-2.251132	1.124024
C	-0.543616	1.149627	0.694377
N	-0.936687	2.090424	1.282035
H	2.517936	0.0	0.0
