11

C	-0.362025	0.084039	-1.484833
C	0.0	0.0	0.0
Br	-0.042381	-1.596938	-2.4081
H	1.096043	0.0	0.0
H	0.306957	0.817874	-1.937905
H	-1.405536	0.34002	-1.662191
C	-0.543547	-1.151234	0.691866
N	-0.937192	-2.090707	1.280862
C	-0.429476	1.232156	0.643023
N	-0.768867	2.251386	1.123006
H	2.517151	0.0	0.0
