15

C	-0.405231	-0.055299	-1.475339
C	0.0	0.0	0.0
Br	-2.385065	-0.271417	-1.6053
H	1.095921	0.0	0.0
H	-0.364284	0.934034	0.443312
C	-0.122313	1.217556	-2.134269
N	0.095401	2.243916	-2.664633
C	0.26853	-1.215298	-2.187746
H	-0.023904	-1.263204	-3.237892
H	1.350586	-1.070502	-2.099838
H	-0.00768	-2.136593	-1.675304
N	-0.429032	-1.205981	0.695492
H	-1.267185	-1.038559	1.234122
H	0.311766	-1.49373	1.321384
Br	3.570365	0.0	0.0
