15

C	-0.405907	-0.071222	-1.474405
C	0.0	0.0	0.0
Br	-2.384273	-0.301391	-1.60127
H	1.096158	0.0	0.0
H	-0.364864	0.938168	0.434217
C	-0.13291	1.197123	-2.145477
N	0.073163	2.219335	-2.687853
C	0.274695	-1.233631	-2.176017
H	-0.018998	-1.294164	-3.225363
H	0.006249	-2.151642	-1.654015
H	1.35582	-1.080671	-2.090511
N	-0.426394	-1.200003	0.707968
H	0.311259	-1.472543	1.344232
H	-1.270422	-1.031329	1.237668
Br	3.571968	0.0	0.0
