13

C	-0.380939	0.07601	-1.451192
C	0.0	0.0	0.0
F	-1.762488	0.35166	-1.604276
H	1.099	0.0	0.0
H	-0.258355	-0.912925	-1.910962
H	-0.329667	0.931899	0.479811
N	0.364176	1.131188	-2.075966
H	0.410426	0.98442	-3.076126
H	1.314585	1.105699	-1.706082
N	-0.502427	-1.215079	0.643905
H	-1.343319	-1.014356	1.16855
H	0.205053	-1.523073	1.300079
H	3.033281	0.0	0.0
