13

C	-0.5774	0.060236	-1.38981
C	0.0	0.0	0.0
F	-1.926505	0.55322	-1.292787
H	1.097141	0.0	0.0
H	-0.706521	-0.939601	-1.80854
H	-0.298713	0.94337	0.483638
N	0.187894	0.895605	-2.251428
H	0.755486	1.552494	-1.734351
H	-0.401519	1.367634	-2.921666
N	-0.473654	-1.18175	0.73048
H	0.310991	-1.524893	1.271328
H	-1.210082	-0.930998	1.377177
H	3.066546	0.0	0.0
