13

C	-0.548862	0.016952	-1.412294
C	0.0	0.0	0.0
F	-0.26613	-1.214724	-2.009474
H	1.096939	0.0	0.0
H	-0.010828	0.752202	-2.028172
H	-0.382321	-0.908165	0.475538
N	-1.971153	0.206278	-1.393594
H	-2.164753	0.807142	-0.599288
H	-2.293378	0.652247	-2.24188
N	-0.509474	1.183546	0.73805
H	0.16436	1.927097	0.569757
H	-0.420033	0.979029	1.726749
H	3.125481	0.0	0.0
