13

C	-0.37114	0.08039	-1.459197
C	0.0	0.0	0.0
F	-1.715741	0.442952	-1.615214
H	1.100689	0.0	0.0
H	-0.258065	-0.903403	-1.924818
H	-0.35082	0.917535	0.486993
N	0.431264	1.034766	-2.195471
H	0.365347	1.919706	-1.69731
H	1.39985	0.744925	-2.057311
N	-0.557027	-1.198003	0.659832
H	0.222545	-1.841722	0.772925
H	-0.839905	-0.945526	1.600014
H	3.068766	0.0	0.0
