13

C	-0.369769	0.036669	-1.457429
C	0.0	0.0	0.0
F	-1.75643	0.23342	-1.602672
H	1.093507	0.0	0.0
H	-0.140424	-0.930166	-1.912407
H	-0.329851	0.947979	0.459174
N	0.306592	1.076966	-2.196677
H	1.300734	0.856817	-2.129697
H	0.195649	1.941097	-1.672784
N	-0.503412	-1.196063	0.674808
H	-1.38669	-1.002625	1.127394
H	0.166534	-1.454163	1.389225
H	3.05169	0.0	0.0
