13

C	-0.324678	-0.00633	-1.471451
C	0.0	0.0	0.0
F	-1.720979	0.111471	-1.688379
H	1.094086	0.0	0.0
H	-0.082858	-0.991611	-1.897181
H	-0.360962	0.94204	0.424518
N	0.339318	1.089228	-2.112375
H	0.440289	0.90748	-3.103033
H	1.274598	1.151547	-1.709466
N	-0.520263	-1.139294	0.751508
H	0.126227	-1.911267	0.640787
H	-1.414366	-1.417444	0.363258
H	3.038209	0.0	0.0
