13

C	-0.58138	-0.092065	-1.39227
C	0.0	0.0	0.0
F	-0.218162	-1.333317	-1.925563
H	1.098158	0.0	0.0
H	-0.146983	0.670116	-2.045411
H	-0.335742	0.9553	0.424498
N	-2.02379	-0.015521	-1.446211
H	-2.361152	-0.440344	-0.586567
H	-2.298804	0.958433	-1.444298
N	-0.583868	-1.09044	0.809942
H	-0.203418	-0.995139	1.745507
H	-0.173793	-1.945223	0.446109
H	3.142803	0.0	0.0
