13

C	-0.301632	0.01931	-1.483658
C	0.0	0.0	0.0
F	-1.667863	0.319871	-1.726822
H	1.096395	0.0	0.0
H	-0.177098	-0.983903	-1.915945
H	-0.397558	-0.90847	0.461858
N	0.495691	1.03205	-2.110193
H	0.561502	0.865494	-3.106656
H	1.436005	0.976613	-1.71091
N	-0.470912	1.189415	0.711689
H	0.230226	1.910953	0.59273
H	-1.314739	1.521994	0.257894
H	3.027177	0.0	0.0
