17

C	0.0	0.0	0.0
C	-0.33569	-0.07767	-1.52821
Br	1.964488	0.0	0.0
H	0.106559	0.812499	-1.982672
N	-0.545907	1.184537	0.571452
H	-0.345169	1.984868	-0.022657
H	-1.576325	0.962124	0.518244
C	-0.443271	-1.206312	0.808902
H	0.003731	-2.127926	0.442772
H	-1.533137	-1.223417	0.728609
H	-0.142167	-1.034304	1.84436
C	-1.738259	-0.155519	-1.985836
N	-2.543003	-0.216655	-2.847413
N	0.357953	-1.214793	-2.254178
O	1.171117	-0.905638	-3.123694
O	0.047091	-2.362054	-1.946103
F	-2.787851	0.0	0.0
