17

C	0.0	0.0	0.0
C	-0.5936	0.055624	-1.418508
Br	1.959779	0.0	0.0
H	-1.699774	0.03477	-1.170511
N	-0.505114	1.15659	0.686998
H	-0.238001	1.082384	1.663898
H	-1.533912	1.011564	0.616063
C	-0.418934	-1.33423	0.624472
H	-1.512934	-1.319326	0.610209
H	-0.049147	-1.369144	1.653013
H	-0.016342	-2.193055	0.082611
C	-0.180469	-1.046424	-2.268167
N	0.099804	-1.963084	-2.948012
N	-0.278098	1.349078	-2.107157
O	0.780023	1.421019	-2.734052
O	-1.100287	2.252597	-1.996135
F	-2.867395	0.0	0.0
