17

C	0.0	0.0	0.0
C	-0.596345	-0.140539	-1.410089
Br	1.94916	0.0	0.0
H	-1.703587	-0.082809	-1.162607
N	-0.495802	1.236963	0.542566
H	-0.272286	1.247842	1.531896
H	-1.522511	1.104356	0.461033
C	-0.421433	-1.237626	0.800357
H	-1.515141	-1.229397	0.779104
H	-0.058135	-1.126393	1.825641
H	-0.013508	-2.16242	0.387805
C	-0.253947	-1.39259	-2.060105
N	-0.061886	-2.436192	-2.566125
N	-0.222252	0.998128	-2.309301
O	-0.895894	2.020215	-2.221501
O	0.733328	0.83964	-3.072167
F	-2.868247	0.0	0.0
