15
Coordinates from ORCA-job run
  C   -0.51461959072872      0.38830310082709      0.34959804797630
  C   0.65851276020698      0.34701850614003     -0.59904382165580
  Cl  -0.16858116219617      1.21618463380849      1.84350144720357
  H   0.28480486689676     -0.02144544484290     -1.55654572720805
  H   0.99174984277987      1.37516876848998     -0.74897012919046
  N   -1.73925909849755      1.06522054537006     -0.27076093081226
  O   -2.80297614491378      0.85547282912637      0.29367539304309
  O   -1.54005985386151      1.77556466944646     -1.24645636730425
  N   -0.97611419975200     -1.04896932396884      0.60332181235752
  O   -0.82145561349662     -1.53901331071158      1.70827163323297
  O   -1.41319349119072     -1.59378734025371     -0.40356357900122
  C   1.78948452145533     -0.53707018482332     -0.08299059408851
  H   1.48701373225100     -1.58496384640295     -0.03538080133873
  H   2.63887644697994     -0.47040411012645     -0.76444300416426
  H   2.12581698406718     -0.22927949207874      0.90778662095009
