15
Coordinates from ORCA-job run
  C   -0.68519543853933     -0.02129959695008     -0.16402157853356
  C   0.74333856897881      0.47366611849256     -0.20474665997981
  Cl  -1.14702292720546     -0.94812292154889     -1.56037558032871
  H   0.93205987730859      0.96320141061211      0.75276110691780
  H   0.77135215032802      1.24173037270061     -0.98504702899335
  N   -1.00293764068339     -0.84216620170482      1.09187150015094
  O   -2.16006095112548     -1.22259763861511      1.19194058714379
  O   -0.09273364342157     -1.01936668641018      1.89088290079249
  N   -1.59677976217938      1.21009348036427     -0.00201936843340
  O   -2.21957356843817      1.60988414085790     -0.96965543449362
  O   -1.54005490491413      1.71275784186661      1.11368491190557
  C   1.79179394767322     -0.59622696695058     -0.48705207443618
  H   1.74980385054188     -1.39636192566252      0.25017655456214
  H   1.67089697219180     -1.02297417305035     -1.48247702207446
  H   2.78311346948458     -0.14221725400152     -0.43492281419963
