15
Coordinates from ORCA-job run
  C   -0.67228453715749      0.03499577374388     -0.20884301421900
  C   0.70993037126869     -0.55872250126857     -0.05280652155328
  Cl  -0.98719517878206      0.67298746142304     -1.79500147786856
  H   0.81075979248475     -0.84487772754226      0.99601769029045
  H   0.71068032018314     -1.47561552809905     -0.65187306324868
  N   -1.69078191477102     -1.06455251409978      0.14783180156304
  O   -1.73019237030656     -1.31993663166050      1.34529016747145
  O   -2.29765935293421     -1.61606642227325     -0.75303336166186
  N   -0.97972997784089      1.12582756850802      0.82441856206331
  O   -0.09723595786012      1.40345153865664      1.62592760906774
  O   -2.10419550089739      1.60125007288959      0.76762965094478
  C   1.85688681179056      0.34796656918587     -0.48412126555950
  H   1.82003277383177      0.56009582779243     -1.55241200410351
  H   1.84707424984659      1.28785546169184      0.06542080139854
  H   2.80291047114426     -0.15465894894792     -0.27444557458489
