15
Coordinates from ORCA-job run
  C   -0.80590430897200      0.16172556372954     -0.36861814613661
  C   0.63155674827481      0.15758833007335     -0.84148712540224
  Cl  -1.92573536771219      0.37342333842734     -1.69374425150118
  H   0.84571121669021      1.16424358505099     -1.20606522387555
  H   0.66128632318836     -0.51714553340110     -1.70127714058451
  N   -1.07058327088025     -1.16200052328522      0.35103988381530
  O   -0.89942824539646     -1.15160653027517      1.56308869392828
  O   -1.30738893458077     -2.12608459982359     -0.35944053653119
  N   -1.10994313741535      1.25411624151293      0.65751337470201
  O   -0.21549457571594      2.05742383095902      0.89308113323200
  O   -2.23341846096597      1.23559790626797      1.13614936010146
  C   1.65291120797199     -0.27938652700169      0.20434851107479
  H   2.65410453136914     -0.15840543884782     -0.21328977248911
  H   1.53262790358506     -1.33125152095498      0.46877057875115
  H   1.58969837055937      0.31976187756840      1.11093066091534
