15
Coordinates from ORCA-job run
  C   -0.81585259119122     -0.00842208049465     -0.38147472840531
  C   0.61693453372782      0.04234468501831     -0.86558501070793
  Cl  -1.95243615841718      0.21127847183672     -1.69101067149430
  H   0.68367549087716      0.92366920080962     -1.50922280630202
  H   0.76722794018170     -0.83668232320803     -1.49554829079023
  N   -1.18060180112715     -1.31954602689031      0.31603605104309
  O   -0.33724721661571     -2.20799808789677      0.30157094740267
  O   -2.29701055082739     -1.36632503712599      0.80907118579964
  N   -0.99705879011877      1.08267189894755      0.67523350165780
  O   -0.81654507629903      0.73406854440576      1.83473350793654
  O   -1.18348321110540      2.21481456032169      0.25836182506814
  C   1.66827857574577      0.11662290065519      0.23755845371737
  H   1.61423838855255      1.06082091203277      0.78191155176681
  H   1.57284074847083     -0.70327698687883      0.94716900496999
  H   2.65803971814599      0.05695936846693     -0.21880452166228
