15
Coordinates from ORCA-job run
  C   -0.80834678658007      0.16791828281673     -0.35903801010947
  C   0.62288301619460      0.14290195230953     -0.84956162363754
  Cl  -1.93954332350297      0.39651242755905     -1.67181826160048
  H   0.84213459698049      1.14360341275770     -1.22727695690454
  H   0.63366157219545     -0.54000845198876     -1.70351502822740
  N   -1.08501054224054     -1.14986153674714      0.36646515895603
  O   -0.87592016415558     -1.14246052446010      1.57276099138162
  O   -1.36854648585949     -2.10831487451357     -0.33427601370142
  N   -1.08486200995488      1.26687613472200      0.66771869312365
  O   -0.18445817937831      2.07154145509202      0.87367078171502
  O   -2.19633056595460      1.25338899464843      1.17382570881084
  C   1.65469340704300     -0.29320905648992      0.18608107874224
  H   1.52863664560764     -1.34053560305259      0.46492577324896
  H   2.65065759350938     -0.18607270826227     -0.24759001822794
  H   1.61035122609587      0.31672009560885      1.08662772643039
