14
Coordinates from ORCA-job run
  C   0.61388171983690      0.28465529697060     -0.06407359993397
  C   -0.55280402093523     -0.28226839155465     -0.49650845884717
  C   1.09790308685844      0.15970696460655      1.35672551303968
  H   2.18692295966171      0.21852060654734      1.39744644855968
  H   0.79576594804578     -0.80479252588073      1.77333327108466
  H   0.70480597759222      0.95179695112721      2.00440780815736
  C   1.36839184185313      1.03700165405287     -1.00132623608177
  N   1.98367977728373      1.65609292015675     -1.79422694773282
  N   -1.41011159969630     -0.92358044125102      0.37520495270282
  H   -2.21718540859484     -1.36341890024127     -0.03332757134678
  H   -1.56123300117332     -0.49342671825938      1.27103964172293
  N   -0.91779435987385     -0.38951517009475     -1.83322695114637
  H   -0.23999868279482      0.00829291014940     -2.46827512623708
  H   -1.85222423806355     -0.06006515632891     -2.03219274394117
