14
Coordinates from ORCA-job run
  C   0.61525068629221      0.23092670668659     -0.05959277227988
  C   -0.60871890752648     -0.16340786179581     -0.52239346762621
  C   1.01154480477165      0.16500575958845      1.39437621520307
  H   0.19724559709191      0.50427325091077      2.04256934585383
  H   1.29803491386803     -0.84576521492099      1.70409643385036
  H   1.86457011001171      0.81770925361366      1.58377292256853
  C   1.56081791832477      0.68532079014461     -1.01659033358088
  N   2.32629993534246      1.06611714358744     -1.82852402726269
  N   -1.54003782134455     -0.82520710147502      0.25962929822865
  H   -1.29204767292940     -0.92536197515159      1.23046466967945
  H   -2.48550525406960     -0.49675031548117      0.12699533808549
  N   -1.06692908006334      0.06210028825947     -1.81204793490123
  H   -1.50364146365793     -0.75035260003133     -2.22414550791064
  H   -0.37788376611145      0.47639187606492     -2.42361017990785
