14
Coordinates from ORCA-job run
  C   0.45752962883082      0.39949814483690      0.14917344288706
  C   -0.68556645724123     -0.11294244462802     -0.39712452656587
  C   1.68896830236810     -0.43059883105032      0.41604173622794
  H   1.59016543867375     -1.04273399464025      1.31880122538733
  H   1.91276094736355     -1.09157636186393     -0.42690380613210
  H   2.55634671699252      0.21532684068566      0.55690477547913
  C   0.44882084786818      1.77186314033248      0.51315028716480
  N   0.41701500227760      2.91554150544899      0.79770799703375
  N   -0.88969718166146     -1.46748471421901     -0.60300569739336
  H   -0.09242477362935     -2.05321853518820     -0.41327403666131
  H   -1.32242950541499     -1.67525953876519     -1.49122366121899
  N   -1.76046533050883      0.65344906780140     -0.82224229809951
  H   -1.66949910030485      1.63747659548693     -0.61361339906047
  H   -2.65252453561379      0.28065912576257     -0.52939203904839
