14
Coordinates from ORCA-job run
  C   0.61259797367714      0.22010179902021     -0.05195259055186
  C   -0.61484311907084     -0.14640307528707     -0.52572872297220
  C   1.00692366206759      0.15208137195626      1.40312001849467
  H   1.39931380660979     -0.83410376150099      1.67970287584136
  H   0.16171426333692      0.38687855835083      2.05743311619378
  H   1.78700781347306      0.88361440078704      1.61795025249265
  C   1.58710592959760      0.63194440213497     -0.99942704022905
  N   2.38748660171027      0.98154803165916     -1.79149291974366
  N   -1.57701141755777     -0.77412865139359      0.24554777203551
  H   -2.51218171584978     -0.42879135894029      0.08690240778379
  H   -1.35367699319859     -0.87706972450425      1.22152966253155
  N   -1.05458001408799      0.08131181406091     -1.82509347824278
  H   -1.49274821243960     -0.73356392132161     -2.23246292695466
  H   -0.33810857826780      0.45658011497843     -2.43102842667910
