14
Coordinates from ORCA-job run
  C   0.43748794739722      0.41976751962765      0.14948025157609
  C   -0.67446652178655     -0.14181123571624     -0.41259807624450
  C   1.69064672906194     -0.36019742936644      0.46099920991803
  H   2.53729634749696      0.31676517601793      0.58170138849582
  H   1.94209008050570     -1.04689325581335     -0.35351669904384
  H   1.60242941013892     -0.94165666067097      1.38494650726178
  C   0.37505845703988      1.79753911093794      0.48718280386921
  N   0.30287776820083      2.94398976094420      0.75295549734182
  N   -0.83072856284685     -1.50596913071273     -0.58887427992000
  H   -1.23625340820883     -1.75493948331429     -1.47930978804340
  H   -0.02735783061240     -2.06505308240335     -0.35236122603793
  N   -1.76273463272454      0.57907049679242     -0.88196318564377
  H   -1.70630871111867      1.57066305794725     -0.69796225781246
  H   -2.64903707254363      0.18772515572996     -0.59568014571685
