14
Coordinates from ORCA-job run
  C   0.65942200647966      0.16035266488682     -0.11247450962983
  C   -0.60449919765106     -0.24630195107183     -0.43845899085544
  C   1.14181903445950      0.24401091815598      1.31185931723847
  H   0.65857805131529     -0.52819580386698      1.91625757746023
  H   0.93424175739078      1.21843833011990      1.76874929934614
  H   2.22056134272311      0.08567391124256      1.36149411891246
  C   1.52177669667748      0.54721889254718     -1.17090155019691
  N   2.22514460599785      0.86331427827166     -2.06310612010874
  N   -1.01259488580914     -0.55887248322566     -1.72977131299659
  H   -0.28400873653258     -0.44341878218523     -2.42030777964725
  H   -1.86832830802019     -0.10120447814527     -2.01216375091808
  N   -1.55089896468776     -0.51018811936191      0.53275257286715
  H   -2.43561697288667     -0.86144647478042      0.20705157846994
  H   -1.60359642945629      0.13161909741322      1.30501955005844
