14
Coordinates from ORCA-job run
  C   0.44252110365216      0.40565090835417      0.16208157084021
  C   -0.67778199332541     -0.12481238200754     -0.41370470536795
  C   1.66250378402913     -0.41256887688263      0.50599435913033
  H   2.29368833166085     -0.60883550741845     -0.36725172887694
  H   1.38275189346700     -1.37314284430414      0.94977694233253
  H   2.27542194977620      0.11293967634728      1.23929520758881
  C   0.45408696933315      1.80417023228587      0.40620585466270
  N   0.43957065212681      2.96574944457541      0.60824959579011
  N   -0.74231198432402     -1.41866125932360     -0.90113044244212
  H   -1.60651672127916     -1.89152846083666     -0.68001815094270
  H   0.07203304966633     -1.98519478637917     -0.72773090845421
  N   -1.87689706651724      0.55635427721560     -0.56412218412938
  H   -2.28286642102957      0.44501576648608     -1.48259208143959
  H   -1.83520354723623      1.52486381188777     -0.28005332869178
