14
Coordinates from ORCA-job run
  C   0.64853254969096      0.12145699764728     -0.11866333547762
  C   -0.64881372295779     -0.12539279712014     -0.47046030063719
  C   1.10389429328862      0.26570389728677      1.31235183547246
  H   0.39845013403641      0.86804744862498      1.89356643548429
  H   2.06790558522250      0.77435443412561      1.35340804738842
  H   1.22269647047981     -0.70134817783546      1.81249502307496
  C   1.60599695558804      0.20159392470849     -1.16399820333700
  N   2.38174061216585      0.26984062476654     -2.04929941488320
  N   -1.12991536258258     -0.07665760191162     -1.77063436469388
  H   -0.41390453083772      0.07823516623918     -2.46601132884878
  H   -1.72256304304196     -0.86151201960660     -2.00176760913630
  N   -1.63774173009854     -0.44203796147407      0.44535408709014
  H   -1.35897097430392     -0.39347812683620      1.41187185012212
  H   -2.51730723664969      0.02019419138524      0.26578727838158
