14
Coordinates from ORCA-job run
  C   0.45008737073093      0.39916842783744      0.16567926787987
  C   -0.67632084173522     -0.10040861156850     -0.42561122123274
  C   1.65582247463152     -0.45179566869571      0.47894646106044
  H   1.49967571699507     -1.08858244112258      1.35648106509775
  H   2.52413156489809      0.17693824450526      0.68020346521597
  H   1.91925758159597     -1.09634238827392     -0.36663940510494
  C   0.45792073189655      1.77482480224833      0.51563910389438
  N   0.44943898371321      2.91968566135691      0.79861375794825
  N   -0.89167913577644     -1.45470225557546     -0.61693698524541
  H   -0.11222589731062     -2.04863138871292     -0.38315820067514
  H   -1.29270220553280     -1.67821700708998     -1.51613161688939
  N   -1.72371630916076      0.67453323478122     -0.90111870710123
  H   -2.63039506570118      0.31448270925054     -0.63706000868060
  H   -1.63029496924433      1.65904668105936     -0.69290697616721
