14
Coordinates from ORCA-job run
  C   0.66120243752677      0.15227926782954     -0.12086365716639
  C   -0.61579139217922     -0.22304061329290     -0.43327743077399
  C   1.17549368271104      0.17653013339540      1.29456026262568
  H   2.25338587442965      0.00617223976053      1.31409556588628
  H   0.98821717506934      1.13457228964208      1.79306585630922
  H   0.69741138373865     -0.61355396621816      1.87972572692014
  C   1.50829852907860      0.55653968691407     -1.18533345508813
  N   2.19795343604855      0.88543811495725     -2.08350692951857
  N   -1.05692557808587     -0.48216696014020     -1.72576250070331
  H   -0.34193818464886     -0.35413064661964     -2.42819233086087
  H   -1.91049240175855     -0.00048924389876     -1.97230056431221
  N   -1.54509908770564     -0.50780612198207      0.54803317658807
  H   -1.57012747770905      0.10395249362541      1.34566173451287
  H   -2.44158839651541     -0.83529667397256      0.23009454558122
