14
Coordinates from ORCA-job run
  C   0.62576848765973      0.26367982545244     -0.09952900696058
  C   -0.56533174992281     -0.30456195251668     -0.45706775457289
  C   1.11308234159139      0.29388033913328      1.32520489718186
  H   0.75626040422988      1.17370787896311      1.87289179916163
  H   0.77459422475228     -0.60065284827241      1.85504198467636
  H   2.20380411764801      0.31224983982710      1.35772408499578
  C   1.40296346578018      0.86333222558387     -1.12452979606519
  N   2.03512162504933      1.35185531680857     -1.99182107930832
  N   -0.94221099366645     -0.56146933305023     -1.76991722047562
  H   -0.25291430928914     -0.27351345455311     -2.45030464115563
  H   -1.86388424004149     -0.22150508934332     -2.00716643767163
  N   -1.44208726799607     -0.79818781100988      0.48912965063339
  H   -2.26743298200399     -1.25308382146740      0.13737830387812
  H   -1.57773312379085     -0.24673111555531      1.31896521568271
