14
Coordinates from ORCA-job run
  C   0.62134546427501      0.20795482051921     -0.05512769225598
  C   -0.61418750435589     -0.14170123769325     -0.52391634857829
  C   1.01137948529476      0.13951191760589      1.40006250910401
  H   1.84403440133030      0.81539931568913      1.60033838706941
  H   1.32465485632111     -0.86557083413309      1.70227428583843
  H   0.18436393474177      0.44971996263883      2.04645172807535
  C   1.59233157234371      0.60763407249138     -1.01119739795482
  N   2.38029858536849      0.94173828038917     -1.82219391104897
  N   -1.57802374755639     -0.76220973902482      0.25225961025509
  H   -2.50761513028805     -0.39230271139205      0.11725396859786
  H   -1.33856987792447     -0.88067825904574      1.22296306571721
  N   -1.05330438885516      0.09541288869796     -1.81780901020477
  H   -1.52032277475475     -0.70000729142849     -2.22987641091518
  H   -0.34738487594044      0.48409881468587     -2.42648278369934
