14
Coordinates from ORCA-job run
  C   0.65410176952891      0.08745486106404     -0.12250938466110
  C   -0.65411889986564     -0.11347915024455     -0.46416276946517
  C   1.12705853105834      0.20882724341918      1.30484864900745
  H   2.20026687565432      0.02291534308903      1.36499872021748
  H   0.63779514120529     -0.53003362230142      1.94785394839271
  H   0.94342704211754      1.20389288883878      1.72435205696270
  C   1.59136021715966      0.22682360986316     -1.18028367238346
  N   2.34976416490364      0.33079287948956     -2.07677525108631
  N   -1.08982844829772     -0.41579178879539     -1.74635385792219
  H   -1.89857772741871      0.12139141121152     -2.02496057622391
  H   -0.35868471954836     -0.39090384943676     -2.44279224195985
  N   -1.69600259430193     -0.04819100194506      0.44458401346531
  H   -1.42066188285548      0.07111470202754      1.40604712606522
  H   -2.38689946933989     -0.77381352627962      0.32015323959112
