14
Coordinates from ORCA-job run
  C   0.43693965632887      0.39564907648230      0.18573073245687
  C   -0.65377996346897     -0.10463653999299     -0.46831125784791
  C   1.61316696153793     -0.45252999814065      0.60145060180565
  H   1.41432733805422     -1.02462102221595      1.51398369089965
  H   1.89361392128307     -1.15548067073561     -0.18943327227649
  H   2.48361341079804      0.17592160721100      0.79412315220056
  C   0.42493387169053      1.77637137334761      0.51662365791502
  N   0.39563053302966      2.92636399379002      0.77515212145401
  N   -1.65582307555163      0.67459366324224     -1.02758619858951
  H   -2.58391514362837      0.33465077301910     -0.81822500503750
  H   -1.55911167548775      1.66218090752172     -0.83911605199058
  N   -0.87214744454825     -1.45863481158383     -0.65704753613012
  H   -1.21360290105600     -1.68823282660418     -1.57903224922952
  H   -0.12384548898134     -2.06059552534079     -0.35431238563012
