14
Coordinates from ORCA-job run
  C   0.66593527462306      0.12999672472776     -0.11544449060948
  C   -0.64988789815137     -0.05238682850585     -0.43877455023781
  C   1.13090031676538      0.33550456859012      1.30222243152885
  H   2.04516995887092      0.93123490057809      1.32371996514688
  H   1.34540098873351     -0.60895755411323      1.81519929509627
  H   0.36642629915833      0.86951954578446      1.87283930580114
  C   1.61457443104585      0.09691087341961     -1.17051999962420
  N   2.38669176314489      0.06978086435201     -2.06136769828021
  N   -1.14552756735728     -0.00967979553109     -1.73632660206779
  H   -1.72692508634660     -0.79892953602713     -1.98190605005551
  H   -0.43401060473739      0.15972121106045     -2.43343034520549
  N   -1.62392967831964     -0.16021193500720      0.53539492835908
  H   -1.40330117939006     -0.72339288852579      1.33865550923060
  H   -2.57151701803958     -0.23811015080220      0.20673830091765
