14
Coordinates from ORCA-job run
  C   0.62901657852629      0.25058844306540     -0.07011174636264
  C   -0.60002583717795     -0.18158142764734     -0.49404196419208
  C   0.93591027460688      0.47884331729241      1.38884223367716
  H   1.01401177144058     -0.45198290288697      1.95970108849221
  H   0.16075988654892      1.09090460818904      1.85834845376007
  H   1.88452888387750      1.00649431344149      1.50065645593848
  C   1.60040640407197      0.53427110779479     -1.06392264510869
  N   2.38535804964311      0.73188961425731     -1.92095627542068
  N   -1.58705739760690     -0.52328905389598      0.41046164909286
  H   -1.26300603790861     -0.93272636063714      1.27223415202055
  H   -2.40238296322202     -0.97814433272639      0.03113207334701
  N   -1.01091101766235     -0.16337517251340     -1.81802596102384
  H   -1.45048143373255     -1.01313028613059     -2.14157178318863
  H   -0.29512716140487      0.15123813239737     -2.45674573103181
