14
Coordinates from ORCA-job run
  C   0.45900276848768      0.38987714030015      0.15898122389078
  C   -0.66986942222474     -0.09442406931565     -0.43999840906871
  C   1.62674674474416     -0.48142832453038      0.54964966703609
  H   2.52100434688658      0.12634284701334      0.69340672267973
  H   1.44847383484802     -1.02614311330201      1.48295702146543
  H   1.85667581222353     -1.21048795193174     -0.23378744117992
  C   0.49769600435096      1.77777039512257      0.45598615064869
  N   0.50977457548045      2.93393007932780      0.68687873497705
  N   -1.67155272799712      0.69944255371390     -0.97919353124678
  H   -2.59939939907928      0.39118955124183     -0.72481199141423
  H   -1.54046605039016      1.68807886817280     -0.81881392935054
  N   -0.93248543173408     -1.44565923106965     -0.58711900489460
  H   -0.18978918716938     -2.06166832606397     -0.29908945391355
  H   -1.31681186842660     -1.68682041867898     -1.48904575962942
