14
Coordinates from ORCA-job run
  C   0.65230711440128      0.19291264929224     -0.11584370760177
  C   -0.58529077876703     -0.25157257288648     -0.49851702867001
  C   1.08723564244841      0.28248963372594      1.32592378285909
  H   0.30526605641205      0.72078350555242      1.95488381631021
  H   1.96402516647055      0.92518886397332      1.41467464861675
  H   1.35691555350451     -0.69297529376557      1.74579561365019
  C   1.55519899149360      0.56555160802588     -1.14386280929565
  N   2.27900466651837      0.89060029629398     -2.01640705600284
  N   -1.00368721794321     -0.27004530466271     -1.80450548971403
  H   -1.91818559799983     -0.62569590283537     -2.01475771030288
  H   -0.60800407168407      0.39560633757854     -2.44536725604830
  N   -1.48597615974935     -0.82013440609383      0.39257648114540
  H   -2.43126932715472     -0.47423393953783      0.31337584986259
  H   -1.16854003795055     -0.83747547466054      1.34803086519125
