14
Coordinates from ORCA-job run
  C   0.67817707032354      0.02325794347668     -0.11375956324289
  C   -0.64229973056072     -0.14028913013587     -0.42808514727078
  C   1.16765753657155      0.11871580877171      1.30733793329122
  H   2.19253259450003     -0.24819763908580      1.38521788937125
  H   1.16027288360396      1.14721557713610      1.68586228891698
  H   0.53932798089441     -0.49178807792175      1.96128446994031
  C   1.60204165455492      0.13273813261572     -1.18551769316442
  N   2.35455746538825      0.21787123872609     -2.08942177875947
  N   -1.10560507395306     -0.46467355001700     -1.69750430691565
  H   -1.85081720911234      0.13201275520113     -2.02913626933510
  H   -0.36945883731239     -0.55723758344701     -2.38344251804731
  N   -1.62293130352459     -0.12659989144321      0.54500411226400
  H   -1.54263753544885      0.57176861277911      1.26413623711048
  H   -2.56081749592470     -0.31379419665589      0.23302434584138
