14
Coordinates from ORCA-job run
  C   0.48999163378114      0.42688716384298      0.08531059446964
  C   -0.69836291521563     -0.16120887702718     -0.24839567795302
  C   1.72133686891449     -0.36945345947275      0.42804308186066
  H   1.43703431438024     -1.30930494405805      0.90861723556054
  H   2.35613186229966      0.18501399163339      1.12141385898190
  H   2.32880020749491     -0.60406519813186     -0.45338837705943
  C   0.54810115178190      1.84494030062331      0.07514886110770
  N   0.57450652923864      3.02374228757170      0.06414162390008
  N   -1.90550959476012      0.52155396243081     -0.33939396528293
  H   -2.41333815779776      0.34836745088223     -1.19585342969090
  H   -1.82380602048387      1.51034437600687     -0.14818456779435
  N   -0.81205642135315     -1.53064135090010     -0.39026176569181
  H   -0.06811443509464     -2.00306554346508     -0.87452375981258
  H   -1.73571502318581     -1.88311015993628     -0.57667371259549
