14
Coordinates from ORCA-job run
  C   0.61577149959707      0.28084379545372     -0.06301874981118
  C   -0.55452027421440     -0.27934413516467     -0.49385933763415
  C   1.10252080562129      0.15201036090999      1.35634111478843
  H   2.19262855552643      0.19121123368474      1.39363609764454
  H   0.72553276853165      0.95164031471558      2.00409459243787
  H   0.78552176767506     -0.80718142621787      1.77451822399510
  C   1.37320320759872      1.02786884254813     -1.00236521950689
  N   1.98972909272345      1.64125753007267     -1.79874709913605
  N   -1.41502388808500     -0.91640174180791      0.38005046813894
  H   -1.57924748435324     -0.46743161349210      1.26507050867390
  H   -2.22411079680462     -1.34832254885169     -0.03402169567345
  N   -0.92058772624497     -0.38502650148511     -1.83048136245694
  H   -0.23988755545141      0.00747517704232     -2.46584760205226
  H   -1.85252997212002     -0.04859928740779     -2.02936993940785
