14
Coordinates from ORCA-job run
  C   0.48011675304509      0.44617585313043      0.03316415530445
  C   -0.68555075126684     -0.15444510574322     -0.35399024153442
  C   1.70086906847248     -0.34750158149456      0.42637915754682
  H   2.53566333502951      0.31795971867363      0.63329506458036
  H   1.52721874936955     -0.92986166540439      1.33722260068331
  H   2.01763958560893     -1.03256512203492     -0.36280292736466
  C   0.49834820167222      1.86362840567693      0.09833692471804
  N   0.46854347510197      3.04185713149044      0.14964402447124
  N   -0.79629394114774     -1.52662724556493     -0.55314892100546
  H   -1.69763718530313     -1.86865989737377     -0.26145695403320
  H   -0.05373665949899     -2.04177617149898     -0.10583877863821
  N   -1.88310534041892      0.51527154480006     -0.57557537897823
  H   -2.34164937420583      0.19438234527154     -1.41856238204376
  H   -1.76942591645829      1.52216179007175     -0.59066634370626
