14
Coordinates from ORCA-job run
  C   0.67708653371669      0.08999409923083     -0.10659888360654
  C   -0.60019131315364     -0.23595218905093     -0.47320204527691
  C   1.08250980006914      0.21786575805873      1.33960493338753
  H   2.16586407396533      0.28733002753058      1.43957972610303
  H   0.65019296499469      1.09920720991985      1.83231250779478
  H   0.75913151850243     -0.66402203594023      1.90386643719649
  C   1.60481489482192      0.37531687385913     -1.13046511452524
  N   2.35498810689802      0.60231855466489     -2.01231098433677
  N   -0.96517903476568     -0.47899548547974     -1.78361401959830
  H   -0.28602263077609     -0.17271073007746     -2.46545219589140
  H   -1.91464085135118     -0.28356439408554     -2.05889620966566
  N   -1.57935695172622     -0.48296974745537      0.48194669929746
  H   -2.51399764950494     -0.35312652617836      0.12978503652939
  H   -1.43619946169046      0.00030858500361      1.35944411259213
