14
Coordinates from ORCA-job run
  C   0.43151433007544      0.41920907808710      0.15527267798009
  C   -0.67263856773106     -0.14864620040621     -0.41642062262785
  C   1.66154677228088     -0.36110105580465      0.54658873720169
  H   2.22051241222790      0.17414781206304      1.31540728281011
  H   2.33964328470648     -0.52399401938525     -0.29755792013853
  H   1.39525168212580     -1.33622177688614      0.96536854238651
  C   0.42227473074522      1.82757512179567      0.33706567667650
  N   0.39208180754824      2.99713971992490      0.48304480341082
  N   -0.71578142295820     -1.45983155697883     -0.85809213473558
  H   0.10495717965690     -2.00815749945625     -0.65971430427409
  H   -1.57501394666288     -1.93692120066919     -0.62683304981287
  N   -1.87836854592847      0.51062824211399     -0.60603153989423
  H   -2.27562451358118      0.35435363923802     -1.52158212273363
  H   -1.85235520250507      1.49081969636381     -0.36351602624893
