14
Coordinates from ORCA-job run
  C   0.48180324897450      0.40882790161017      0.09752445241003
  C   -0.70113735403483     -0.11302468538415     -0.34796156468424
  C   1.70329007096880     -0.43767990242843      0.36087572798396
  H   2.04829595606088     -0.93936121011642     -0.54755989875900
  H   1.52498536179888     -1.19781067501381      1.12668800743533
  H   2.52129542151439      0.18631705111971      0.71950513928523
  C   0.54122085692007      1.81269659817942      0.29546897156139
  N   0.56472044589727      2.98236103842550      0.44566983635978
  N   -1.78374625156991      0.64052548770402     -0.77442776330589
  H   -2.66433453875135      0.31554761662494     -0.40143274742509
  H   -1.66328740054638      1.63800649840526     -0.67599943023609
  N   -0.95096514592831     -1.47276518549025     -0.40614713421436
  H   -0.16608762666570     -2.06878406685746     -0.20306219064344
  H   -1.45505304463831     -1.75585646677849     -1.23314140576760
