14
Coordinates from ORCA-job run
  C   0.64663813127197      0.15708440435639     -0.04592723725906
  C   -0.63679534505246     -0.04135552972224     -0.47372258198579
  C   1.05655886034650      0.12450691385208      1.40293368384315
  H   1.42021563576540     -0.85701436938000      1.72484696566460
  H   0.20891342613575      0.40156546823121      2.03474729272343
  H   1.85833061190407      0.84167298136878      1.58220168521241
  C   1.62837071382557      0.43781418311404     -1.03331048154190
  N   2.43125651284656      0.66190229770090     -1.86771546580643
  N   -1.63342589191023     -0.44889095215970      0.38919469928587
  H   -1.40313296539885     -1.16177402063935      1.05924288719663
  H   -2.56185318035118     -0.50268928478194      0.00636008987818
  N   -1.07895265179353      0.25156714594636     -1.75800753860162
  H   -0.35966612047965      0.63549835451537     -2.35425345409363
  H   -1.57745773710991     -0.50088759240190     -2.21259054451585
