9
Coordinates from ORCA-job run
  C   0.33103335035318      0.44834118630742     -0.15734042596543
  C   -1.01273403684687     -0.25031884478044     -0.00224093435194
  Br  0.53652302238329      1.85556625682459      1.18597373848539
  H   -1.82207306955228      0.47256788338147     -0.10817536132981
  H   0.39998344628293      0.95991989665130     -1.11856551057170
  H   -1.08627327318078     -0.72334970753088      0.97709283630547
  H   -1.11528845762431     -1.01655362474851     -0.77478522861033
  C   1.44713167300146     -0.48255754979974     -0.04033512068590
  N   2.32069734518338     -1.26361549630522      0.03837600672426
