16
Coordinates from ORCA-job run
  C   0.70663644451919     -0.91205294712106     -0.05698650240815
  C   -0.43263802342269      0.03136977632884      0.27531565639130
  F   0.94954068153091     -0.94761888863892     -1.39338471295502
  H   -0.55863218711286     -0.02062587218327      1.36177325014285
  H   0.54034708824043     -1.92981886688677      0.30280079322481
  N   1.95957466463624     -0.43915428247346      0.64022911174627
  O   2.85350363178706      0.05563678801743     -0.03155449340711
  O   1.93781116865086     -0.56831506092180      1.86076961686468
  C   -1.70588646359510     -0.46702038408970     -0.40540717719844
  H   -2.55300673716774      0.16126785616614     -0.12262623911573
  H   -1.60348568520904     -0.43035665309810     -1.49168747959751
  H   -1.94022899410738     -1.49552194161286     -0.11745787934455
  C   -0.09586826315493      1.46475681524124     -0.12820933563363
  H   0.14121287230897      1.52232069258715     -1.19252823822137
  H   -0.95169262094744      2.11435205112045      0.06638225338979
  H   0.75381242304352      1.85978091756469      0.43257137612181
