13
Coordinates from ORCA-job run
  C   -0.58629584471248     -0.31496186759019     -0.28978387361152
  C   0.86643009303719      0.21348724535624     -0.32604195431334
  Br  -0.99079896892174     -1.24648612389701     -1.93310224272321
  H   0.95297394210803      0.85784547702740     -1.20790096868555
  N   -1.53039627218547      0.90737239475129     -0.22237272206028
  O   -1.16309985253273      1.88694217936393     -0.85374977209574
  O   -2.56159465104416      0.76268019260492      0.41264160237949
  C   -0.82451555319635     -1.17267947852262      0.85531214378304
  N   -0.96934462270245     -1.87936558414629      1.78504615734449
  C   1.81246251742688     -0.89856574308234     -0.42785340686851
  N   2.57801393296026     -1.78516210696272     -0.51437053689022
  C   1.12081711153927      1.01342996492570      0.87683219695122
  N   1.29734816822373      1.65446345017169      1.84534337679015
