13
Coordinates from ORCA-job run
  C   -0.57972766981732     -0.15890322964614     -0.40966741658072
  C   0.90362161769297      0.22133805526010     -0.19337582074463
  Br  -0.90488852183225     -0.51285758045605     -2.28033687187118
  H   1.11066911921074      1.08811300056545     -0.83060230782084
  N   -1.43989392060526      1.06834467312008     -0.02695458022976
  O   -2.52618592368800      0.83447197214239      0.47564126747823
  O   -0.95489069978727      2.15396095470742     -0.30789858248010
  C   -0.97280093561576     -1.29500506760207      0.40188105003149
  N   -1.24470198198972     -2.22927437013954      1.06374492956929
  C   1.77564306209292     -0.89260250186068     -0.56843799910047
  N   2.48150937620216     -1.78217404594470     -0.86828665131072
  C   1.10686029721372      0.59973684489584      1.20909258528865
  N   1.24378618092307      0.90485129495789      2.33520039777077
