13
Coordinates from ORCA-job run
  C   -0.55471271262943     -0.40858562416715     -0.13150090041063
  C   0.78759158043151      0.25144042695863      0.28714636673704
  Br  -0.29137433932482     -1.81037545752539     -1.40484026951909
  H   0.53417982345332      1.03919447216315      1.00823866109843
  N   -1.40966460851433      0.75678267004384     -0.72888711174508
  O   -1.59100635045301      1.66353996079831      0.07262973324805
  O   -1.78749652918565      0.67881202732705     -1.88031693310960
  C   -1.25841580606534     -0.90090639327843      1.04096895015889
  N   -1.81081137555508     -1.29140062575426      2.00373576506217
  C   1.43368537543724      0.86897328427155     -0.87328565937188
  N   1.93333753096168      1.38784665017796     -1.80116020974698
  C   1.66037192247564     -0.72767972351240      0.93462788837393
  N   2.35331548896827     -1.50864166750286      1.47264371922477
