13
Coordinates from ORCA-job run
  C   -0.56558881144689     -0.38812338343862     -0.13763805319023
  C   0.79698239390040      0.22393864342361      0.28767523441363
  Br  -0.34944095955669     -1.75967798052644     -1.45241517245900
  H   0.57050810850382      0.99976735684772      1.03037348722780
  N   -1.39403858728667      0.81568838505966     -0.69445220904301
  O   -1.78279287704613      0.78051009388766     -1.84439682841499
  O   -1.54568524691201      1.70331783918609      0.13428592567553
  C   -1.27431122206112     -0.89632703543566      1.02504390681877
  N   -1.83516896901399     -1.30628441248396      1.97475070793841
  C   1.45183773795871      0.85275044432788     -0.86187485260793
  N   1.95932022235139      1.37923978754508     -1.78111820688631
  C   1.64694695914015     -0.79515969906009      0.90305902121783
  N   2.32143125146901     -1.60864003933292      1.41570703930948
