15

C	0.0	0.0	0.0
C	-0.40896	-0.14521	-1.481248
F	1.383567	0.0	0.0
H	0.185167	0.607293	-2.016959
C	-0.436287	1.309873	0.50969
N	-0.552515	2.394649	0.945635
C	-0.387228	-1.150221	0.915427
H	0.089759	-2.058656	0.540267
H	0.009554	-0.93643	1.911125
H	-1.469785	-1.22465	0.926958
C	-1.828975	0.073916	-1.863316
N	-2.573022	0.265857	-2.764671
C	0.04214	-1.45135	-1.980444
N	0.418348	-2.489188	-2.379504
F	-2.538477	0.0	0.0
