15

C	0.0	0.0	0.0
C	-0.425139	0.118133	-1.473352
F	1.383762	0.0	0.0
H	0.191044	-0.628186	-1.993608
C	-0.436691	1.141879	0.816279
N	-0.596259	2.090325	1.490772
C	-0.379368	-1.341055	0.614412
H	0.014976	-2.132597	-0.030037
H	-1.46015	-1.390817	0.696212
H	0.109227	-1.414545	1.589446
C	-0.023771	1.422703	-2.016219
N	0.332563	2.448824	-2.463467
C	-1.841066	-0.179382	-1.826497
N	-2.561907	-0.475174	-2.719543
F	-2.538274	0.0	0.0
