15

C	0.0	0.0	0.0
C	-0.403912	0.22591	-1.470997
F	1.383803	0.0	0.0
H	0.071586	-0.598772	-2.019444
C	-0.43305	1.108842	0.863411
N	-0.590968	2.044782	1.554855
C	-0.389083	-1.371024	0.527749
H	-1.472776	-1.432906	0.544799
H	0.039669	-1.486748	1.526386
H	0.059339	-2.12304	-0.128932
C	0.226937	1.458575	-1.9695
N	0.749594	2.425469	-2.383654
C	-1.84431	0.218814	-1.84377
N	-2.600026	0.245662	-2.757301
F	-2.534912	0.0	0.0
