15

C	0.0	0.0	0.0
C	-0.408646	0.364356	-1.440784
F	1.38367	0.0	0.0
H	0.061268	-0.406957	-2.066373
C	-0.431385	1.015862	0.972757
N	-0.595801	1.860425	1.771646
C	-0.385081	-1.415039	0.402306
H	-1.468022	-1.481583	0.435553
H	0.064032	-1.624205	1.376753
H	0.047017	-2.104631	-0.330557
C	0.224309	1.636539	-1.820292
N	0.751929	2.637306	-2.134113
C	-1.851738	0.398988	-1.804679
N	-2.603792	0.526177	-2.712654
F	-2.538346	0.0	0.0
