13
Coordinates from ORCA-job run
  C   0.94429862472845     -0.56430536348539      0.44364378394063
  C   -0.48638615064919     -0.04306171459777      0.35375968939236
  Cl  1.75187653229240     -0.00021724251281      1.92648095721369
  H   -0.96103089851749     -0.14574898206001      1.33953472392143
  H   0.86968618331942     -1.65126500928911      0.54570929596041
  C   1.73368875341349     -0.28161512383063     -0.75001384545991
  N   2.39004385618116     -0.11839160428602     -1.70932612811767
  N   -1.15981375006241     -0.68241048897025     -0.74723783633558
  H   -1.29686053902598     -1.66639721026937     -0.55114140758933
  H   -2.06853080283110     -0.25335357279046     -0.87805286507929
  N   -0.54102707447708      1.44152525293180      0.07270569448867
  O   -1.67689054511016      1.88671423310625     -0.06644392730624
  O   0.50194581073847      2.07952682605376      0.02038186497083
