12

C	-0.486184	-0.089119	-1.429471
C	0.0	0.0	0.0
F	-1.870082	-0.447729	-1.450356
H	1.091843	0.0	0.0
H	0.022624	-0.900134	-1.954216
H	-0.334307	0.938785	0.456111
N	-0.272763	1.128321	-2.11955
H	-0.733667	1.891244	-1.641043
H	-0.620642	1.065858	-3.066867
C	-0.490958	-1.109821	0.804316
N	-0.867096	-2.006148	1.463343
H	2.838349	0.0	0.0
