12

C	-0.342029	-0.100653	-1.4836
C	0.0	0.0	0.0
F	-0.229661	1.21893	-2.010655
H	1.094508	0.0	0.0
H	-1.380144	-0.375737	-1.697624
H	-0.371992	0.938696	0.414719
N	0.555995	-1.007858	-2.079647
H	0.504682	-0.973088	-3.087675
H	1.505845	-0.816034	-1.752011
C	-0.525644	-1.12645	0.750299
N	-0.969943	-2.024956	1.363292
H	2.861987	0.0	0.0
