17
Coordinates from ORCA-job run
  C   -0.88076863911497     -0.25684291072549      0.11168661732029
  C   0.52931714579829      0.15447099569818      0.55728591824267
  Cl  -1.77208006058311     -0.85450152873771      1.55248520827402
  H   0.42356692247860      0.96119182456157      1.28486924546322
  C   -0.86199763869451     -1.31554401880223     -0.89819309009029
  N   -0.89572154557290     -2.09324908668415     -1.77844984591575
  C   -1.63757074831006      0.94990759411897     -0.44294525299674
  H   -1.64630092677260      1.75167990399077      0.29796279569709
  H   -1.17299703042034      1.30342724708015     -1.36469753083533
  H   -2.66620988722522      0.66365630993754     -0.66276776634485
  C   1.45219489722870      0.53219776424606     -0.58882224889991
  H   2.44301703476493      0.76454132324759     -0.19269063444958
  H   1.54375676065084     -0.29255396024020     -1.29703016282986
  H   1.08465166777464      1.41714144590942     -1.10884215383019
  N   1.18223423794987     -0.95810173804458      1.32489200252235
  O   1.31603217116728     -2.02886795358589      0.74015864530655
  O   1.55987563888054     -0.69855321196998      2.46409825336631
