17
Coordinates from ORCA-job run
  C   -0.75985348396062     -0.16778344009689     -0.37038176473999
  C   0.67503778951200      0.19064204846830      0.08131965553831
  Cl  -1.05742680699833     -1.93277976395319     -0.25541307707570
  H   0.79119450058479      1.26250601682007     -0.09775754248971
  C   -0.85152776948517      0.20760405075125     -1.78332248467989
  N   -0.91312234810251      0.55118701771610     -2.90552232411681
  C   -1.83585027052079      0.55989439485286      0.43082654135265
  H   -1.65379422132718      1.63660968269828      0.41247581108104
  H   -2.81458079002880      0.35006536825083     -0.00116353011009
  H   -1.82984940565552      0.21751646929295      1.46571759808076
  C   1.78037352971819     -0.60226939881464     -0.58036758080565
  H   1.70202995223475     -1.65869825475253     -0.33368981306153
  H   1.72670325409448     -0.47743677313580     -1.66355655258950
  H   2.74983752253005     -0.23410409737184     -0.23939772029020
  N   0.75319117778778      0.06189231942990      1.57541409758815
  O   1.01034309467897     -1.04512883168444      2.03995556252486
  O   0.52729427493790      1.08228319152876      2.22586312379332
