17
Coordinates from ORCA-job run
  C   -0.90018228998548     -0.14370891173866      0.32863605767044
  C   0.62153124603714     -0.07097872913733      0.59974593024533
  Cl  -1.68183408677823      0.82108288332619      1.63564520919690
  H   0.78815804758190     -0.38623552960969      1.63024849737412
  C   -1.34767402632476     -1.52896040729364      0.48930594623156
  N   -1.69732837459451     -2.64695118658026      0.58575306110017
  C   -1.35773392173250      0.40689074160325     -1.01531476331151
  H   -1.09650191408687      1.46190996208388     -1.09654610253782
  H   -2.44142670433781      0.31169212491174     -1.09125411483739
  H   -0.88616396144922     -0.14776684382420     -1.82598708359371
  C   1.25834428228717      1.27275619391130      0.30861734656688
  H   1.20712909383202      1.50572391963381     -0.75404330791201
  H   2.30899652980838      1.24515414240239      0.60474125536949
  H   0.76233771426892      2.05702744956777      0.88058500031484
  N   1.31288938713817     -1.12538798428046     -0.22378864915092
  O   1.80759342528499     -2.07001191170135      0.38593149666271
  O   1.33986555305070     -0.96023591327473     -1.44227577938910
