17
Coordinates from ORCA-job run
  C   -0.76158709490713     -0.20083567836697     -0.35000469386166
  C   0.67714312196476      0.19104250178470      0.05962280273993
  Cl  -1.08011891343399     -1.93679574566640     -0.03072590260260
  H   0.80632073351501      1.23311758936191     -0.24344009877663
  C   -0.84809584033883      0.00784818724428     -1.79726647067196
  N   -0.90618410180636      0.21760954155008     -2.95215848451701
  C   -1.82892723485481      0.62773512061461      0.35943659877053
  H   -2.80988521478030      0.38353171211800     -0.04858563639268
  H   -1.82907147816964      0.40524034135927      1.42645709632735
  H   -1.63196540445056      1.69266038657922      0.21927381661192
  C   1.77350393825157     -0.68655851518004     -0.50261696134053
  H   1.72248543869994     -0.68775301850160     -1.59312487730961
  H   1.68228048238839     -1.70628825139245     -0.13531714451697
  H   2.74695611659216     -0.29281748073604     -0.20418630349766
  N   0.75288162727154      0.23702584139947      1.55869176501114
  O   0.53943901410761      1.32922596441496      2.08488659923972
  O   0.99682480995064     -0.81098849658299      2.15005789478670
