17
Coordinates from ORCA-job run
  C   -0.89364728518874      0.13808124402535      0.34832482399101
  C   0.63028011795022      0.04040700670941      0.59868284850186
  Cl  -1.44848471340902      1.61237565685402      1.22451581790738
  H   0.79418616454412      0.09439352287780      1.67541365628041
  C   -1.56084670647241     -1.00880410828268      0.96748014718081
  N   -2.09529127827911     -1.94843717223428      1.42902630498231
  C   -1.30531908800495      0.26013995631376     -1.11279505322603
  H   -0.88637284915223      1.16832854151074     -1.54578931779593
  H   -0.95209910470267     -0.60615690878787     -1.67262322613763
  H   -2.39250189171755      0.31469234001489     -1.17720031496021
  C   1.46352378025766      1.06034745243071     -0.14986660019920
  H   1.40701208815588      0.89719801482611     -1.22493184219435
  H   2.50726370236766      0.96880156559023      0.15775161039476
  H   1.12509167619779      2.06944919506935      0.08696720156289
  N   1.08976525547555     -1.34385189953780      0.22334243871653
  O   1.36891122656905     -2.10480764563846      1.14636924026614
  O   1.14852890540876     -1.61215676174129     -0.97566773527075
