13

C	-0.493927	0.072459	-1.437371
C	0.0	0.0	0.0
Cl	-0.070796	-1.375653	-2.393406
H	1.095212	0.0	0.0
H	-1.581687	0.173973	-1.476009
H	-0.021718	0.926593	-1.923802
C	-0.517652	-1.184637	0.677527
N	-0.974379	-2.101261	1.252809
C	-0.42826	1.264141	0.756542
H	0.003643	2.139556	0.266477
H	-1.516751	1.370303	0.795647
H	-0.039465	1.231833	1.775568
Br	3.527271	0.0	0.0
