13

C	-0.345475	0.013796	-1.477962
C	0.0	0.0	0.0
Cl	-2.112288	0.109976	-1.801615
H	1.097941	0.0	0.0
H	0.020019	-0.888249	-1.966007
H	0.11528	0.885927	-1.941125
C	-0.492123	-1.214188	0.644559
N	-0.917053	-2.174688	1.170639
C	-0.463413	1.24784	0.749345
H	-1.5521	1.326145	0.777639
H	-0.052088	2.132045	0.256277
H	-0.078589	1.226397	1.77015
Br	3.48241	0.0	0.0
