13

C	-0.493353	0.071743	-1.438142
C	0.0	0.0	0.0
Cl	-0.03124	-1.362533	-2.394251
H	1.095181	0.0	0.0
H	-0.03695	0.937448	-1.919448
H	-1.582606	0.148658	-1.482848
C	-0.514989	-1.188618	0.674056
N	-0.975484	-2.127037	1.210225
C	-0.433206	1.264344	0.752531
H	0.000314	2.140218	0.264388
H	-0.049301	1.232547	1.773558
H	-1.522291	1.369805	0.785738
Br	3.512647	0.0	0.0
