15
Coordinates from ORCA-job run
  C   0.70796709897528     -0.12435666172125     -0.36005073658811
  C   -0.72058046090376     -0.54245822342680     -0.05694887361935
  F   0.75089867592198      0.43539804857865     -1.59626406120448
  H   -0.71969962916125     -1.04864810883996      0.91146472080733
  H   -0.98500629723932     -1.28341934922467     -0.81913001992626
  N   1.73981013495007     -1.10282810503934     -0.27732722574138
  H   1.53375179615875     -1.87160193609133     -0.90290327350187
  H   1.81725212382371     -1.44510114515147      0.67135266353609
  N   1.08566438141244      0.96044714281042      0.64511619978556
  O   1.22876947620821      0.55976079408002      1.79806476289354
  O   1.17028807508463      2.11410093738671      0.25480672134688
  C   -1.71049285409032      0.61788954296583     -0.06682792628019
  H   -1.63787165297632      1.18485799183772     -0.99550981213151
  H   -1.52924790344884      1.30063249143416      0.76577898996135
  H   -2.73150296471524      0.24432658040131      0.02837787066239
