15
Coordinates from ORCA-job run
  C   0.64039661527412      0.07980203685421     -0.13468351700755
  C   -0.74130795340820      0.54897299842680      0.24379691467527
  F   0.81369483967002      0.27295376065737     -1.50946865751631
  H   -0.84944335717517      1.56862354668046     -0.12765657847414
  H   -0.80137475082269      0.58797192140021      1.33241913779520
  N   0.94784614023987     -1.22079732849008      0.28072143322428
  H   0.28547978729470     -1.89042817296813     -0.08344825782206
  H   1.89136141474087     -1.46930037408410      0.01100937071337
  N   1.72610946243057      0.98128809810323      0.45977139434846
  O   1.38317238852001      2.02628751699397      1.00037017074519
  O   2.87845514552987      0.58923098114684      0.30755664665438
  C   -1.82827723821960     -0.35214269179623     -0.33687285136128
  H   -1.68973727418627     -0.49077052417703     -1.41050198702049
  H   -2.80860057613107      0.10108096672638     -0.18202214249655
  H   -1.84877464375704     -1.33077273547391      0.14800892354222
