15
Coordinates from ORCA-job run
  C   0.63379623901278     -0.22434719387971     -0.39252173150755
  C   -0.80414263442547     -0.56005174161759     -0.07048478598466
  F   0.73644875726783      0.35423071779741     -1.61594770134459
  H   -0.82810795099533     -1.07745888463925      0.89173630488511
  H   -1.11599433841393     -1.27034305008145     -0.84046366586466
  N   1.49519589287621     -1.34080524316513     -0.34893874181693
  H   1.49771350324862     -1.75565122177713      0.57260227166014
  H   2.43836380669343     -1.08158892976419     -0.61280183645333
  N   1.07301774625775      0.87602868426678      0.61292829722875
  O   1.17032987025027      0.48112934019642      1.77344102109787
  O   1.26229877271708      2.01626935510786      0.21338477556191
  C   -1.71162530487937      0.66489264628810     -0.04982291872501
  H   -1.48843546139056      1.31568213545361      0.79785682957602
  H   -1.60344840131325      1.24654373758715     -0.96622940801657
  H   -2.75441049690606      0.35546964822714      0.03626128970350
