14
Coordinates from ORCA-job run
  C   -0.38326308080676     -0.15345713733449     -0.29785668547644
  C   1.11331214770501     -0.07911261571647     -0.62003592031591
  Br  -1.27535221110182     -0.18795859795868     -2.13928832866416
  H   1.42146937761900     -0.97521555159825     -1.16673227163185
  H   1.31032596311398      0.77715159009802     -1.26844214140166
  C   -0.89755225364803      1.08864348755679      0.40197085128583
  H   -1.97867458559290      1.02685735033822      0.54089585906974
  H   -0.41811155215217      1.16593428527022      1.38116410115922
  H   -0.68117140605221      1.98285326054532     -0.18265678830588
  N   -0.65847990306189     -1.30984776953864      0.45694241496840
  H   -0.37356105324194     -2.16257935050453     -0.00775606907046
  H   -1.63333613727746     -1.37683677910061      0.71962445776003
  C   1.90724631983126      0.04239412184457      0.60307953108109
  N   2.54614837466594      0.16117370609853      1.58009098954206
