14
Coordinates from ORCA-job run
  C   -0.37077281510064      0.06944512933000     -0.24948098823249
  C   1.12856052956361      0.26882016433258      0.06473554278919
  Br  -0.62054117642349      0.58665191491713     -2.13620754270702
  H   1.44367753940300      1.28790246023127     -0.17347822221786
  H   1.26983689157077      0.11526601914188      1.14164347032042
  C   -1.20958178522290      0.99101726654411      0.61705417059720
  H   -0.91017882226726      2.03233586766784      0.49222780005485
  H   -1.08382010013793      0.71445746195146      1.67016167579068
  H   -2.26073089190155      0.88471556629544      0.35086542228238
  N   -0.84607932031242     -1.28099947028929     -0.11577935767437
  H   -0.83539371045150     -1.55983567761879      0.85933780571072
  H   -0.28526390814327     -1.93013620418821     -0.65615259926745
  C   1.96881794146367     -0.68686315913299     -0.65006702153239
  N   2.61046962795990     -1.49177733918243     -1.21386015591386
