14
Coordinates from ORCA-job run
  C   -0.34236653846340     -0.22468270023168     -0.18431850802366
  C   1.15023008283890     -0.45696275656058      0.07374946885054
  Br  -0.54412859084311     -0.05547340439062     -2.19736215190848
  H   1.48062191154884     -1.36448631422106     -0.43973530922841
  H   1.27008439738226     -0.61814605769635      1.15041692593855
  C   -0.84633859823216      1.07220117330467      0.41607246796189
  H   -0.71120934110890      1.03050885681741      1.50073732718258
  H   -1.90813616399436      1.20388597229852      0.19864225236514
  H   -0.30627360268087      1.92863463692242      0.01400363961969
  N   -1.05981672603659     -1.33160698441686      0.33537026770987
  H   -0.78932179641847     -2.20132302245325     -0.10797497518916
  H   -2.05873247361964     -1.20934227103663      0.22416194959743
  C   1.99241654796223      0.66004987423850     -0.34059813573126
  N   2.67297089166526      1.56674299742551     -0.64316521914472
