14
Coordinates from ORCA-job run
  C   -0.32676570446293     -0.23114890449040     -0.30319724953600
  C   1.16322519282102     -0.48734168740226     -0.04587199770629
  Br  -0.56926154147085      0.05277522635811     -2.23257814873428
  H   1.28396598342715     -0.76792126497253      1.00798389471641
  H   1.48168111441421     -1.33776853929039     -0.65183441140407
  C   -0.83223812958692      1.01040041879648      0.41788600087524
  H   -1.89822827686369      1.14599846180245      0.22636309010093
  H   -0.30377600522979      1.91126182526333      0.10243777446904
  H   -0.68673539633930      0.87762729623429      1.49617795329247
  N   -1.02116278350838     -1.46253485691385      0.02593716780182
  H   -0.98547707828022     -1.59975121535270      1.03250771114482
  H   -1.99661421914705     -1.39200941530076     -0.24205603944225
  C   2.00846718012693      0.67084422102214     -0.31609156662050
  N   2.68291966409982      1.60956843424609     -0.51766417895735
