17

C	0.0	0.0	0.0
C	-0.606568	-0.066453	-1.394001
F	1.389587	0.0	0.0
H	-1.722324	-0.079795	-1.12843
C	-0.368159	1.297458	0.619071
N	-0.494573	2.35903	1.105857
C	-0.481346	-1.144302	0.86555
H	-1.579207	-1.081672	0.880564
H	-0.069268	-1.04573	1.872668
H	-0.151474	-2.08922	0.427881
C	-0.226918	-1.30915	-2.046774
N	0.069059	-2.29825	-2.611361
C	-0.268693	1.140286	-2.268738
H	-0.663526	0.997899	-3.276978
H	0.812002	1.294734	-2.335131
H	-0.731483	2.034109	-1.845228
H	-3.054786	0.0	0.0
