17

C	0.0	0.0	0.0
C	-0.176118	0.064608	-1.563988
F	1.389422	0.0	0.0
H	0.461898	-0.767625	-1.895782
C	-0.641431	1.136369	0.655637
N	-0.585087	2.245133	1.09881
C	-0.314248	-1.361411	0.610523
H	-1.378643	-1.483372	0.761816
H	0.230409	-1.423862	1.558455
H	0.065641	-2.144957	-0.051156
C	0.501509	1.28539	-2.032158
N	0.975658	2.275885	-2.448257
C	-1.503018	-0.047341	-2.306061
H	-2.149945	0.7864	-2.066831
H	-1.287066	-0.070391	-3.383274
H	-2.023654	-0.952387	-2.00949
H	-2.396365	0.0	0.0
