17

C	0.0	0.0	0.0
C	-0.4415	0.068996	-1.497991
F	1.389479	0.0	0.0
H	-0.650795	-0.963713	-1.803546
C	-0.354867	1.257148	0.696447
N	-0.538166	2.265753	1.26883
C	-0.600712	-1.186162	0.707974
H	-0.27555	-2.105997	0.21452
H	-1.696785	-1.084754	0.646133
H	-0.288212	-1.202861	1.75454
C	0.667089	0.545273	-2.334581
N	1.505397	0.960135	-3.045363
C	-1.687382	0.921602	-1.754173
H	-2.522029	0.596115	-1.092135
H	-1.46553	1.976766	-1.576439
H	-1.997197	0.798206	-2.79612
H	-3.773644	0.0	0.0
