17

C	0.0	0.0	0.0
C	-0.344716	-0.161118	-1.501132
F	1.389424	0.0	0.0
H	0.000936	-1.17552	-1.755392
C	-0.364981	1.3453	0.479507
N	-0.506746	2.431391	0.904441
C	-0.57192	-1.091281	0.873673
H	-1.667544	-0.986675	0.906401
H	-0.160222	-1.002937	1.881295
H	-0.300425	-2.065566	0.459138
C	0.49454	0.764123	-2.276207
N	1.106056	1.512474	-2.94738
C	-1.813884	0.007323	-1.897708
H	-1.911888	-0.208074	-2.969399
H	-2.17182	1.019188	-1.694224
H	-2.501276	-0.621606	-1.315886
H	-4.015772	0.0	0.0
