16
Coordinates from ORCA-job run
  C   0.64331116438635     -0.07377688310380      0.60526382961556
  C   -0.79437492027409     -0.29957582950770      0.14669043081356
  F   0.76014222410777     -0.02002978700345      1.92699126374169
  H   -1.23175702425163     -0.98985946639177      0.87393727619656
  N   1.27298400437649      1.15888375334898     -0.00486785027099
  O   2.19529031312802      1.65971351652297      0.61601585214394
  O   0.81043237475257      1.50782770385856     -1.08490605289183
  N   1.46833777407485     -1.26843974003799      0.12281716121247
  O   1.27495366420102     -2.28801993102063      0.76537388545095
  O   2.20135146411238     -1.09993016946379     -0.83849444149323
  N   -0.86925493546147     -0.84081676588585     -1.14895499213347
  H   -0.60692499308864     -0.16524195499716     -1.85420431250752
  H   -1.78398523239047     -1.21922825620489     -1.34546835062325
  N   -1.58203629198115      1.01294731989196      0.35068327537078
  O   -2.59621374714654      1.12755830765047     -0.32323617145146
  O   -1.16325583854544      1.79798818234408      1.19335919682624
