16
Coordinates from ORCA-job run
  C   0.69899078811612     -0.35927601597528     -0.15841264362464
  C   -0.83544075220516     -0.40332285912904     -0.01726009711949
  F   1.04557331424276     -1.23056186536986     -1.11453951117525
  H   -1.08021369725762     -1.35815696464572      0.45119738595337
  N   1.41267444363729     -0.74477645684948      1.11752232684149
  O   0.83880402264986     -0.42742363638274      2.15272889997482
  O   2.48482720198165     -1.31518726725084      0.98988255090904
  N   1.25184621754762      0.99767122574746     -0.57251111813063
  O   0.95514676932579      1.32621721387672     -1.71307090042742
  O   1.93223519954987      1.60693964450033      0.23693662810010
  N   -1.55812285627828     -0.24674232181434     -1.23263611094769
  H   -1.59611270144862     -1.10926676949053     -1.75598191792057
  H   -1.17921988757571      0.49480500627060     -1.80750941811389
  N   -1.32304626529864      0.65833307614832      0.93297902050276
  O   -0.96573463850047      1.80328567215164      0.66853658041540
  O   -2.08320715848647      0.30746231821277      1.82213832476260
