13
Coordinates from ORCA-job run
  C   0.60194833615759      0.35646587627534      0.31217458521948
  C   -0.64721877575030     -0.42571434110141      0.71363048391713
  F   1.06860428175060      0.88854022026319      1.53315342736025
  H   -1.33462451628434      0.24803030679585      1.22320775353509
  H   -0.37944943230137     -1.26757644296813      1.34919396081477
  C   1.68063040109848     -0.51486117421967     -0.18978201274228
  N   2.56382262476623     -1.19243757892000     -0.56158343816190
  N   0.29531375810940      1.32782475056158     -0.65203766589704
  H   1.10197928284968      1.85965014201357     -0.94851662983593
  H   -0.46356573750167      1.93460066726555     -0.37134943572802
  N   -1.33206382449002     -0.94659888174227     -0.49794475116017
  O   -2.31292612408799     -0.32223369518836     -0.89394817798442
  O   -0.84245027431631     -1.94568984903526     -1.01719809933698
