13
Coordinates from ORCA-job run
  C   0.59822437718720      0.35445822456365      0.32287361521689
  C   -0.64613521219445     -0.44784422992026      0.69906329231408
  F   1.05385645551598      0.86139269612740      1.55878172630667
  H   -1.34056858846303      0.20757631858621      1.22282409858167
  H   -0.37420484397474     -1.30332383026427      1.31435210265460
  C   1.68685512718696     -0.49604967797276     -0.19290153536117
  N   2.57360974492372     -1.16651685840142     -0.56912208292565
  N   0.28785950593368      1.34591056189242     -0.61939301283640
  H   1.09115913117441      1.89230116925122     -0.89800961908899
  H   -0.47850974099214      1.93836936726008     -0.32871743275791
  N   -1.32196961511368     -0.94333569698866     -0.52801740562245
  O   -0.82361580173159     -1.92659077275546     -1.06877392372380
  O   -2.30556053945226     -0.31634727137820     -0.91295982275749
