13
Coordinates from ORCA-job run
  C   0.50648576651936      0.33620883081492      0.12843910471139
  C   -0.89836898006724     -0.10254811438945     -0.26577883773455
  F   0.60208741697976      0.16932736268057      1.51841859831709
  H   -0.97219636280388     -0.22001573819684     -1.34651517753715
  H   -1.62528561810279      0.62133647108795      0.09966707081455
  C   1.56928662830104     -0.48859318682987     -0.47633955958069
  N   2.45714858216482     -1.07648085010475     -0.96936441762435
  N   0.68596577830867      1.67722162689286     -0.28167638117608
  H   1.63624438510869      1.99199679441400     -0.13413635954934
  H   0.04005118984482      2.29424468645489      0.19511895767991
  N   -1.24721787382553     -1.40899192628377      0.36123283073697
  O   -2.25296956124341     -1.44184140174421      1.06342714878657
  O   -0.50223135118431     -2.35086455479632      0.10950702215567
