13
Coordinates from ORCA-job run
  C   0.55389413597322      0.43491130322553      0.45576984502998
  C   -0.79470698807294     -0.25365679400399      0.66244618176917
  F   0.93690286982471      0.85991049721763      1.72108815420724
  H   -0.71839198884052     -0.96801890133615      1.47823593038480
  H   -1.54225150900321      0.51374820452420      0.86651744337853
  C   1.57824349620550     -0.55310254707128      0.02946763419950
  N   2.38008526829759     -1.31725810312976     -0.36232313914398
  N   0.43655586596408      1.56551127939820     -0.38840068863622
  H   -0.17961327942525      1.37914418410394     -1.16934996710198
  H   1.33571726581548      1.89355312472297     -0.71539580189808
  N   -1.22107996214340     -1.00208531595947     -0.55279208870731
  O   -1.43669337284152     -0.33326579424394     -1.56464482000618
  O   -1.32666180175373     -2.22039113744789     -0.46161868347547
