13
Coordinates from ORCA-job run
  C   0.59214263360526      0.29491188938445      0.16525320187890
  C   -0.33528707149792     -0.90014206326593     -0.05869649884912
  F   0.30940865485590      0.76073350032465      1.46471959493617
  H   -0.28746832780365     -1.22705733041857     -1.09759766565331
  H   -0.08537672766820     -1.70834470535575      0.62401437719353
  C   1.98372083469015     -0.20057096828224      0.19834579539275
  N   3.08081083283752     -0.61742001993419      0.21223480385789
  N   0.47122289508120      1.28151376701509     -0.82788802300793
  H   -0.48910296514894      1.58445177044236     -0.92636862870494
  H   1.08903705898578      2.06341884929104     -0.65512494178379
  N   -1.75350708905954     -0.53199531276522      0.23451652500091
  O   -2.36493601319031     -1.24640992156551      1.01943451041477
  O   -2.21166471568725      0.44691054512980     -0.35284305067581
