13
Coordinates from ORCA-job run
  C   0.50103127529548      0.34809744807393      0.11759846991543
  C   -0.90587484391029     -0.12374205324470     -0.22931514791156
  F   0.66694653672525      0.13269501376005      1.49422914236553
  H   -1.63815048632092      0.56258009062451      0.19337642606112
  H   -1.02450196871740     -0.20723755901752     -1.30918133509418
  C   1.55949357239771     -0.41736640094751     -0.56748385532198
  N   2.43363685079010     -0.95915588705808     -1.13256636077143
  N   0.61781104075938      1.70864696122169     -0.24772250073596
  H   -0.02428646547391      2.28560924702090      0.28137867661916
  H   1.56352431774176      2.04976247216793     -0.13364639568126
  N   -1.18298613908091     -1.46144072774734      0.36661273244685
  O   -0.42139187258200     -2.36893699359944      0.04731054844510
  O   -2.14725181762427     -1.54951161125441      1.12040959966318
