13
Coordinates from ORCA-job run
  C   0.54091066787345      0.43298469498346      0.46921548656723
  C   -0.67244148599494     -0.47271541905535      0.67421443058810
  F   1.02041808871355      0.68708078940640      1.74605416522128
  H   -0.41153150695460     -1.28535850468608      1.34760186554500
  H   -1.48761923836942      0.13185163477661      1.07457828184177
  C   1.62097888781691     -0.30577353233121     -0.23587018301491
  N   2.45337645419034     -0.86496647895739     -0.84813945449644
  N   0.17819813820314      1.66701593043767     -0.12719732322093
  H   -0.44675091219493      1.51625664121475     -0.90923985861869
  H   0.99060478809635      2.19250711335515     -0.42408833593736
  N   -1.13874728363190     -1.08391590235315     -0.60257330275136
  O   -1.21228182297290     -2.30661108094127     -0.65073717189924
  O   -1.43611477477504     -0.30835588584956     -1.51181859982445
