13
Coordinates from ORCA-job run
  C   0.61118159177617      0.40429290275968      0.40964493129069
  C   -0.62290810930720     -0.43162116629117      0.74716387389338
  F   1.22455290405625      0.64725824241696      1.63149572687183
  H   -1.35444080554011      0.21821272084164      1.22883640914917
  H   -0.33732503393263     -1.26088651344209      1.38935647530232
  C   1.57852000039319     -0.40067031135820     -0.37994205481911
  N   2.32009929491236     -1.02058249007913     -1.04787150454138
  N   0.25584591825108      1.64358843503270     -0.17589270507741
  H   1.04685487428381      2.10320736638731     -0.60733752376701
  H   -0.49742468588213      1.53224521482471     -0.84258577288480
  N   -1.24965719935694     -1.00549255409516     -0.47628959233037
  O   -1.26826055623866     -2.22675356496038     -0.58523665542227
  O   -1.70503819341517     -0.20179828203686     -1.29134160766505
