13
Coordinates from ORCA-job run
  C   0.54247256006506      0.43316248065703      0.47154634291337
  C   -0.66343792595648     -0.48243233697985      0.68044652181043
  F   1.02107135183011      0.69318876915234      1.74867818477644
  H   -0.38850877866342     -1.30322491651788      1.33793615944861
  H   -1.47674679166349      0.11339193764958      1.09613708709649
  C   1.62880353755179     -0.29685783856127     -0.23145867135238
  N   2.46991121814813     -0.85002757740468     -0.83720737783491
  N   0.16687802728941      1.65726924679871     -0.13260111852736
  H   0.96404462264947      2.17194850460556     -0.48278998594780
  H   -0.51455378191796      1.51210071162485     -0.86659316568589
  N   -1.13197450141086     -1.07263297269269     -0.60439167329813
  O   -1.05037760646349     -2.28939222013121     -0.73364203136589
  O   -1.56758193145824     -0.28549378820050     -1.44606027203298
