13
Coordinates from ORCA-job run
  C   0.39355675032833      0.47207794706906      0.20815959763623
  C   -0.95323029193666     -0.16898624919892     -0.10255737057063
  F   0.52608900053810      0.56818636455710      1.57441699874858
  H   -1.11438339949638     -0.24144717098224     -1.17770406761096
  H   -1.72092264721469      0.42592540093157      0.38766766122529
  C   1.53236005823795     -0.35019338068621     -0.27450272825904
  N   2.45853195157003     -0.93058107776955     -0.70514880297559
  N   0.38267617661646      1.80912748156907     -0.31223946667224
  H   0.32480525473963      1.80509115894444     -1.32375298577760
  H   1.23659638347532      2.28456213329294     -0.04141978684480
  N   -1.01289374048904     -1.54923922202754      0.45153311518539
  O   -0.56131272636307     -2.44543779093841     -0.25948424399313
  O   -1.49287277000599     -1.67808559476128      1.57403207990845
