13
Coordinates from ORCA-job run
  C   0.60157819292193      0.29687359488613      0.11755442535126
  C   -0.47415288803048     -0.76711930229653      0.33931808742167
  F   0.20708273524816      1.40665492768238      0.89164498960660
  H   -0.32524707534016     -1.60407441071579     -0.34312611259684
  H   -0.47660538463069     -1.09462421358901      1.37588338994384
  C   1.86402545742326     -0.19114165633157      0.71005928392798
  N   2.85934760934140     -0.60331790594588      1.17589524981372
  N   0.80861284358318      0.59869550115515     -1.23883770682456
  H   -0.05740991768477      0.86114847502497     -1.69141191517204
  H   1.51803671569181      1.30939797458993     -1.35954148619872
  N   -1.83386257949540     -0.20576989103318      0.07724194139707
  O   -2.01973291054518      0.32372624579010     -1.01747305834571
  O   -2.67067279848310     -0.33144933921672      0.96279291167570
