13
Coordinates from ORCA-job run
  C   0.60571270361703      0.29272680784276      0.10480155796324
  C   -0.47214486967980     -0.76415926077737      0.34942082306546
  F   0.23273510874067      1.40668890075784      0.88336905795461
  H   -0.45650207152308     -1.08983913111621      1.38643700114952
  H   -0.34204108228724     -1.60289204982974     -0.33465975173404
  C   1.87629077881610     -0.20079433717221      0.67470933376333
  N   2.87661438552883     -0.61005854350670      1.13230565423711
  N   0.78844322162366      0.58994463414749     -1.25624060420617
  H   1.49917324516963      1.29650363362226     -1.39248560483983
  H   -0.08480979930922      0.85595379328325     -1.69258873786627
  N   -1.83291200496223     -0.19412026109509      0.11278130132473
  O   -2.65306887777461     -0.31204898421040      1.01481152608741
  O   -2.03749073795971      0.33109479805412     -0.98066155689906
