13
Coordinates from ORCA-job run
  C   0.54020393104578      0.45730639236022      0.45295133234291
  C   -0.65645584308725     -0.46048495413726      0.70163926967026
  F   1.01349743042178      0.77798102443217      1.71894641287569
  H   -1.47392821263699      0.14372994151274      1.09643638343923
  H   -0.37208424430604     -1.25151239833565      1.39085601205656
  C   1.63603896731847     -0.29068263154879     -0.21518634631352
  N   2.48248130867706     -0.85626980857757     -0.80172424678438
  N   0.15317983883677      1.64799611328158     -0.20685125546336
  H   -0.54022538064786      1.46671746750785     -0.92127845753543
  H   0.94226056030544      2.14757246714750     -0.59468715456981
  N   -1.12255454712271     -1.10425807008194     -0.55773518551358
  O   -1.00933810096372     -2.32197952022765     -0.64896295115779
  O   -1.59407570784075     -0.35711602333322     -1.41640381304678
