13
Coordinates from ORCA-job run
  C   0.61159805902051      0.40663259010918      0.40618547150160
  C   -0.62559738995501     -0.42159569407436      0.75145738486745
  F   1.22343361435960      0.66207633047580      1.62617352807877
  H   -0.34344469063281     -1.24371936889812      1.40426222857982
  H   -1.35597069989718      0.23618726051592      1.22399358017897
  C   1.57812800136421     -0.40959519399411     -0.37273760635139
  N   2.32041365903674     -1.03378513932363     -1.03589013826033
  N   0.26077486593722      1.63989319136069     -0.19474883856621
  H   1.05360862884383      2.09175515957952     -0.63098862744212
  H   -0.49229127541583      1.52272618283466     -0.86067779130961
  N   -1.25198181630342     -1.00820218306379     -0.46608379968100
  O   -1.27239488624908     -2.23053748360408     -0.56150328796600
  O   -1.70527607010879     -0.21283565191770     -1.29044210363000
