12
Coordinates from ORCA-job run
  C   -0.37749715510285      0.03305682493412      0.21389371616744
  C   0.87218877191520     -0.06851754932649     -0.34382307762144
  N   -1.26067429672248      1.17845403673152     -0.10876114467599
  O   -0.74651720717896      2.16781761281499     -0.61697077971121
  O   -2.45094498887360      1.03290057361250      0.16685269041820
  N   -0.92419382049376     -0.81118794730086      1.10493522204322
  H   -1.92217650288559     -0.74508489737261      1.23609883316679
  H   -0.48031470133202     -1.70318157148931      1.26392996619082
  C   1.46722178376589      0.84452568004738     -1.25828128583196
  N   2.04757977854652      1.52306621819015     -2.02630127257628
  C   1.61730371633421     -1.23150074199974      0.01280753685952
  N   2.15802462202743     -2.22034823884165      0.35561959557089
