12
Coordinates from ORCA-job run
  C   -0.40240822936463     -0.01459130978707      0.16728188435887
  C   0.83059731478767     -0.07500541547515     -0.43202996899260
  N   -1.25943763866466      1.18493450494458      0.01708408558726
  O   -0.98849153625488      1.96848671469349     -0.88522664112883
  O   -2.18284691248659      1.28960658766976      0.82349469619224
  N   -0.98636610114180     -0.98519499496783      0.89039944516119
  H   -0.42414367655868     -1.76575098797770      1.19467753040117
  H   -1.77162135437986     -0.71055915720639      1.46098718341150
  C   1.43624791713029      0.93733601658348     -1.22707983258496
  N   2.03523761233310      1.70980172879493     -1.88387949747396
  C   1.57963578901294     -1.26491525591540     -0.19038533043019
  N   2.13359681558709     -2.27314843135670      0.06367644549831
