12
Coordinates from ORCA-job run
  C   -0.38451611429319      0.01645673850444      0.20042328234497
  C   0.88272940953821     -0.03749294943007     -0.32420557575163
  N   -1.29181841081940      1.14384485325817     -0.11972200945196
  O   -2.47974106567664      0.97062311106953      0.15067692551664
  O   -0.79853414830670      2.14706239026805     -0.62125377495721
  N   -0.92949177195157     -0.86317599214043      1.05751652285522
  H   -1.93144324834590     -0.82465823577252      1.16798173772915
  H   -0.46554514222547     -1.74639263362508      1.20734890366336
  C   1.47902173625485      0.91319556675876     -1.19833584894480
  N   2.06024609625011      1.62752379323723     -1.93232849716096
  C   1.65122511376384     -1.18485140901769      0.03359030849540
  N   2.20986754581184     -2.16313523311038      0.37830802566184
