12
Coordinates from ORCA-job run
  C   -0.39170762963656      0.04551143777885      0.18399934053212
  C   0.86719897116418      0.02510909937639     -0.36149623825017
  N   -1.58635175365402     -0.19285128308574     -0.65892176520348
  O   -1.45798821721051     -0.07938894613552     -1.87234237677709
  O   -2.61854461594716     -0.48641145045430     -0.05698611768952
  N   -0.70244455076643      0.31363828431741      1.46388155688591
  H   -1.62813613502267      0.04996145167137      1.76630067454885
  H   0.03710997166236      0.32008681669679      2.15039774332033
  C   1.94174870522399      0.23883894151756      0.55229939151444
  N   2.76660705314027      0.42105742086452      1.37336261495577
  C   1.19490133872543     -0.22294275187227     -1.72320951600925
  N   1.57760686232113     -0.43160902067506     -2.81728530782791
