12
Coordinates from ORCA-job run
  C   -0.37275139467038      0.01071034959281      0.22173639973751
  C   0.86600830286876     -0.03105058262896     -0.36785593934424
  N   -1.26386711506741      1.18008325022853      0.03458464649829
  O   -0.76579516540789      2.21115944384074     -0.40144010261384
  O   -2.44420767259295      1.00974396556604      0.33736478315148
  N   -0.90119558232802     -0.92192267037928      1.03149480116664
  H   -1.89508093463694     -0.86878638713661      1.19463289217546
  H   -0.45238825103859     -1.82331450805160      1.09432504649903
  C   1.44520225281078      0.97109281579940     -1.19476854555976
  N   2.00942841091844      1.72823157089593     -1.89863419494184
  C   1.61621219493708     -1.22335436600654     -0.14333910306564
  N   2.15843495420712     -2.24259288172046      0.09089931629693
