12
Coordinates from ORCA-job run
  C   -0.35803609904976      0.05592861033414      0.24060146098290
  C   0.70898295737563     -0.22866104962302     -0.57384890711261
  N   -1.06770751155223      1.35227124799253      0.13401826267799
  O   -0.90038076419383      2.01039914855487     -0.88592750366913
  O   -1.77342456546678      1.65816160821856      1.09437405131252
  N   -0.90268025585751     -0.76224039099254      1.15749412815902
  H   -0.39301277082510     -1.58978134533614      1.42915516811544
  H   -1.50791973863533     -0.33245433460838      1.84073780260690
  C   1.26391213192825      0.62412841197900     -1.56816825504207
  N   1.81051924788699      1.25690513365775     -2.39747254544301
  C   1.33263881792922     -1.49352435592785     -0.35904922332515
  N   1.78710855046043     -2.55213268424893     -0.11291443926280
