12
Coordinates from ORCA-job run
  C   -0.35436143390866      0.03449215021484      0.25585138560872
  C   0.78598627191314     -0.11553095774508     -0.49692584119228
  N   -1.69855513059312     -0.10086253802551     -0.35572704898145
  O   -2.65497755035702      0.11954852983594      0.38671168053482
  O   -1.75469852894785     -0.40991582560286     -1.54045148294463
  N   -0.40215586676668      0.28089408235974      1.57150962523169
  H   0.44132019964627      0.48963524092708      2.08334839584275
  H   -1.29958061657000      0.45819898205757      1.99096121502237
  C   2.02043292521040      0.04719525512445      0.19940330795081
  N   3.00548691221532      0.18632865651853      0.82982776354543
  C   0.86108589926948     -0.38621721670219     -1.89079760748538
  N   1.04801691888876     -0.60376635896250     -3.03271139313283
