12
Coordinates from ORCA-job run
  C   -0.38322817732128      0.01445234878990      0.20428664455045
  C   0.87992281523534     -0.02895126356590     -0.33078777646936
  N   -1.30285152200505      1.13319362143054     -0.11030421876951
  O   -0.82212842154857      2.14320747844123     -0.60988867566347
  O   -2.48729449996459      0.94787693635757      0.16707101221222
  N   -0.91419948712855     -0.87053995308807      1.06357362720758
  H   -0.44098899300818     -1.74855033911575      1.21456159341737
  H   -1.91420302059729     -0.83496082607129      1.19010841570400
  C   1.46194434285622      0.92556205471602     -1.21045304165582
  N   2.03875306544600      1.64106802486160     -1.94689496425659
  C   1.65876370416466     -1.17232364076330      0.01678256476373
  N   2.22551019387129     -2.15003444199254      0.34994481895941
