12
Coordinates from ORCA-job run
  C   -0.40696787919538     -0.02001288515685      0.15168506352537
  C   0.84862001039961     -0.05377349538414     -0.40099122418753
  N   -1.24814996563137      1.19513629129335      0.04867355600650
  O   -2.19718670352306      1.25920135205211      0.82922401000824
  O   -0.94101920666934      2.02982427121597     -0.79436822181480
  N   -1.02811102078007     -1.03126850140071      0.78263390776871
  H   -0.48684796468475     -1.83909282773496      1.05160275736772
  H   -1.83070561922187     -0.78814284264380      1.34326659533239
  C   1.57633091030279     -1.26603497562906     -0.21194349790636
  N   2.10458169697017     -2.29875516048758     -0.00615943381027
  C   1.49104253708018      1.00215999033705     -1.10522716513961
  N   2.11841320495309      1.81175878353862     -1.68639634715037
