12
Coordinates from ORCA-job run
  C   -0.40251544592333      0.00096376459560      0.15150667171117
  C   0.92039293054312     -0.01181628281651     -0.21851015213326
  N   -1.27120232136429      1.15903595931017     -0.16522496136939
  O   -0.72642830418456      2.21359421434046     -0.47039264430790
  O   -2.48322945538292      0.96123171429280     -0.08042534294412
  N   -1.05009427000107     -0.95210727596580      0.84286410190349
  H   -2.05766466203546     -0.90603997899843      0.82511273404897
  H   -0.60577176514506     -1.84463471745858      0.99036321303076
  C   1.61020165101666      1.00504122223648     -0.93307309232590
  N   2.27479594279602      1.76768565218541     -1.53537530837751
  C   1.63602654226089     -1.19830425290632      0.12070900839194
  N   2.15548915742001     -2.19465001881528      0.47344577237175
