12
Coordinates from ORCA-job run
  C   -0.37667872374004      0.02651198331500      0.21618355424837
  C   0.86920548569423     -0.06466746231874     -0.35178528530505
  N   -1.23152316245842      1.21357486678005     -0.01842471458896
  O   -2.42578688338726      1.07491500608544      0.24311085212040
  O   -0.69285589077448      2.22686742084079     -0.44804769250147
  N   -0.94241640728355     -0.86740930449336      1.04520141214083
  H   -1.93925982942680     -0.79077085016010      1.17957797720684
  H   -0.51873368288666     -1.77849869286323      1.13638736412666
  C   1.48794042303101      0.90090844180116     -1.19345419942113
  N   2.08517813052287      1.62272903058704     -1.90705563125797
  C   1.58535483495700     -1.26922898236963     -0.08481852200073
  N   2.10157570575211     -2.29393145720440      0.18212488523220
