12
Coordinates from ORCA-job run
  C   -0.40695415692578     -0.00546299604405      0.15361434528053
  C   0.84488003724169     -0.09381773659983     -0.40151004545052
  N   -1.23934112411706      1.20426556813470     -0.04299082416311
  O   -2.18169388021426      1.33999681316044      0.73651948161057
  O   -0.93169424899705      1.96491815766068     -0.95315061445926
  N   -1.03109536089240     -0.95659430899174      0.86936925198881
  H   -0.49346879791442     -1.74424821369222      1.19915622332540
  H   -1.82561977299266     -0.65976265722789      1.41577489307116
  C   1.56690211279029     -1.29003983628450     -0.11423867871825
  N   2.09019295255272     -2.30467089642736      0.17639513935343
  C   1.48992576916057      0.89555574735037     -1.19461056115880
  N   2.11796647030837      1.64986035896140     -1.84532861067997
