12
Coordinates from ORCA-job run
  C   -0.40011979837590      0.00000871479902      0.16959804185648
  C   0.83268582844546     -0.11459020529752     -0.42236357719195
  N   -1.28411497923776      1.14953310305393     -0.13679600960523
  O   -2.20082848345154      1.34844568119024      0.65933306479543
  O   -1.03812631000636      1.80380510728318     -1.14311540167763
  N   -0.96155949288949     -0.87644437036422      1.01972962203637
  H   -0.38383555946693     -1.60014512179161      1.42033114356479
  H   -1.74824657380472     -0.54574042750039      1.55785181020367
  C   1.60705982056916     -1.24492672736170     -0.02565117717584
  N   2.17649163951335     -2.19972265130704      0.36383914752312
  C   1.41166673032237      0.79283025247551     -1.35273193305719
  N   1.98892717838237      1.48594664482062     -2.11002473127201
