12
Coordinates from ORCA-job run
  C   -0.40874992855981     -0.01560309783894      0.14610581315424
  C   0.85040342287936     -0.07443670009626     -0.39580387885109
  N   -1.24653131743457      1.19506777921851     -0.01568380040758
  O   -2.18496681991844      1.30785632355690      0.77203957365429
  O   -0.94746293553704      1.97825866713200     -0.90951065558250
  N   -1.03617732280436     -0.99738157366050      0.81674833234289
  H   -1.83677265946823     -0.72424776071744      1.36663669599479
  H   -0.49636189186365     -1.79023947962924      1.12970328131219
  C   1.57697703716063     -1.27657246066891     -0.14663365125285
  N   2.10281670632013     -2.29886159180115      0.11070110187883
  C   1.49924932081160      0.95323468046328     -1.13523457718906
  N   2.12957638841437      1.74292521404174     -1.74006823505416
