12
Coordinates from ORCA-job run
  C   -0.34397667662119      0.10212229083636      0.24415982727767
  C   0.78649354984337     -0.12832911718593     -0.50119042073597
  N   -1.68338651487393      0.13782159137114     -0.39156287722302
  O   -2.64310429160548      0.17723405017444      0.37787557887964
  O   -1.73442053790117      0.12334961157519     -1.61564316782528
  N   -0.38516590431988      0.36125411467421      1.56096826602088
  H   0.44309411768007      0.20860957567261      2.11605994703264
  H   -1.28581571319179      0.31256008320954      2.01193404506989
  C   0.84956676055027     -0.36500036471218     -1.90268672317435
  N   1.02030810079995     -0.57426111628095     -3.04913205186711
  C   2.00898998600993     -0.16696513972000      0.23302332604221
  N   2.96841712362986     -0.18739557961443      0.91619425050278
