12
Coordinates from ORCA-job run
  C   -0.40460699370145     -0.01652170814126      0.15761836502925
  C   0.84376718511968     -0.06115536907837     -0.41083341872766
  N   -1.24227037732232      1.20145297476413      0.05375779188226
  O   -0.93447320970238      2.03359877067035     -0.79132290701710
  O   -2.18806214474628      1.27096087707825      0.83773662365739
  N   -1.02105908236654     -1.01862044513107      0.80679588645189
  H   -1.81928921055593     -0.76876190837026      1.37066367419765
  H   -0.48159014281050     -1.82777038817403      1.07541530118337
  C   1.56872914123195     -1.27462216611253     -0.21940872413379
  N   2.09512245411741     -2.30761738406037     -0.01027271785911
  C   1.48131167211154      0.98440005892804     -1.13477388986054
  N   2.10342070862482      1.78465668762713     -1.73437598480361
