12
Coordinates from ORCA-job run
  C   -0.37930983204487      0.01464656591225      0.20906704066698
  C   0.87568394814974     -0.04491474989484     -0.33895984043842
  N   -1.27080391055535      1.15944788307713     -0.07422839835724
  O   -0.74344374742766      2.23250856104625     -0.35078625047036
  O   -2.47709741445148      0.93244157244717      0.01146145547946
  N   -0.92251014146181     -0.86956313017109      1.06351652559608
  H   -0.44632116164175     -1.74406045767310      1.22488392317217
  H   -1.92715599786706     -0.85823215994876      1.15727261833411
  C   1.44802358922225      0.91713911437609     -1.21733452145929
  N   1.98287147354126      1.64101805385477     -1.97809939284844
  C   1.64516091816723     -1.20344125756777     -0.02396620034775
  N   2.21490227636949     -2.17798999545810      0.31717304067270
