12
Coordinates from ORCA-job run
  C   -0.39268141515105      0.01737592334820      0.18578200335157
  C   0.80139305583964     -0.13955185375036     -0.47200245232293
  N   -1.15591940631028      1.28257345438591      0.08001837476765
  O   -2.02071559148432      1.46133350575053      0.93681004657613
  O   -0.87374722910551      2.04209029747301     -0.83939612437530
  N   -1.01862147562065     -0.90767078380835      0.93313318649339
  H   -1.74859081614252     -0.57526947124782      1.54487605505382
  H   -0.51003104182731     -1.73536545944922      1.20556672425237
  C   1.44851172447202      0.82715889055923     -1.29087555170105
  N   2.07523007417034      1.55787658540137     -1.96912252805316
  C   1.46038981354929     -1.38841816740434     -0.26996930463439
  N   1.93578230761034     -2.44213292125818     -0.04282042940811
