12
Coordinates from ORCA-job run
  C   -0.41239183881720     -0.00954079330110      0.13606477897079
  C   0.85343813147880     -0.08898841024876     -0.38821669927087
  N   -1.24420805870979      1.19927464446303     -0.07197423693247
  O   -2.21479074707685      1.31874585248621      0.67451806419797
  O   -0.90523698720651      1.97785825157312     -0.95554676429583
  N   -1.04771641536399     -0.96630348355753      0.83232189992360
  H   -1.86359832087809     -0.68596016454452      1.35383861202465
  H   -0.52019252154750     -1.76123978582606      1.16103122964157
  C   1.51939344902993      0.91094941357763     -1.14879380361623
  N   2.16813098194001      1.67091503480310     -1.77257259920201
  C   1.57552208694771     -1.27904372656014     -0.07526971676167
  N   2.09165024020348     -2.28566683286499      0.25459923532050
