12
Coordinates from ORCA-job run
  C   -0.42000030507583     -0.02807524262441      0.11747635232901
  C   0.87451633369871     -0.06310292449064     -0.33775165683683
  N   -1.29522335051674      1.12825813402452     -0.18002384284585
  O   -0.97118083357786      1.86398274050433     -1.10506455106379
  O   -2.29101149821477      1.24664465130237      0.53366548930793
  N   -1.04867639668276     -0.99116071652328      0.81330060553178
  H   -1.89508740825171     -0.71881207545739      1.28953826881105
  H   -0.50125911526124     -1.73901544093054      1.21262642158304
  C   1.64187829950536     -1.20080307118472      0.05461882442127
  N   2.21545220524330     -2.16014352905814      0.42555814999988
  C   1.52729343437270      0.94286840278051     -1.10297373777078
  N   2.16129863476086      1.71835907165739     -1.72197032346670
