12
Coordinates from ORCA-job run
  C   -0.36581184463240      0.04900070368143      0.22783671560551
  C   0.78775315012707     -0.15875616234279     -0.48916797559034
  N   -1.13960832231990      1.30648076904396      0.08133509836248
  O   -0.76860030903499      2.10816251297067     -0.76780519604578
  O   -2.10045481378911      1.43913188463614      0.83825457598299
  N   -0.93200013003662     -0.81496118947895      1.08091806949236
  H   -1.71950060715689     -0.49509487826357      1.62301990525186
  H   -0.45280579077728     -1.66455223021443      1.33419350063255
  C   1.37816049265319      0.72410869447816     -1.43512807951098
  N   1.95361047238738      1.36353916504787     -2.23954437415996
  C   1.44152622700049     -1.40507107564220     -0.25533948000470
  N   1.91773147557907     -2.45198819391627      0.00042723998401
