12
Coordinates from ORCA-job run
  C   -0.40159103127178     -0.00577196522974      0.16583461539758
  C   0.83242905206007     -0.08709993465055     -0.42929688736063
  N   -1.21897339989013      1.22455206429102      0.05186512489795
  O   -0.92265497974169      2.02523613249987     -0.82730060672460
  O   -2.13972068235905      1.33442151888910      0.86073691406797
  N   -1.02125202334034     -0.98100656487107      0.85216921801071
  H   -1.79891831612382     -0.70246303780318      1.43106189913376
  H   -0.48891429038807     -1.79234208824877      1.12810107775025
  C   1.54005323497636     -1.30845619697247     -0.22318779317954
  N   2.05374033161808     -2.34428883718301      0.00264340162513
  C   1.47190824408174      0.93015180844802     -1.19083808862396
  N   2.09389386037864      1.70606710083078     -1.82178887499464
