12
Coordinates from ORCA-job run
  C   -0.40747208837086     -0.00518726819670      0.15286841392479
  C   0.84935911277330     -0.09169054201697     -0.38986652714459
  N   -1.23884504271455      1.20350266613274     -0.05240395951382
  O   -0.93699819015100      1.95125876211573     -0.97520464736389
  O   -2.17562702659828      1.35014966609708      0.73164353766606
  N   -1.03983258537186     -0.95851189228518      0.85952722710923
  H   -0.50398153072750     -1.74226756002015      1.20142869494859
  H   -1.83698679010276     -0.66025150364961      1.40161485698646
  C   1.56836647487669     -1.29115575526502     -0.10786549066251
  N   2.08777309595479     -2.31062125338390      0.17191860377917
  C   1.50032643051153      0.90049840237439     -1.17450852360137
  N   2.13391813992051      1.65627627809757     -1.81815218612812
