12
Coordinates from ORCA-job run
  C   -0.40380563860482     -0.00833465634456      0.16216008720697
  C   0.83561033515487     -0.08660400308266     -0.42162722357167
  N   -1.23752405266824      1.20672480762569      0.00961484735223
  O   -0.94773217163890      1.98592508823451     -0.89062639985474
  O   -2.16259133884592      1.32727118316888      0.81195262487266
  N   -1.01408516485592     -0.97381583966933      0.87009083755598
  H   -1.80027136667862     -0.69029119944076      1.43522947391093
  H   -0.47161763506309     -1.76886806371725      1.17291965521718
  C   1.55921375502968     -1.29221500251618     -0.18117814787737
  N   2.08562649688753     -2.31531677185367      0.07178947386662
  C   1.46921723140148      0.92226612945188     -1.19960212381101
  N   2.08795954988194      1.69225832814344     -1.84072310486780
