12
Coordinates from ORCA-job run
  C   -0.39963225920770     -0.00281254035032      0.17279811836030
  C   0.82756608858389     -0.11207340317637     -0.43115624440868
  N   -1.28375714680659      1.15185442072732     -0.11390717354664
  O   -1.04942290272521      1.81220581803010     -1.11901377600257
  O   -2.18996996381443      1.34745662002142      0.69503202125197
  N   -0.95495122849013     -0.88670784498399      1.01943300688523
  H   -1.73294303438581     -0.55380872443591      1.56864436345929
  H   -0.37146844919523     -1.60992359360932      1.41278910780881
  C   1.39965617865331      0.80494360149684     -1.35599179889716
  N   1.96949009265402      1.50281748561342     -2.11429667327375
  C   1.60586126007143     -1.24646657009676     -0.05324529226976
  N   2.17957136466246     -2.20648526923644      0.31691434063298
