12
Coordinates from ORCA-job run
  C   -0.41176606502462     -0.01708087244665      0.13841112262762
  C   0.86424080055130     -0.07230728706818     -0.36381103272391
  N   -1.29353790222022      1.13698463836121     -0.15578515577108
  O   -0.98160078367756      1.86885141867126     -1.08793267484987
  O   -2.27599427020119      1.26178496019290      0.57458677981257
  N   -1.01826720359113     -0.96016454535977      0.87979317058593
  H   -0.45479989445723     -1.69520872349728      1.28031036649892
  H   -1.85006836850145     -0.67590291978520      1.37471536849965
  C   1.49595920322438      0.90777713258471     -1.17869579177631
  N   2.11686890646521      1.65892481058830     -1.84002991235497
  C   1.62634361153629     -1.21889218282289      0.00849387945050
  N   2.18262196589624     -2.19276642941842      0.36894388000094
