12
Coordinates from ORCA-job run
  C   -0.37455672234543      0.02263865255121      0.21762084855124
  C   0.86866761402745     -0.06483629929229     -0.35663494621615
  N   -1.20671075405839      1.23547050212578      0.04112238031033
  O   -2.40605531281999      1.10343570588218      0.28186914112555
  O   -0.64540518426548      2.26235372649237     -0.32261773417738
  N   -0.95705858315401     -0.89827603151459      1.00430067203395
  H   -0.55251359624994     -1.82147574782834      1.05027485572176
  H   -1.95254224684700     -0.80909949526370      1.14135205075318
  C   1.56393202472149     -1.29201010194285     -0.14302926337578
  N   2.05997427791860     -2.33571896973687      0.08555861898872
  C   1.50042761586051      0.92736458047058     -1.15686727953852
  N   2.10284086721218      1.67115347805653     -1.84294934417689
