12
Coordinates from ORCA-job run
  C   -0.37736329470708      0.01031535325985      0.20694448125551
  C   0.80068595228645     -0.17987313282315     -0.46004232698472
  N   -1.16087535803135      1.24683631630148     -0.01528627934875
  O   -1.60690246731852      1.78249652555646      0.99565243541750
  O   -1.31789912434306      1.60209269422795     -1.17907959108136
  N   -1.00351600732021     -0.84441372600279      1.03942240666316
  H   -0.48138810876130     -1.64442183156961      1.36525524150150
  H   -1.59835023045813     -0.41286164431044      1.73159375769061
  C   1.52710715348031     -1.37119473869407     -0.17059425339446
  N   2.07310806318942     -2.37661464519326      0.11156760990558
  C   1.33261953271684      0.73637531591218     -1.41193026149849
  N   1.81077388926661      1.45226351333539     -2.21350322012607
