12
Coordinates from ORCA-job run
  C   -0.40228323922402     -0.00427159079697      0.16606182558437
  C   0.82910522730853     -0.09492088877579     -0.43288818586035
  N   -1.22209822515415      1.22213233270547      0.03089311976095
  O   -0.93221207768614      2.00397720928516     -0.86712833338853
  O   -2.13797421732460      1.34813824193156      0.84281586564889
  N   -1.01671922274813     -0.96621942560613      0.87501492139294
  H   -1.79383817737524     -0.67797367146150      1.44985891782246
  H   -0.48025203980897     -1.76964044184741      1.16616258984378
  C   1.53959588368884     -1.31125328272509     -0.20776122986271
  N   2.05526270675882     -2.34261092097514      0.03368141767813
  C   1.46846925563463      0.91236820258783     -1.20823178789463
  N   2.09294412593044      1.67927423567800     -1.84747912072530
