12
Coordinates from ORCA-job run
  C   -0.42152722945175      0.05835438037128      0.09882454318826
  C   0.88768027550691     -0.23489888588579     -0.18941062273639
  N   -0.75932404371244      1.09722533607484      1.09731767600261
  O   0.10530600550621      1.41827844128807      1.90411171965573
  O   -1.90025451544455      1.55409584800721      1.02763221903176
  N   -1.50503015497057     -0.54346664779233     -0.41911470532879
  H   -2.39169408568351     -0.07760962889321     -0.30205648471294
  H   -1.38969367419517     -1.16986804880112     -1.20157144950975
  C   1.10098471821328     -1.22392036499153     -1.19408060625929
  N   1.18812707458967     -2.03554824841649     -2.04396435038181
  C   2.03548066466508      0.36154750446596      0.40445386472628
  N   3.04894496497685      0.79581031457313      0.81885819632433
