12
Coordinates from ORCA-job run
  C   -0.38001096027537      0.00703775011274      0.20688906410344
  C   0.88502979096055     -0.01081330738718     -0.32529324299888
  N   -1.30421156168470      1.13077908948758     -0.07215534262582
  O   -2.49404611518766      0.91744991381841      0.15776053742815
  O   -0.82113371188893      2.17063750407995     -0.50469824350389
  N   -0.90897216023430     -0.90908034593039      1.03591507411693
  H   -0.43083681596325     -1.78998902441453      1.15190642741832
  H   -1.91193101869928     -0.89426745109057      1.14354839873781
  C   1.45756852618918      0.97479411632827     -1.17644397603946
  N   2.01901291961846      1.71901103289101     -1.89597612494611
  C   1.66697866814836     -1.16275196483734     -0.01427317473902
  N   2.22355243901695     -2.15480731305795      0.29182060304850
