12
Coordinates from ORCA-job run
  C   -0.36872847637421      0.03583685022830      0.22638275353332
  C   0.85855009856950     -0.09139200775319     -0.37392647742021
  N   -1.18705295378798      1.25436351933089      0.02631299338336
  O   -0.62025848827955      2.25877322619350     -0.38815729344397
  O   -2.38188936397260      1.14965993817892      0.30084325095323
  N   -0.94508762321365     -0.84707141148758      1.05995142313288
  H   -1.93581049670035     -0.73826940649257      1.21606039977150
  H   -0.55254302501772     -1.77412261904862      1.12841852229419
  C   1.54068113838427     -1.32118386847977     -0.13498652313581
  N   2.02844628012376     -2.36464377648757      0.11219248290919
  C   1.48486319174162      0.86211263503596     -1.22394796793382
  N   2.07982971852690      1.57493692078173     -1.94814356404386
