12
Coordinates from ORCA-job run
  C   -0.37274265842732      0.01460788743235      0.22418498603946
  C   0.86324330562675     -0.05653383368210     -0.36723234132245
  N   -1.18742681658890      1.24749747910346      0.12738107243445
  O   -2.38975262762723      1.11532649764927      0.35286681176558
  O   -0.61081197231084      2.28897936277965     -0.16373156230850
  N   -0.96176405238914     -0.94245263957523      0.96199718184375
  H   -1.95600252459566     -0.85056818658171      1.10665271383634
  H   -0.56905236286888     -1.87183340015049      0.94894700802453
  C   1.54411341329508     -1.30335333691442     -0.23711542617112
  N   2.03154460109282     -2.36503721234898     -0.08512667602063
  C   1.50172287524908      0.97364968773133     -1.11251998843216
  N   2.10892881954426      1.75071769455687     -1.75630377968925
