12
Coordinates from ORCA-job run
  C   -0.37998117283466      0.02093357290591      0.21044719232832
  C   0.87712535254688     -0.05401546652271     -0.33499686575846
  N   -1.23303217910776      1.21155743199229     -0.01249933752365
  O   -2.43137619037166      1.06571280675087      0.22590433004725
  O   -0.68907136063781      2.23477944005837     -0.41101441250126
  N   -0.96007156209267     -0.89443614018963      1.00506761583145
  H   -1.95867665753160     -0.81970195727470      1.12671511628376
  H   -0.53715067180501     -1.80720008257192      1.08224687559026
  C   1.59172553792975     -1.26212074555932     -0.08048133189275
  N   2.10387595307204     -2.29205294219950      0.17367246633750
  C   1.50650564504185      0.93008628377809     -1.14690784175796
  N   2.11112730579066      1.66745779883228     -1.83815380698445
