12
Coordinates from ORCA-job run
  C   -0.38548040838904      0.00455246448408      0.19350282405060
  C   0.93720838886813     -0.01021186520723     -0.15247338181984
  N   -1.23006210913711      1.16544842294638     -0.16697419220941
  O   -0.69363085192621      2.26822372299390     -0.20962411208364
  O   -2.40314122107788      0.91010109039617     -0.43120398810164
  N   -1.06139661058554     -0.94554119401905      0.87025338892225
  H   -2.06301000841806     -0.94653207927927      0.73749299070931
  H   -0.62983867946175     -1.85254850382472      0.95162980602895
  C   1.58630561202038      1.01564513484319     -0.89624954070527
  N   2.13875507956751      1.79453892866563     -1.58766717753961
  C   1.66512893035310     -1.18515728736067      0.19780920541618
  N   2.13916187818648     -2.21951883463841      0.49450417733213
