12
Coordinates from ORCA-job run
  C   -0.37797403908171      0.01508586179940      0.21518444276969
  C   0.87374626013427     -0.05343582820220     -0.34304021777041
  N   -1.19408193905784      1.24633890803962      0.09670913793441
  O   -0.61957004962106      2.28198442238779     -0.21771703198564
  O   -2.39566039652321      1.11810444950548      0.32869368301040
  N   -0.98356635795021     -0.94393641666874      0.93567901764906
  H   -0.58969201749476     -1.87283598358063      0.93455436551761
  H   -1.97893277026730     -0.84869914823652      1.06859863478760
  C   1.55103822168203     -1.30019050658264     -0.19641064771789
  N   2.03431167430703     -2.36243555792392     -0.03488145781296
  C   1.52937623236525      0.97400602876943     -1.07686270118865
  N   2.15100518150750      1.74701377069294     -1.71150722519323
