12
Coordinates from ORCA-job run
  C   -0.39438796040024      0.01812882620510      0.18317844887778
  C   0.89705354322952     -0.04017875545994     -0.27677583694763
  N   -1.28360116716096      1.14072413562652     -0.19650832391542
  O   -2.48756623213913      0.95369688919342     -0.02521714215182
  O   -0.76051886885162      2.15447378857475     -0.64405814524541
  N   -0.98239156598657     -0.85098614780410      1.02306824295704
  H   -0.52663613226487     -1.73278794303588      1.20372087047670
  H   -1.98950176292571     -0.81857153671058      1.07205288668058
  C   1.65073239521203     -1.18030604768881      0.13213576766754
  N   2.19869374711042     -2.15030317741264      0.51482472225748
  C   1.53169123587792      0.90023077655744     -1.13525554166522
  N   2.14643276829920      1.60387919195470     -1.85216594899162
