12
Coordinates from ORCA-job run
  C   -0.37988518044365      0.01714101435921      0.21052529702469
  C   0.77472405441265     -0.14799548696973     -0.51253067188456
  N   -1.21115001761207      1.23224068453433      0.04411849674736
  O   -2.02671994763389      1.45160847669647      0.93897987536691
  O   -1.02719754516256      1.91468339681828     -0.95690303024222
  N   -0.90777057660068     -0.85958308002694      1.08137720825794
  H   -1.61288527705285     -0.50381475840591      1.70893174581578
  H   -0.34202753088622     -1.63530113210294      1.39156270084492
  C   1.50851802064602     -1.34128772836456     -0.24346324219012
  N   2.04966434107013     -2.34735990110561      0.04432762725391
  C   1.31647432184544      0.76445151268474     -1.46007281715846
  N   1.85825533741768      1.45321700188266     -2.24685318983614
