12
Coordinates from ORCA-job run
  C   -0.38587121092031      0.00774020873111      0.19947517113393
  C   0.79154241590995     -0.13845428390273     -0.48857653608819
  N   -1.23471413176452      1.20448975125800     -0.00308742492072
  O   -2.03468218561405      1.45323425041816      0.89798246817418
  O   -1.08173953078184      1.84120736291493     -1.03909678758614
  N   -0.92687601080015     -0.87432414646610      1.05923803784646
  H   -0.34572379629458     -1.62464842490326      1.40181696886466
  H   -1.63684403636482     -0.51334791605937      1.67887168103179
  C   1.54064302018500     -1.31719542327767     -0.19819705851134
  N   2.08888502051956     -2.31571299969137      0.10208383623392
  C   1.33946735499999      0.78536363278355     -1.42194705763498
  N   1.88591309092576      1.49164798819476     -2.18956329854356
