12
Coordinates from ORCA-job run
  C   -0.41223747021632     -0.00599880713886      0.14390169838585
  C   0.88714431691625     -0.16891740289550     -0.26122224281943
  N   -0.75545676301907      0.99112433564381      1.18607393400542
  O   0.11364698179114      1.29990617788520      1.99155400342863
  O   -1.90370384802770      1.43297120880862      1.13724777585821
  N   -1.48795929716636     -0.70204812728750     -0.27913110009712
  H   -2.37437412514850     -0.23228374724159     -0.15523950592802
  H   -1.37726906402114     -1.26085709909315     -1.11209694212376
  C   1.10336636766791     -1.11277321757375     -1.30735866707066
  N   1.20767231289804     -1.89309752115811     -2.18371863464233
  C   2.01299462683848      0.54298438318769      0.24676781749368
  N   2.98617596148726      1.10798981686313      0.59422186350953
