12
Coordinates from ORCA-job run
  C   -0.37948348471584      0.01895305347422      0.20990374359059
  C   0.87422148403556     -0.05516470830145     -0.34326670355091
  N   -1.23168683873813      1.21311417797286      0.00006761921426
  O   -2.42811423917302      1.06952423881320      0.24868727284479
  O   -0.68814068488329      2.23700201036232     -0.39712459710929
  N   -0.95547123070320     -0.89813490386334      1.00548281308467
  H   -0.53549098517259     -1.81299585277360      1.07403459487600
  H   -1.95313244651576     -0.82126893532818      1.13388009595716
  C   1.58987018626179     -1.26362903086461     -0.09403316268304
  N   2.10575348908032     -2.29181229192815      0.16017014094422
  C   1.50019442462144      0.93198811968933     -1.15408455227723
  N   2.10148032590272      1.67342412274740     -1.84371726489121
