12
Coordinates from ORCA-job run
  C   -0.40332846570670     -0.00075448269114      0.16418215407424
  C   0.91273018401192      0.00047299732732     -0.22367414090559
  N   -1.30227497093298      1.11874290626833     -0.20313805499555
  O   -2.50784730605711      0.89137251693174     -0.11022584497436
  O   -0.78458715293234      2.16986976157389     -0.56156657829592
  N   -1.01229971443718     -0.93091422628976      0.91928775439789
  H   -2.02111141828269     -0.92733379374210      0.91139389024627
  H   -0.54185967624751     -1.80945321439085      1.07725092253107
  C   1.67307501068510     -1.14519712670742      0.15577918467899
  N   2.22431274599143     -2.12679969348148      0.50305244642514
  C   1.56595606797162      1.00240816080123     -0.99400657234900
  N   2.19723469593645      1.75958619440025     -1.63833516083317
