16

C	-0.198345	-0.096383	-1.514195
C	0.0	0.0	0.0
Cl	-1.876486	-0.525014	-1.96363
H	1.094166	0.0	0.0
N	0.094239	1.287683	-2.112265
O	-0.779428	2.142516	-2.007218
O	1.209613	1.45213	-2.590049
N	0.714636	-1.025607	-2.091132
H	1.619009	-0.797036	-1.646684
H	0.438416	-1.926318	-1.712011
N	-0.34127	-1.289087	0.595239
H	0.381553	-1.502481	1.269251
H	-1.238812	-1.267294	1.058246
C	-0.611693	1.133358	0.667847
N	-1.122066	1.987139	1.294948
F	2.563316	0.0	0.0
