16

C	-0.137944	-0.084271	-1.513533
C	0.0	0.0	0.0
Cl	-1.77601	-0.743458	-2.092659
H	1.106344	0.0	0.0
H	-0.170697	0.935727	-1.916048
N	0.923425	-0.912469	-2.002711
H	1.102187	-0.726018	-2.981132
H	1.76383	-0.691283	-1.43258
C	-0.521585	-1.21938	0.72232
H	-0.127683	-1.241039	1.744512
H	-0.188144	-2.122692	0.207168
H	-1.617624	-1.223087	0.758623
N	-0.581526	1.249732	0.509914
H	0.18315	1.915063	0.587595
H	-0.90862	1.090672	1.45818
F	2.760131	0.0	0.0
