16

C	-0.12981	0.354184	-1.488476
C	0.0	0.0	0.0
Cl	-0.898959	-1.361535	-2.611812
H	1.095108	0.0	0.0
H	-0.985161	0.945895	-1.79867
N	1.07283	0.732181	-1.940267
H	1.167166	1.121462	-2.861299
H	1.920628	0.437776	-1.381787
C	-0.632005	-1.27925	0.483244
H	-0.229548	-2.135745	-0.053218
H	-0.412576	-1.400483	1.550537
H	-1.717446	-1.271504	0.33735
N	-0.496254	1.190155	0.728031
H	-0.966938	0.880068	1.569882
H	0.326109	1.702825	1.027617
F	2.788571	0.0	0.0
