16

C	-0.16685	0.143727	-1.518466
C	0.0	0.0	0.0
Cl	-0.332548	-1.574673	-2.357978
H	1.105171	0.0	0.0
H	-1.115674	0.591507	-1.823338
N	0.953825	0.858686	-1.958446
H	1.814532	0.553248	-1.454596
H	1.055283	0.915756	-2.959976
C	-0.66094	-1.180541	0.663325
H	-0.209683	-2.115636	0.335364
H	-1.735293	-1.20661	0.452757
H	-0.527591	-1.104396	1.748014
N	-0.539857	1.261905	0.567701
H	-0.023452	2.003444	0.09995
H	-0.213614	1.294569	1.531772
F	2.788368	0.0	0.0
