16

C	-0.124122	0.159572	-1.532767
C	0.0	0.0	0.0
Cl	-0.393748	-1.58342	-2.41484
H	1.098641	0.0	0.0
H	-1.048132	0.632779	-1.882098
N	1.027943	0.796859	-1.962917
H	1.875862	0.490045	-1.428731
H	1.136513	0.883736	-2.961345
C	-0.657944	-1.201405	0.630032
H	-0.212036	-2.127796	0.271893
H	-0.521664	-1.13234	1.711482
H	-1.734561	-1.238383	0.417426
N	-0.443564	1.238583	0.651821
H	-1.365008	1.501496	0.308909
H	0.201193	1.967622	0.366476
F	2.776584	0.0	0.0
