16

C	-0.233898	0.255535	-1.503081
C	0.0	0.0	0.0
Cl	-0.666647	-1.302218	-2.413471
H	1.09656	0.0	0.0
H	-1.114311	0.880797	-1.664943
N	0.927242	0.848653	-2.096243
H	1.747629	0.580915	-1.524039
H	0.826031	1.854069	-2.048667
C	-0.624672	-1.222364	0.633681
H	-1.718624	-1.225099	0.528163
H	-0.379952	-1.231608	1.700698
H	-0.242121	-2.141989	0.19192
N	-0.384604	1.265546	0.654603
H	0.333872	1.481546	1.3357
H	-1.261174	1.149785	1.153197
F	2.741761	0.0	0.0
