16

C	-0.072701	-0.053009	-1.521763
C	0.0	0.0	0.0
Cl	-1.754341	-0.521537	-2.170814
H	1.100373	0.0	0.0
H	0.022456	0.969934	-1.909203
N	0.922768	-0.96836	-1.992013
H	1.138022	-0.785999	-2.964008
H	1.764073	-0.776132	-1.409488
C	-0.530704	-1.247758	0.671288
H	-0.162269	-2.136113	0.154456
H	-0.183108	-1.265773	1.706948
H	-1.62686	-1.270801	0.670035
N	-0.555814	1.205902	0.597636
H	0.063599	1.979719	0.385817
H	-1.460852	1.406929	0.181913
F	2.739428	0.0	0.0
