16
Coordinates from ORCA-job run
  C   0.49582380977021     -0.53195642101155      0.40437916675598
  C   -0.62485486816533     -0.00962864326030     -0.52046152248074
  Cl  0.33187484681420     -2.32259986272051      0.55846186388982
  H   -0.43172866056394     -0.46301542209957     -1.50523606747240
  C   0.33618243179398      0.05859479243868      1.73329375146019
  N   0.24888125487297      0.58611899114435      2.77902558887366
  C   1.87876916416984     -0.23103402794624     -0.15499703210067
  H   1.97852494615829     -0.69370718691544     -1.13919571791827
  H   1.99770107137985      0.84712509931850     -0.24919991528525
  H   2.64720858169901     -0.63723579252783      0.50357391431066
  N   -0.45404253760464      1.42123991581025     -0.65000061972323
  H   -0.91531819588307      1.87487504629875      0.13216108360333
  H   -0.86995493700368      1.75742109589865     -1.50860140485451
  N   -1.92281760161706     -0.33747202810992      0.04646321878479
  H   -2.04706765481699     -1.33907704728861      0.13161122837114
  H   -2.65018165100366      0.01835149097079     -0.56227753621450
