16
Coordinates from ORCA-job run
  C   0.39349344465207     -0.43504101191567      0.70252155569386
  C   -0.88393390932653      0.05551584941674     -0.03436178322034
  Cl  0.02272087338278     -2.01588580823718      1.46144408351350
  H   -1.71526982072672     -0.07368300915180      0.67250843889796
  C   0.70726037140265      0.50397777261960      1.78068971404838
  N   0.93571995637593      1.30190285398208      2.61275518804038
  C   1.57926786041168     -0.59283925191823     -0.23579247245609
  H   1.33572087599010     -1.35219900735239     -0.97848575895773
  H   1.77849393185319      0.36103733301226     -0.72700149054981
  H   2.46201737728382     -0.91013564909571      0.32005695249043
  N   -1.13041420303215     -0.79030834981261     -1.17449265685591
  H   -0.68505141009154     -0.39554108110998     -1.99360892517201
  H   -2.11852890459522     -0.90025420705980     -1.34970164873803
  N   -0.65844400782566      1.43823666415107     -0.44518229897237
  H   -0.55687339985241      2.05042603103892      0.35749393293420
  H   -1.46517903590201      1.75479087143270     -0.97084283069641
