16
Coordinates from ORCA-job run
  C   0.54977169508764     -0.44546418645725      0.38183006678863
  C   -0.64581062450404      0.30031339591362     -0.25961179609315
  Cl  0.66612152140434     -2.10344533947442     -0.29461507959752
  H   -0.57160494185725      1.32796754277636      0.13323674305591
  C   0.31172101067003     -0.56212724423746      1.82150440138053
  N   0.09772834295331     -0.59344902490981      2.97665849206390
  C   1.86038340553314      0.28303496331558      0.11906496337823
  H   1.99786029551342      0.36855875986294     -0.95739730227887
  H   2.69276062567977     -0.26549875235024      0.56068227581029
  H   1.82137722622880      1.28293686030788      0.55948791088270
  N   -1.89033675254507     -0.36858654070608      0.08365262799163
  H   -2.04384946359981     -0.38084317905608      1.08646167345501
  H   -2.66191339655207      0.13172369451095     -0.34117095488863
  N   -0.44427318186436      0.37920302932147     -1.68573732884490
  H   -0.74978048911351     -0.49181539831026     -2.10555784683347
  H   -0.98815527303433      1.13649141949279     -2.07848884627028
