16
Coordinates from ORCA-job run
  C   0.47615657648590     -0.49155276354562      0.44939295377840
  C   -0.67932308843246      0.35845767880259     -0.12594244409220
  Cl  0.26532944182609     -2.21240956915830     -0.01922878706479
  H   -0.56028106729056      1.34756423450472      0.34417924078387
  C   0.42389812720543     -0.41157736108427      1.90987839058789
  N   0.43912400520738     -0.29386367697624      3.07832085155848
  C   1.83432887336156     -0.02266268119844     -0.05526030023244
  H   2.63356506259356     -0.59304585016897      0.41825821703921
  H   1.97280566559051      1.03653540132322      0.18253758051810
  H   1.88597919893418     -0.17316033328079     -1.13351825197587
  N   -1.93275860128645     -0.17368063731969      0.33464921040332
  H   -2.68321434116475      0.49069321281434      0.19901394699754
  H   -2.15041031074948     -1.03276923591104     -0.15582969936469
  N   -0.55974214082661      0.40679511615449     -1.58058531598672
  H   -1.46128188707889      0.64226601972749     -1.97561770226886
  H   0.09782448562460      1.12141044531652     -1.87024789068123
