16
Coordinates from ORCA-job run
  C   0.50082738947213     -0.45345685384753      0.40994467913689
  C   -0.64008798060630      0.42350703146739     -0.14223443416350
  Cl  0.32752430561968     -2.12219736213262     -0.26926530978860
  H   -0.48624784711125      1.41049270315232      0.30983043562243
  C   0.37629741104153     -0.55471979836958      1.86420013683377
  N   0.35763248681392     -0.59632182105539      3.03779872788907
  C   1.87687120664693      0.07611932868951      0.03582970281328
  H   2.65442810599502     -0.56632887741478      0.45039924657505
  H   1.99519478999918      1.08349482163928      0.44398935288053
  H   1.96320576886394      0.12251397422015     -1.04754215567939
  N   -1.90448707399052     -0.07578530032009      0.36220681469879
  H   -2.64765922919480      0.58173053768271      0.16212974068043
  H   -2.13586159496787     -0.96205933812650     -0.07117615398561
  N   -0.45961173140489      0.58509950548729     -1.57663827868015
  H   -0.71058067725044     -0.27296814042497     -2.05497517093148
  H   -1.06844532992627      1.31987958935279     -1.91549733390151
