13

C	0.0	0.0	0.0
C	-0.546591	0.196375	-1.40401
F	1.372791	0.0	0.0
H	-1.660528	0.123952	-1.285263
H	-0.365828	0.841859	0.593262
C	-0.429266	-1.244345	0.66183
N	-0.58603	-2.215544	1.302349
N	-0.108812	-0.867004	-2.3694
O	0.230751	-1.949162	-1.904705
O	-0.178604	-0.58624	-3.562447
C	-0.160571	1.497692	-1.928856
N	0.150843	2.568144	-2.297923
Cl	-3.289146	0.0	0.0
