13

C	0.0	0.0	0.0
C	-0.530418	0.142519	-1.419121
F	1.370845	0.0	0.0
H	-1.641151	0.038506	-1.319585
H	-0.367507	0.863917	0.558658
C	-0.427259	-1.219073	0.709069
N	-0.545668	-2.166515	1.392556
N	-0.026118	-0.936619	-2.334481
O	0.131893	-0.643802	-3.517592
O	0.13976	-2.046432	-1.841887
C	-0.172479	1.442961	-1.966226
N	0.113727	2.5175	-2.344
Cl	-3.267189	0.0	0.0
