13

C	0.0	0.0	0.0
C	-0.410552	0.187409	-1.476919
F	1.373902	0.0	0.0
H	0.543862	0.281842	-2.013695
H	-0.374059	0.824948	0.59858
C	-0.404643	-1.300185	0.551655
N	-0.456478	-2.39529	0.975161
N	-1.049075	1.53392	-1.741136
O	-1.741128	1.632233	-2.741949
O	-0.685503	2.451581	-1.016572
C	-1.14285	-0.893477	-2.121308
N	-1.50961	-1.800671	-2.77189
Cl	-2.934973	0.0	0.0
