13

C	0.0	0.0	0.0
C	-0.42126	-0.103864	-1.482566
F	1.360353	0.0	0.0
H	0.531437	-0.114911	-2.031273
H	-0.380532	0.922133	0.430796
C	-0.407798	-1.170048	0.794775
N	-0.456379	-2.134561	1.463729
N	-1.059464	1.165717	-2.005789
O	-1.742415	1.065323	-3.012822
O	-0.705275	2.207291	-1.46824
C	-1.15227	-1.2914	-1.901629
N	-1.515116	-2.316434	-2.347248
Cl	-2.955963	0.0	0.0
