16

C	-0.520688	-0.04517	-1.433369
C	0.0	0.0	0.0
Br	-0.180289	1.861612	-2.110097
H	1.088458	0.0	0.0
H	-0.401651	0.850776	0.545868
C	0.285319	-0.951529	-2.339634
H	0.132131	-1.981761	-2.014446
H	-0.03966	-0.839878	-3.377739
H	1.345736	-0.709621	-2.25261
N	-1.90143	-0.359025	-1.459195
H	-2.441815	0.271665	-0.87956
H	-2.265921	-0.347898	-2.403256
N	-0.485694	-1.206271	0.727171
O	-1.331887	-1.029412	1.607831
O	-0.037422	-2.301358	0.398589
Cl	3.379312	0.0	0.0
