16

C	-0.332137	-0.097688	-1.487068
C	0.0	0.0	0.0
Br	-2.304736	-0.304564	-1.690744
H	1.092326	0.0	0.0
H	-0.39893	0.902558	0.45741
C	0.073623	1.217287	-2.129147
H	-0.122669	1.167258	-3.200407
H	-0.46907	2.059026	-1.696463
H	1.146202	1.358707	-1.957818
N	0.301397	-1.180464	-2.196047
H	0.133498	-2.038655	-1.68331
H	1.305075	-1.006016	-2.13394
N	-0.484846	-1.124531	0.8277
O	-0.328969	-2.273241	0.411535
O	-1.005645	-0.845182	1.906967
Cl	3.305219	0.0	0.0
