16

C	-0.504665	-0.047216	-1.434961
C	0.0	0.0	0.0
Br	-0.512041	-2.147473	-1.814482
H	1.09034	0.0	0.0
H	-0.406404	-0.78838	0.624399
C	-1.967387	0.311934	-1.605825
H	-2.286612	0.107134	-2.629115
H	-2.587158	-0.276932	-0.930365
H	-2.104356	1.375647	-1.390137
N	0.329533	0.607384	-2.306816
H	1.276112	0.775978	-1.99809
H	-0.068867	1.273231	-2.940845
N	-0.436849	1.280946	0.633173
O	-1.037739	1.205566	1.706987
O	-0.185729	2.334649	0.048968
Cl	3.3228	0.0	0.0
