12

C	-0.410212	0.006676	-1.479856
C	0.0	0.0	0.0
F	0.048223	1.16209	-2.064242
H	1.096771	0.0	0.0
H	0.067079	-0.846232	-1.97151
C	-1.873105	-0.056825	-1.654637
N	-3.039123	-0.09476	-1.789473
C	-0.479292	-1.224088	0.636705
N	-0.859931	-2.226443	1.116263
C	-0.501976	1.187052	0.687782
N	-0.895136	2.150653	1.231815
Br	3.290806	0.0	0.0
