12

C	-0.391385	0.035162	-1.47778
C	0.0	0.0	0.0
F	-1.766914	0.145731	-1.620889
H	1.09753	0.0	0.0
H	0.070093	0.915459	-1.933328
C	0.049049	-1.175423	-2.182557
N	0.352213	-2.156699	-2.749895
C	-0.514345	-1.192462	0.668151
N	-0.92019	-2.157747	1.199673
C	-0.477598	1.214802	0.657857
N	-0.849187	2.205121	1.167503
Br	3.285417	0.0	0.0
