12

C	-0.480187	0.02361	-1.461781
C	0.0	0.0	0.0
F	-0.042051	-1.114733	-2.093201
H	1.0966	0.0	0.0
H	-1.574808	0.023773	-1.502371
C	0.008516	1.213808	-2.174724
N	0.308596	2.172386	-2.782113
C	-0.495361	-1.213562	0.647486
N	-0.911415	-2.187839	1.154064
C	-0.492814	1.188187	0.693309
N	-0.901441	2.15386	1.222663
Br	3.300522	0.0	0.0
