12

C	-0.377306	-0.016429	-1.490707
C	0.0	0.0	0.0
F	-0.00388	1.178941	-2.055441
H	1.096759	0.0	0.0
H	0.189541	-0.819203	-1.971137
C	-1.820726	-0.211017	-1.712913
N	-2.969035	-0.3659	-1.902791
C	-0.466211	-1.228385	0.638388
N	-0.836565	-2.234449	1.11824
C	-0.535165	1.181932	0.667456
N	-0.980645	2.131362	1.195532
Br	3.297348	0.0	0.0
