17

C	0.0	0.0	0.0
C	-0.516139	-0.117972	-1.431547
F	1.390658	0.0	0.0
H	-1.57955	-0.373264	-1.364666
H	-0.335611	0.973313	0.370143
C	-0.460985	-1.094082	0.934165
H	-1.551532	-1.125739	0.939729
H	-0.062785	-2.057781	0.614861
H	-0.097533	-0.875705	1.941713
N	0.170552	-1.277156	-2.087803
O	-0.244036	-2.40417	-1.819373
O	1.119937	-1.046728	-2.836774
C	-0.299357	1.148621	-2.231733
H	-0.957196	1.916512	-1.820315
H	-0.561021	1.001202	-3.280476
H	0.738884	1.475744	-2.174278
Br	-3.844681	0.0	0.0
