17

C	0.0	0.0	0.0
C	-0.353776	-0.334966	-1.444324
F	1.395418	0.0	0.0
H	0.044025	-1.3267	-1.672533
H	-0.31542	1.020804	0.228029
C	-0.562535	-0.985008	0.988911
H	-1.653748	-0.907601	1.000473
H	-0.186008	-0.759949	1.988982
H	-0.272112	-2.005585	0.726964
N	0.45305	0.580118	-2.323824
O	1.138916	0.063822	-3.20572
O	0.348538	1.788628	-2.130593
C	-1.80698	-0.198548	-1.838774
H	-2.452542	-0.871898	-1.277735
H	-2.179648	0.803552	-1.633176
H	-1.915966	-0.414042	-2.905317
Br	-4.735444	0.0	0.0
