17

C	0.0	0.0	0.0
C	-0.201221	0.287288	-1.514487
F	1.395547	0.0	0.0
H	0.542961	-0.36103	-1.997016
H	-0.35813	0.823844	0.612
C	-0.486776	-1.33458	0.482314
H	-0.083571	-1.501535	1.487837
H	-1.579222	-1.308836	0.529205
H	-0.144149	-2.14282	-0.167912
N	0.343306	1.675384	-1.771024
O	0.741726	1.932993	-2.901288
O	0.326991	2.486129	-0.851899
C	-1.505592	0.149907	-2.278582
H	-2.21076	0.928651	-2.015452
H	-1.989714	-0.793624	-2.034181
H	-1.269291	0.170263	-3.347543
Br	-3.746568	0.0	0.0
