17

C	0.0	0.0	0.0
C	-0.518872	-0.121607	-1.42931
F	1.390658	0.0	0.0
H	-1.613743	-0.144053	-1.365917
H	-0.334526	0.973977	0.371593
C	-0.472171	-1.103404	0.917216
H	-0.037921	-2.05868	0.616203
H	-1.562784	-1.160839	0.879745
H	-0.15441	-0.88277	1.93881
N	-0.107339	-1.455113	-1.97364
O	0.991254	-1.545723	-2.529177
O	-0.878711	-2.395471	-1.794225
C	-0.010067	0.982951	-2.332437
H	-0.389655	0.858949	-3.349762
H	-0.370835	1.940264	-1.950192
H	1.078624	0.986575	-2.358286
Br	-3.930975	0.0	0.0
