17

C	0.0	0.0	0.0
C	-0.375863	-0.229046	-1.45439
F	1.395176	0.0	0.0
H	0.262349	-1.032592	-1.834234
H	-0.321824	0.990567	0.323208
C	-0.527225	-1.077904	0.913046
H	-0.242668	-2.069139	0.549484
H	-1.616546	-1.009764	0.969982
H	-0.111709	-0.94188	1.914088
N	0.044637	0.960163	-2.282202
O	0.158322	2.056552	-1.739917
O	0.211987	0.748252	-3.48404
C	-1.83325	-0.530315	-1.740654
H	-2.073428	-1.52396	-1.362301
H	-1.998386	-0.531491	-2.820183
H	-2.532596	0.153063	-1.257313
Br	-4.829278	0.0	0.0
