17

C	0.0	0.0	0.0
C	-0.213188	-0.10144	-1.569662
F	1.358278	0.0	0.0
H	0.294326	-1.050365	-1.791992
N	-0.677676	1.149424	0.628264
O	-0.710089	2.220194	-0.055556
O	-0.657636	1.162648	1.886228
C	-0.465003	-1.212889	0.68899
N	-0.574757	-2.278127	1.184655
N	0.581957	0.96744	-2.20352
H	0.309798	1.824149	-1.728187
H	0.257319	1.047215	-3.160618
C	-1.614565	-0.183329	-2.158372
H	-2.186756	-1.03531	-1.790268
H	-1.501111	-0.29472	-3.249965
H	-2.165125	0.734441	-1.950804
H	-1.994334	0.0	0.0
