17

C	0.0	0.0	0.0
C	-0.534202	0.075102	-1.426844
F	1.348072	0.0	0.0
H	-1.595419	0.349257	-1.295698
N	-0.346914	1.285267	0.792327
O	-1.082895	1.203484	1.76937
O	0.19896	2.305273	0.367642
C	-0.507746	-1.144994	0.772824
N	-0.527142	-2.172362	1.3374
N	-0.388634	-1.294116	-1.949181
H	-0.333846	-1.250681	-2.966366
H	-1.256941	-1.789257	-1.71865
C	0.244552	1.04764	-2.298024
H	0.169181	2.070043	-1.92945
H	-0.165728	1.013437	-3.3138
H	1.301586	0.776454	-2.346102
H	-2.96916	0.0	0.0
