17

C	0.0	0.0	0.0
C	-0.273784	0.088143	-1.550654
F	1.356948	0.0	0.0
H	-1.346688	0.142815	-1.704494
N	-0.310123	1.24711	0.833163
O	-0.42461	1.07162	2.044206
O	-0.235387	2.353308	0.296913
C	-0.8891	-1.065762	0.522367
N	-0.872101	-2.203769	0.908022
N	0.193846	-1.16806	-2.152915
H	1.184222	-1.266609	-1.950703
H	-0.267997	-1.940654	-1.678441
C	0.410551	1.239348	-2.273425
H	1.462405	1.325314	-1.987035
H	-0.075989	2.190407	-2.06444
H	0.359792	1.028818	-3.344334
H	-2.086919	0.0	0.0
