19

C	0.0	0.0	0.0
C	-0.427501	0.050754	-1.47205
F	1.398222	0.0	0.0
H	0.08957	0.940757	-1.85926
C	-0.502297	1.162676	0.828665
H	-0.028247	1.141212	1.812427
H	-1.586332	1.101267	0.948042
H	-0.244436	2.098952	0.327355
C	-0.386621	-1.285406	0.619007
N	-0.619969	-2.334269	1.09215
C	-1.932104	0.216213	-1.636956
H	-2.200022	0.120064	-2.692671
H	-2.296401	1.183017	-1.292245
H	-2.510229	-0.525331	-1.083061
C	0.083324	-1.173602	-2.22933
H	1.14721	-1.345792	-2.055913
H	-0.470724	-2.066588	-1.929094
H	-0.072639	-1.031827	-3.302101
Cl	-4.927099	0.0	0.0
