19

C	0.0	0.0	0.0
C	-0.4189	0.210103	-1.469127
F	1.3988	0.0	0.0
H	0.321438	-0.37744	-2.028675
C	-0.542331	1.012705	0.985032
H	-0.172281	2.008226	0.734595
H	-0.22285	0.758118	1.996991
H	-1.636771	1.006324	0.945349
C	-0.353312	-1.371078	0.43834
N	-0.544692	-2.472457	0.794807
C	-0.262854	1.67406	-1.877324
H	-0.341878	1.753321	-2.964917
H	0.709072	2.077907	-1.579562
H	-1.054896	2.290347	-1.44553
C	-1.811251	-0.324341	-1.79249
H	-2.604667	0.032236	-1.128336
H	-2.078672	-0.03361	-2.81265
H	-1.825851	-1.418093	-1.749048
Cl	-4.786885	0.0	0.0
