19

C	0.0	0.0	0.0
C	-0.48429	-0.147415	-1.445055
F	1.398865	0.0	0.0
H	-1.572739	-0.2576	-1.371186
C	-0.488142	1.247738	0.703008
H	-0.074899	2.128128	0.207934
H	-1.580904	1.258698	0.665209
H	-0.151239	1.240483	1.742053
C	-0.365767	-1.200739	0.785624
N	-0.537062	-2.17504	1.417935
C	0.127431	-1.38808	-2.093586
H	-0.106977	-2.293533	-1.52912
H	1.215156	-1.296472	-2.162751
H	-0.271155	-1.513051	-3.103881
C	-0.15668	1.104102	-2.258754
H	0.900765	1.369996	-2.160263
H	-0.360103	0.918812	-3.316917
H	-0.767557	1.954653	-1.953089
Cl	-3.76298	0.0	0.0
