19

C	0.0	0.0	0.0
C	-0.422442	-0.065114	-1.473684
F	1.398257	0.0	0.0
H	0.134867	0.764321	-1.932962
C	-0.501782	1.226024	0.731805
H	-0.240572	2.11918	0.158997
H	-1.58619	1.176433	0.852307
H	-0.031041	1.28108	1.715631
C	-0.385787	-1.230408	0.723656
N	-0.618441	-2.231509	1.291067
C	-1.916561	0.150089	-1.671397
H	-2.17912	-0.035251	-2.716688
H	-2.538338	-0.504243	-1.057283
H	-2.232844	1.164042	-1.426565
C	0.043112	-1.371659	-2.114007
H	-0.087791	-1.317299	-3.19784
H	-0.555304	-2.210052	-1.74849
H	1.095245	-1.574495	-1.904311
Cl	-4.913539	0.0	0.0
