13

C	0.0	0.0	0.0
C	-0.485551	0.132376	-1.445357
Cl	1.772601	0.0	0.0
H	0.366339	0.105841	-2.134975
H	-0.351299	0.852639	0.566728
H	-0.355518	-0.916886	0.447469
N	-1.267369	1.293002	-1.644637
H	-2.078964	1.069637	-1.009032
H	-1.582008	1.310273	-2.607023
N	-1.213848	-1.172975	-1.856446
O	-1.998282	-1.082146	-2.795658
O	-0.863504	-2.234194	-1.348172
F	-2.630264	0.0	0.0
