13

C	0.0	0.0	0.0
C	-0.484825	0.164797	-1.442024
Cl	1.772588	0.0	0.0
H	0.367185	0.153766	-2.131965
H	-0.350468	0.840058	0.585886
H	-0.353685	-0.927298	0.427007
N	-1.265487	1.331755	-1.613993
H	-2.075563	1.09333	-0.981633
H	-1.584624	1.366049	-2.574533
N	-1.21473	-1.129264	-1.881321
O	-0.85695	-2.202876	-1.404109
O	-2.005281	-1.016154	-2.813164
F	-2.630128	0.0	0.0
