13

C	0.0	0.0	0.0
C	-0.278551	0.070907	-1.530759
Cl	1.777791	0.0	0.0
H	0.237076	-0.784247	-1.973221
H	-0.384218	0.865776	0.519684
H	-0.378507	-0.913792	0.434287
N	0.194552	1.269369	-2.199783
H	-0.383675	2.044088	-1.895783
H	1.151655	1.43809	-1.922199
N	-1.697141	-0.120869	-2.033798
O	-2.010312	-1.282597	-2.282099
O	-2.311928	0.868684	-2.409948
F	-2.368634	0.0	0.0
