17

C	0.0	0.0	0.0
C	-0.321582	0.008354	-1.510502
F	1.399244	0.0	0.0
H	-1.347179	-0.246982	-1.738215
H	0.386326	-0.654083	-1.987251
C	-0.291601	1.268385	0.80707
H	-1.32604	1.574932	0.840404
H	0.061309	1.084583	1.822981
H	0.30727	2.068369	0.387713
C	-0.289892	-1.355948	0.654861
H	0.247162	-1.360803	1.598919
H	-1.332197	-1.574632	0.833866
H	0.139876	-2.133023	0.022442
N	-0.065613	1.355326	-2.090829
O	1.035788	1.541047	-2.621225
O	-0.995486	2.161017	-2.123386
Br	-3.224171	0.0	0.0
