17

C	0.0	0.0	0.0
C	-0.156039	-0.058315	-1.541207
F	1.405812	0.0	0.0
H	0.16484	0.897042	-1.954476
H	0.517476	-0.847189	-1.875692
C	-0.520046	1.279179	0.599186
H	-1.612768	1.266965	0.531158
H	-0.122703	2.145612	0.064003
H	-0.224245	1.344669	1.649815
C	-0.515281	-1.231147	0.696714
H	-0.124101	-2.135899	0.227654
H	-1.607553	-1.22895	0.635377
H	-0.212447	-1.209325	1.747722
N	-1.456461	-0.378584	-2.18629
O	-2.043345	0.537652	-2.755103
O	-1.789518	-1.561325	-2.183405
Br	-4.072687	0.0	0.0
