17

C	0.0	0.0	0.0
C	-0.481429	0.029184	-1.446578
F	1.399191	0.0	0.0
H	-0.106298	-0.841647	-1.984107
H	-1.573973	0.085105	-1.449174
C	-0.459809	1.213604	0.779887
H	-1.549858	1.269338	0.748626
H	-0.127213	1.11721	1.816832
H	-0.033215	2.126718	0.36076
C	-0.472871	-1.289752	0.637744
H	-1.565012	-1.303814	0.662693
H	-0.098855	-2.151862	0.077796
H	-0.082415	-1.345141	1.657683
N	0.056905	1.21366	-2.163859
O	1.130863	1.080191	-2.756545
O	-0.58471	2.263113	-2.101495
Br	-3.975704	0.0	0.0
