17

C	-0.394849	-0.034711	-1.495925
C	0.0	0.0	0.0
Cl	-2.183872	-0.316475	-1.659141
H	1.097057	0.0	0.0
C	-0.112285	1.213057	-2.204326
N	0.105427	2.176132	-2.841996
C	0.34986	-1.17972	-2.171241
H	1.423069	-1.022984	-2.022494
H	0.112296	-1.209974	-3.234881
H	0.056129	-2.124181	-1.712631
N	-0.413957	-1.112645	0.776798
H	-1.319924	-1.481852	0.527335
H	0.305159	-1.820071	0.787901
N	-0.531964	1.272121	0.606168
O	0.093146	2.302054	0.365632
O	-1.570891	1.198925	1.259918
Br	3.426017	0.0	0.0
