17

C	-0.464374	-0.03011	-1.461289
C	0.0	0.0	0.0
Cl	-2.277974	-0.146901	-1.497414
H	1.092811	0.0	0.0
C	-0.10963	1.155577	-2.243285
N	0.149567	2.018174	-2.997945
C	0.13443	-1.259541	-2.133215
H	1.223606	-1.187285	-2.054279
H	-0.20544	-2.147978	-1.604827
H	-0.165944	-1.298154	-3.181443
N	-0.434114	-1.155348	0.70433
H	-1.342387	-1.004215	1.121942
H	0.237884	-1.359159	1.432236
N	-0.454177	1.295113	0.656532
O	-0.036835	2.341263	0.17299
O	-1.204317	1.213782	1.630168
Br	3.390314	0.0	0.0
