17

C	-0.593372	0.023754	-1.42655
C	0.0	0.0	0.0
Cl	0.035485	1.399654	-2.388523
H	1.090317	0.0	0.0
C	-0.172332	-1.209052	-2.098121
N	0.075838	-2.187551	-2.698947
C	-2.118373	0.086079	-1.424763
H	-2.458455	1.021177	-0.978826
H	-2.514316	-0.757022	-0.855966
H	-2.487346	0.028073	-2.449547
N	-0.451998	-1.182933	0.666227
H	0.295923	-1.526581	1.255424
H	-1.271265	-0.988435	1.22705
N	-0.457926	1.258517	0.717651
O	0.170903	2.290957	0.52359
O	-1.462032	1.166286	1.434551
Br	3.420436	0.0	0.0
