17

C	-0.601543	0.016353	-1.425465
C	0.0	0.0	0.0
Cl	0.140826	1.283568	-2.453333
H	1.093413	0.0	0.0
C	-0.298255	-1.277175	-2.04442
N	-0.097564	-2.302871	-2.580062
C	-2.114115	0.222917	-1.413319
H	-2.58244	-0.537196	-0.784853
H	-2.355526	1.214319	-1.028271
H	-2.504471	0.136694	-2.428337
N	-0.464194	-1.161483	0.690888
H	-1.275718	-0.946642	1.252791
H	0.282443	-1.516552	1.275219
N	-0.44773	1.278472	0.689196
O	0.140644	2.314478	0.407261
O	-1.414229	1.201792	1.457362
Br	3.427021	0.0	0.0
