17

C	-0.503003	0.013056	-1.456685
C	0.0	0.0	0.0
Cl	0.215106	-1.413085	-2.269996
H	1.090378	0.0	0.0
C	-1.958695	-0.158033	-1.498041
N	-3.126575	-0.2826	-1.541071
C	-0.068523	1.262431	-2.212047
H	-0.585611	2.14358	-1.829505
H	-0.302882	1.145853	-3.270638
H	1.007496	1.387134	-2.078267
N	-0.499773	-1.111175	0.725312
H	-1.438901	-0.936359	1.066042
H	0.125977	-1.320654	1.492864
N	-0.434989	1.326917	0.627574
O	-1.546233	1.347288	1.168345
O	0.323002	2.286305	0.543069
Br	3.455314	0.0	0.0
