13

C	0.0	0.0	0.0
C	-0.438416	0.168317	-1.444466
F	1.387376	0.0	0.0
H	0.10363	1.040212	-1.827445
H	-0.368542	-0.928679	0.437727
H	-1.50885	0.371573	-1.454111
C	-0.386664	1.146344	0.844305
N	-0.51168	2.106196	1.507756
C	-0.105792	-1.075469	-2.260898
H	-0.234101	-0.883642	-3.328759
H	0.928178	-1.393049	-2.100607
H	-0.775046	-1.893504	-1.985697
Cl	-3.438775	0.0	0.0
