13

C	0.0	0.0	0.0
C	-0.410908	-0.165348	-1.45521
F	1.387678	0.0	0.0
H	0.112751	-1.064752	-1.800428
H	-0.368196	-0.816232	0.621814
H	-1.485066	-0.339975	-1.490651
C	-0.395691	1.286292	0.597382
N	-0.550541	2.311477	1.147116
C	-0.00562	1.040472	-2.297195
H	-0.646756	1.894935	-2.069321
H	1.033012	1.326311	-2.110011
H	-0.105871	0.819901	-3.363385
Cl	-3.405374	0.0	0.0
