15

C	-0.353219	0.00652	-1.470885
C	0.0	0.0	0.0
Br	-2.320597	-0.141159	-1.746542
H	1.097826	0.0	0.0
H	-0.112867	0.979482	-1.906228
H	-0.329751	-0.945333	0.445369
C	0.341988	-1.101584	-2.235489
H	1.420258	-0.988046	-2.078741
H	0.116489	-1.058653	-3.303692
H	0.038059	-2.078769	-1.851995
C	-0.520926	1.188554	0.792831
H	-0.131115	1.156829	1.81309
H	-1.613372	1.20475	0.836945
H	-0.179476	2.125556	0.343304
Br	3.699251	0.0	0.0
