13

C	0.0	0.0	0.0
C	-0.457544	0.240034	-1.4319
F	1.359888	0.0	0.0
H	-1.568161	0.267559	-1.311546
H	-0.143693	-0.61848	-2.027943
C	-0.480529	1.001721	0.954157
N	-0.583271	1.889387	1.717896
N	-0.404126	-1.387516	0.472866
O	-0.501832	-1.545613	1.681941
O	-0.449154	-2.269037	-0.376095
C	0.122303	1.460363	-1.965557
N	0.565975	2.4431	-2.432691
F	-2.459207	0.0	0.0
