15

C	0.0	0.0	0.0
C	-0.466673	-0.150485	-1.437939
F	1.388262	0.0	0.0
H	-1.557531	-0.096024	-1.432927
H	-0.074479	0.730353	-1.955984
N	-0.48917	1.217641	0.556379
H	-0.319114	1.230037	1.556519
H	-1.505252	1.206711	0.423002
C	-0.33123	-1.214642	0.807644
N	-0.510233	-2.187858	1.440549
C	0.013777	-1.437386	-2.095532
H	-0.442578	-2.308934	-1.622311
H	1.0996	-1.536516	-2.032972
H	-0.270518	-1.446535	-3.150845
Br	-3.764843	0.0	0.0
