15

C	0.0	0.0	0.0
C	-0.541648	-0.072615	-1.411181
F	1.413383	0.0	0.0
H	-0.203948	0.839102	-1.919747
H	-1.634098	-0.036287	-1.313043
N	-0.498972	1.118986	0.684564
H	-0.638804	1.929341	0.103458
H	-0.012365	1.318008	1.54435
C	-0.310366	-1.234847	0.76948
N	-0.446403	-2.230078	1.376126
C	-0.083741	-1.309268	-2.171129
H	1.006039	-1.385468	-2.190311
H	-0.446238	-1.270392	-3.200841
H	-0.488411	-2.214005	-1.712899
Br	-4.067894	0.0	0.0
