15

C	0.0	0.0	0.0
C	-0.385456	0.447323	-1.406685
F	1.411471	0.0	0.0
H	-0.162609	1.519711	-1.433004
H	0.328454	-0.044137	-2.073516
N	-0.509178	0.876002	0.99418
H	-0.549923	0.428965	1.901121
H	-1.454687	1.153278	0.745901
C	-0.332383	-1.431661	0.225412
N	-0.570547	-2.565497	0.414963
C	-1.812398	0.15213	-1.844024
H	-2.006786	-0.922329	-1.8569
H	-2.585286	0.58168	-1.206502
H	-1.962389	0.532628	-2.858098
Br	-4.84443	0.0	0.0
