15

C	0.0	0.0	0.0
C	-0.474233	-0.107351	-1.43786
F	1.388338	0.0	0.0
H	-1.566938	-0.088151	-1.420157
H	-0.119017	0.80726	-1.924039
N	-0.487566	1.197894	0.599135
H	-0.31718	1.174044	1.598747
H	-1.503784	1.201201	0.466531
C	-0.326826	-1.241193	0.768516
N	-0.494724	-2.233051	1.375009
C	0.043072	-1.349477	-2.151313
H	-0.258899	-1.329838	-3.201514
H	1.132931	-1.40936	-2.109785
H	-0.371641	-2.255841	-1.704817
Br	-3.774862	0.0	0.0
