15

C	0.0	0.0	0.0
C	-0.53608	0.354123	-1.371868
F	1.414696	0.0	0.0
H	-1.608096	0.125479	-1.342405
H	-0.04471	-0.306042	-2.092348
N	-0.490838	0.852605	1.006011
H	-0.315472	1.825066	0.805052
H	-0.155816	0.596993	1.923153
C	-0.332423	-1.404264	0.344224
N	-0.473544	-2.53774	0.612849
C	-0.31719	1.817667	-1.738828
H	-0.53957	1.972801	-2.796578
H	-0.996484	2.460986	-1.17576
H	0.716418	2.12947	-1.561983
Br	-4.083414	0.0	0.0
