15

C	0.0	0.0	0.0
C	-0.47504	-0.027762	-1.4436
F	1.387493	0.0	0.0
H	0.010303	-0.887456	-1.917606
H	-1.553696	-0.202722	-1.429275
N	-0.494096	1.142217	0.691761
H	-0.316549	1.044018	1.685461
H	-1.511928	1.14321	0.565384
C	-0.323435	-1.299293	0.666938
N	-0.496437	-2.33751	1.188352
C	-0.136175	1.260775	-2.184017
H	0.928146	1.492992	-2.102268
H	-0.388195	1.157256	-3.242906
H	-0.701679	2.099484	-1.779099
Br	-3.774553	0.0	0.0
