15

C	0.0	0.0	0.0
C	-0.398927	0.251521	-1.448758
F	1.405529	0.0	0.0
H	-0.172753	1.30814	-1.629388
H	0.304958	-0.33554	-2.046493
N	-0.505244	0.997795	0.877511
H	-1.479967	1.181506	0.651606
H	-0.461889	0.694284	1.842628
C	-0.328558	-1.393214	0.413994
N	-0.548164	-2.499137	0.743216
C	-1.831162	-0.094486	-1.82129
H	-1.982659	0.105009	-2.885039
H	-2.590506	0.454713	-1.265242
H	-2.044539	-1.150189	-1.644301
Br	-4.850537	0.0	0.0
