14
Coordinates from ORCA-job run
  C   0.95554099512204     -0.18671603596586     -0.28045761094785
  C   -0.57826527230304     -0.22947339028729     -0.28673713225984
  Br  1.56952265633248     -2.02636606210524     -0.61168899611744
  H   -0.95556213062143     -0.55412749202430     -1.25675962022118
  C   1.40365469784514      0.63744383996227     -1.40114268994598
  N   1.74325370855731      1.26923487134770     -2.33308051159002
  C   1.54443817741323      0.27523905008011      0.97311573900256
  N   2.08727079279459      0.63959812230082      1.95062559321259
  N   -1.18537623503180      1.12296286287233      0.01164914017783
  O   -0.42117872959382      2.06662157516299      0.17217535120398
  O   -2.40782740517734      1.12951463032431      0.04593202329716
  N   -1.12098417308099     -1.16364526356444      0.75463972009087
  O   -1.76876994830230     -2.11864344491908      0.34655252328949
  O   -0.86371713395408     -0.86264326318432      1.91517647080783
