14
Coordinates from ORCA-job run
  C   1.00042929616072     -0.15888443900797     -0.01169631674176
  C   -0.44285126764162     -0.12293204906108      0.50800073760726
  Br  1.75433401906497     -1.88885059139797      0.54493449942937
  H   -0.46714025065822     -0.18032844463187      1.59649190392315
  C   1.12585546428610     -0.04865559135190     -1.46213350213013
  N   1.30236167905418      0.03720891726323     -2.62162519546551
  C   1.76364089669883      0.89209766784751      0.65832208935033
  N   2.36905585375328      1.71583528202448      1.23963706722275
  N   -1.26520835939908     -1.25626999987582     -0.03140515392459
  O   -1.41624151165515     -1.26258461015762     -1.24827937943277
  O   -1.70758353858866     -2.04861331989573      0.78998328292665
  N   -1.16210332945286      1.14308949406154      0.09986136540517
  O   -0.52772130078353      1.97948278171036     -0.53121799114840
  O   -2.32682765083895      1.20140490247284      0.46812659297849
