14
Coordinates from ORCA-job run
  C   0.99415208135275     -0.19328825762602     -0.03170635306919
  C   -0.43840104598986     -0.11368275872423      0.51329255455486
  Br  1.69588489101433     -1.95578219912201      0.48733636172882
  H   -0.44558145899364     -0.18402427839032      1.60130042047354
  C   1.09854082039395     -0.06554993313632     -1.48231261239204
  N   1.25824515336510      0.01993915891805     -2.64430872881447
  C   1.80376014364970      0.82111191568518      0.64047207521144
  N   2.44882277460817      1.61352543385567      1.22265701838522
  N   -1.30877659222507     -1.21069246006021     -0.02487232442191
  O   -1.48151786561652     -1.19596480152169     -1.23875943714169
  O   -1.76176203060480     -1.99935363769198      0.79417849143473
  N   -1.11935985425984      1.18170371199716      0.13438292192342
  O   -0.46754394530690      2.00442263600450     -0.49692258137454
  O   -2.27446307138738      1.27563546981221      0.52526219350182
