14
Coordinates from ORCA-job run
  C   0.95627059103315     -0.18890563386029     -0.27571854461826
  C   -0.57762269686620     -0.23293196139999     -0.28575678201376
  Br  1.57310647102546     -2.03160021181381     -0.58159681371841
  H   -0.95187762328939     -0.57002343863106     -1.25269916355824
  C   1.40609140863726      0.62185717466144     -1.40555458953634
  N   1.74824319396037      1.24209162692078     -2.34427746012569
  C   1.54100595228405      0.28975659550640      0.97360948834992
  N   2.08267254368138      0.65635546449405      1.95094557946037
  N   -1.18623245046925      1.12272335043567     -0.00641863943342
  O   -0.42322056771477      2.06829858567760      0.14805155619934
  O   -2.40889132565306      1.12912615254586      0.02105962134070
  N   -1.12259370515423     -1.15394240875839      0.76583282766990
  O   -0.87056829635692     -0.83670954082835      1.92325882147569
  O   -1.76638349511787     -2.11609575494991      0.36826409850822
