14
Coordinates from ORCA-job run
  C   0.92141214584375     -0.11379139925194     -0.29439635249530
  C   -0.46066896722405      0.17790862245269      0.32672129128467
  Br  0.90072453370273     -1.69422368570280     -1.44463562599110
  H   -0.36299445852692      0.88871832255531      1.14926201343334
  C   1.35502999093503      1.05240521326221     -1.06439376553081
  N   1.72778773293467      2.01198056724530     -1.63323104294874
  C   1.89240050294569     -0.35110379137246      0.77563124000026
  N   2.69935681878778     -0.50424687726723      1.61761922858343
  N   -1.06188799176246     -1.08325043685652      0.90438250493632
  O   -2.03220673275776     -1.56072014738667      0.33675740387042
  O   -0.47730787115222     -1.50461790137746      1.89326818818473
  N   -1.45027991638265      0.75855179934156     -0.63708170974016
  O   -2.38130389778377      1.34465740157201     -0.09650904541627
  O   -1.27106188955981      0.57673231278599     -1.83439432817078
