14
Coordinates from ORCA-job run
  C   0.89562086051895     -0.01228333439723     -0.38176739519062
  C   -0.45936763857718      0.16810574711170      0.33403508821937
  Br  0.72391215783246     -0.99524482985160     -2.06276911869524
  H   -0.37521237950049      0.92555752231542      1.11532517310748
  C   1.45993098316259      1.30355387390254     -0.68863798146258
  N   1.95277180626647      2.34842652083137     -0.91000796847639
  C   1.81704574040861     -0.71590996989120      0.51093497031448
  N   2.57589192866424     -1.22690994447407      1.25009979753319
  N   -0.97194873481515     -1.07904001712786      0.98855225487045
  O   -1.80815958766573     -0.87161570716485      1.86042070688258
  O   -0.55397202486294     -2.15863835776769      0.59042551042603
  N   -1.51403793156937      0.64979078309677     -0.63534968103506
  O   -1.34100058891633      1.79543893098890     -1.02889867963968
  O   -2.40147459094614     -0.13123121757221     -0.94236267685400
