14
Coordinates from ORCA-job run
  C   0.96200026217459     -0.15398813937284     -0.27663100948345
  C   -0.57048934199905     -0.22919486906392     -0.30226717224350
  Br  1.62033308961715     -1.96438137527177     -0.67315444005333
  H   -0.93008956821610     -0.52151699164458     -1.28915231251492
  C   1.40288380667618      0.72441215794776     -1.35845139084586
  N   1.73999057369301      1.39981129469954     -2.26017280608536
  C   1.52720885589180      0.27164636181982      1.00062991388026
  N   2.05316590258424      0.60174795748632      1.99929578654839
  N   -1.21040447607303      1.09610378257613      0.04451687609311
  O   -0.46930230052735      2.04903498032007      0.25180547058278
  O   -2.43313738877900      1.07420208148669      0.06421651555366
  N   -1.10307188379187     -1.21762465312541      0.69335793975036
  O   -0.86494886226979     -0.95929723175589      1.86818352685731
  O   -1.72313866898077     -2.16995535610192      0.23882310196055
