14
Coordinates from ORCA-job run
  C   0.95905510588495     -0.22654621283313     -0.26598439502044
  C   -0.57144184687659     -0.33533362590689     -0.22106194638201
  Br  1.67698143572002     -2.04537948147212     -0.41883936757604
  H   -0.95238150869364     -0.83098553476890     -1.11259003778566
  C   1.32836531018901      0.50011001892837     -1.48128886868740
  N   1.61871953226005      1.08717633019505     -2.45850449083621
  C   1.54157920056359      0.44127248660522      0.89558711394929
  N   2.06921158330223      1.01985423774996      1.77326345911844
  N   -1.18254213057514      1.04533952117995     -0.17035639748429
  O   -1.21402585868066      1.58294633616136      0.93031375818377
  O   -1.55860266368011      1.49513405852044     -1.24584567733043
  N   -1.09561422763260     -1.07641971042858      0.97528211554492
  O   -0.35588059369345     -1.22668565142231      1.93782932024349
  O   -2.26342333808766     -1.43148277250840      0.86019541406257
