14
Coordinates from ORCA-job run
  C   0.99112527528837     -0.18444178964459     -0.10104789407367
  C   -0.38936219476104     -0.07349974927291      0.55980179298084
  Br  1.77539954930837     -1.87994343057792      0.51553023492472
  H   -0.30134105576256     -0.05437961819890      1.64621888102119
  C   0.96602963124433     -0.19575581099349     -1.56069982784446
  N   1.02243313689618     -0.22446106251149     -2.73502752469922
  C   1.83312720926703      0.90071917384836      0.39842357606324
  N   2.50667727645745      1.75540484295032      0.84456206101353
  N   -1.28493202809515     -1.21942258390747      0.18946238586326
  O   -1.62723798210178     -1.96150319678886      1.10050888063176
  O   -1.58694678349993     -1.28660055563938     -0.99732143190733
  N   -1.12195694989824      1.17911724443070      0.13791862598426
  O   -2.22609532992450      1.30991523499347      0.64769714139513
  O   -0.55791975441852      1.93385130131215     -0.64502690135326
