14
Coordinates from ORCA-job run
  C   0.92675088832916     -0.16535145545102     -0.26753893531690
  C   -0.46269671460399      0.15859530603948      0.32408936762864
  Br  0.92865232867750     -1.71855672077584     -1.45320642819181
  H   -0.35494858343217      0.89698186652443      1.12244721094899
  C   1.36331789592252      1.00119249296469     -1.03725178900315
  N   1.69689574029963      1.95288981434169     -1.64298548199352
  C   1.88082105416495     -0.40204742231100      0.81624263272835
  N   2.66986067251451     -0.53647373842114      1.67786584618495
  N   -1.14440120790642     -1.04147990719079      0.93680563455870
  O   -2.36619336956052     -1.02959983403460      0.92138867904825
  O   -0.40464246782908     -1.86446331708068      1.45681457347577
  N   -1.36702845907809      0.76531911332706     -0.70521988047707
  O   -1.69395105082940      0.04637679986615     -1.64013864347131
  O   -1.67343672666861      1.93761700220159     -0.51131278611987
