14
Coordinates from ORCA-job run
  C   0.95294534151816     -0.15581956733084     -0.15972581919000
  C   -0.56988554627979      0.09548022074684     -0.10186067390483
  Br  1.61220961345969     -1.29563521076530      1.28397853573112
  H   -0.89744096836963      0.56134187788470     -1.03454087908627
  C   1.30248916400699     -0.77177636648794     -1.44007142600349
  N   1.60440081066018     -1.21289588508058     -2.48760340851888
  C   1.62048510699780      1.14360167546876     -0.06087115958942
  N   2.13439055299261      2.19931450343376      0.01199847970086
  N   -0.92549742967836      1.04410703350355      1.00219743666450
  O   -1.36123951597551      2.13285509040903      0.64073585191132
  O   -0.73080675578741      0.65289544980086      2.14542243479869
  N   -1.37784549395175     -1.17078697480480      0.05323086713051
  O   -0.91378336635117     -2.16632488387985     -0.48396063291489
  O   -2.44942151324181     -1.05535696289816      0.62907039327078
