14
Coordinates from ORCA-job run
  C   0.99830795707895     -0.20090548662928     -0.02184519309823
  C   -0.42895634357803     -0.12087884577517      0.53734476873223
  Br  1.81634089415309     -1.83926831129310      0.68256734713122
  H   -0.41933425696683     -0.10041279392147      1.62587342528827
  C   1.06632183280058     -0.20048064842368     -1.48124087753414
  N   1.19621530230444     -0.13990986132091     -2.64875530809980
  C   1.75874791305117      0.93469412948660      0.50084955561712
  N   2.36425661353039      1.85105917777054      0.92237078519392
  N   -1.31395568720188     -1.25487553777968      0.10820631502868
  O   -1.00039227029128     -1.89082542178146     -0.88865455016955
  O   -2.30729775508044     -1.39917650815933      0.81226496814685
  N   -1.09489664105292      1.15036195688929      0.06338616400037
  O   -1.59129309053236      1.11876139544255     -1.05623015262866
  O   -1.04206446821489      2.09285675549511      0.84386275239171
