14
Coordinates from ORCA-job run
  C   0.98939048688074     -0.19045378063194     -0.10657866782190
  C   -0.38680788270178     -0.06403695948704      0.56077534975009
  Br  1.75687603790210     -1.89388400706212      0.50926197997924
  H   -0.29161691007020     -0.02544891567086      1.64620654976206
  C   0.95624251885538     -0.20122556443472     -1.56620868336414
  N   0.99937607731293     -0.22251109801488     -2.74112068633604
  C   1.84717103102188      0.88515060290535      0.38696933231830
  N   2.53420589227481      1.73040052299352      0.83030509889280
  N   -1.28759281371556     -1.21390391305562      0.21946761415857
  O   -1.66806715496665     -1.90547782349348      1.15494955639406
  O   -1.55664147787379     -1.33543497220568     -0.97079776025123
  N   -1.11901771904010      1.18369785545394      0.12035766852643
  O   -0.53521738016559      1.94765165208557     -0.63841014386838
  O   -2.23930070571418      1.30447640061796      0.59582279186015
