14
Coordinates from ORCA-job run
  C   0.93710022738378     -0.19379486716604     -0.32797657262118
  C   -0.59575753522881     -0.21688017017657     -0.26304318586935
  Br  1.50964200337260     -2.03614411888688     -0.71436057035373
  H   -1.02226968270269     -0.52234353648502     -1.21875219595710
  C   1.34481908084330      0.64178471757758     -1.45567520603695
  N   1.65589364096496      1.28609180741131     -2.38890216243546
  C   1.59096244097329      0.24150082981061      0.90280943152359
  N   2.18986639444333      0.57331284450028      1.85903242467990
  N   -1.16994240901310      1.13813645265092      0.08308413756028
  O   -2.38941638671973      1.15980909819781      0.17349511597655
  O   -0.38657150688378      2.06944237766217      0.22202557075740
  N   -1.10103130499089     -1.15994239250814      0.78882043977942
  O   -0.78240132235876     -0.88174894163328      1.93985510377284
  O   -1.78189364008350     -2.09922410095474      0.39858766922379
