14
Coordinates from ORCA-job run
  C   0.99899733502798     -0.16070791100078     -0.00195619235460
  C   -0.44839369392806     -0.11973824414633      0.50586380055826
  Br  1.74363551246144     -1.89075578793166      0.56643023137042
  H   -0.48182795254328     -0.17441307574694      1.59419856908221
  C   1.13742262242242     -0.05513027114458     -1.45169605481012
  N   1.32945453705480      0.01619463478100     -2.60979993445734
  C   1.76018188208456      0.89108283656740      0.66937165302943
  N   2.36769210315823      1.71676552366097      1.24552439642895
  N   -1.26824853431610     -1.25289740584213     -0.03723418881858
  O   -1.40529772951958     -1.26467349678274     -1.25579194387909
  O   -1.72169314606935     -2.04076334053883      0.78239024197518
  N   -1.16122327976445      1.14637902294124      0.08792081981247
  O   -0.52018393226721      1.97883213501402     -0.54160750916052
  O   -2.32851572380137      1.20882538016935      0.44738611122333
