14
Coordinates from ORCA-job run
  C   0.90744532250227      0.08199087397321     -0.34652906192603
  C   -0.48862755154430      0.12504112346087      0.31064558125704
  Br  0.90219334582805     -0.89311023976974     -2.04099995676777
  H   -0.51556807681236      0.88970721254816      1.08901907862775
  C   1.35968627223794      1.44830367255505     -0.61562586011726
  N   1.76051576051095      2.53819124696747     -0.80243593849674
  C   1.84951542486918     -0.54603579353588      0.58043144459043
  N   2.61139913781255     -1.00211130655807      1.35173430837886
  N   -0.89475307745089     -1.16592663123668      0.95305899200290
  O   -0.39358321815983     -2.20215253210504      0.53568790589246
  O   -1.74080583345626     -1.04003543558380      1.83127397514201
  N   -1.54560590355671      0.49259001883708     -0.70539151812994
  O   -1.43900326953481      1.63011025327208     -1.14296302841974
  O   -2.37180833324577     -0.35756246282472     -0.99890592203396
