14
Coordinates from ORCA-job run
  C   0.96766287233067     -0.19474388999948     -0.22705737426656
  C   -0.56425106509861     -0.26712686183435     -0.28490260897419
  Br  1.62426321312691     -2.04394976801281     -0.36739876198431
  H   -0.89868675160004     -0.69773791885929     -1.22891917744251
  C   1.44227294320556      0.53441121313118     -1.40133871710905
  N   1.80504434165599      1.08685180832947     -2.37402478309398
  C   1.50202954747436      0.38807789332432      1.00022363655796
  N   2.00713684527653      0.83522934872336      1.96357048611566
  N   -1.20238298930238      1.09529338487241     -0.14945404773019
  O   -2.42434701787161      1.08492211281802     -0.19938880737499
  O   -0.46123593550184      2.06165791081186     -0.01768638366535
  N   -1.13056843887395     -1.10019332067205      0.82833034597103
  O   -0.95126924857620     -0.65771458245004      1.95802125623335
  O   -1.71566831624538     -2.12397733018261      0.50102493676313
