14
Coordinates from ORCA-job run
  C   0.88962839363251     -0.02683235905872     -0.39403560164028
  C   -0.45781624959026      0.19013384274875      0.32635289022744
  Br  0.70212034574507     -1.11113425736742     -2.01012089399664
  H   -0.37254555627747      1.00259591842182      1.05004114221558
  C   1.44608125936672      1.26938165698012     -0.78618133589820
  N   1.93814827020021      2.29773464901012     -1.07613893778349
  C   1.82427430706439     -0.67390906443269      0.52719743878122
  N   2.59032413013257     -1.14523620274987      1.28511136007107
  N   -0.94468583832122     -1.01277187857852      1.07560300589603
  O   -0.54901623596508     -2.11556833829143      0.72042983338306
  O   -1.73995218560041     -0.75115889262800      1.97104613380533
  N   -1.53156329709032      0.58956299730583     -0.65959162514892
  O   -1.35629252974028      1.68943952103871     -1.16558431531413
  O   -2.43770481355642     -0.20323759239873     -0.86412909459807
