14
Coordinates from ORCA-job run
  C   0.97227241119534     -0.03834378378189     -0.02288933539082
  C   -0.55335896831068      0.16146620784369     -0.14168823218675
  Br  1.50165693909618     -0.68461279512150      1.74479978315314
  H   -0.78778773167050      0.76658651234997     -1.01919633346163
  C   1.40983466014389     -0.98867585019703     -1.04579237101586
  N   1.76753359205518     -1.71136047658865     -1.90205876123290
  C   1.64986892993448      1.23867441118787     -0.25457569339610
  N   2.22364130068102      2.24098489339154     -0.47790623261071
  N   -1.08970618812857      0.90366290636167      1.06093306457275
  O   -1.82079651809314      0.29317355947601      1.82526520095362
  O   -0.70661674308390      2.06271117294390      1.14009008058025
  N   -1.32301251517052     -1.11735839797184     -0.27480218845122
  O   -0.81750567634946     -2.14513064135683      0.15764556093397
  O   -2.42702349229930     -0.98077771853693     -0.78982454244773
