14
Coordinates from ORCA-job run
  C   0.89773509829490      0.03245948823921     -0.37710688309970
  C   -0.47221619558740      0.15409776652454      0.32362795243062
  Br  0.78587593367332     -0.94819872137529     -2.06483628282745
  H   -0.43443281138712      0.92599360769087      1.09442856493437
  C   1.41594525939871      1.37076688682885     -0.66682945487158
  N   1.87230513610875      2.43581385665065     -0.86888559123106
  C   1.83361057928168     -0.64326291730211      0.52234327052997
  N   2.59593897403257     -1.13900804491921      1.26830459164993
  N   -0.92284765162766     -1.10793935240885      0.99278438436663
  O   -0.50313492473838     -2.17294922897673      0.55845539349682
  O   -1.71633790293652     -0.92985865734743      1.91003891914574
  N   -1.54117588071948      0.56784945636033     -0.66185868192441
  O   -1.38005533440540      1.68760673457668     -1.12724982882569
  O   -2.43121027938800     -0.23237087454150     -0.90421635377420
