14
Coordinates from ORCA-job run
  C   0.92844681667499     -0.06095641766144     -0.29000822398354
  C   -0.46769562840588      0.12257604733978      0.34236317860131
  Br  0.96958403639536     -1.51772685357783     -1.59345695910747
  H   -0.39624543969206      0.73431255420020      1.24351097453547
  C   1.32510797562994      1.18971370008261     -0.93817880363461
  N   1.66201897415187      2.21247538917997     -1.41130713762305
  C   1.90087314347725     -0.36849636735181      0.76050639865359
  N   2.70652605620057     -0.57279966104067      1.59274962925098
  N   -1.04424146202530     -1.21080220452818      0.76013689622022
  O   -2.04066062979984     -1.60717325325663      0.17579746514315
  O   -0.41996792709239     -1.76257101961919      1.65585478425802
  N   -1.45733647350871      0.79225347766212     -0.56101027035112
  O   -1.29573234362652      0.69084076499940     -1.77036595226147
  O   -2.36967709837928      1.35735384357165      0.03140802029852
