12
Coordinates from ORCA-job run
  C   -0.05179467121444     -0.25592286187631      0.30165452227007
  C   1.33508694535356      0.10078060638420     -0.15134353233466
  F   -0.04626799227336     -0.61670525503829      1.62653795194467
  H   1.31861180923418      0.51661469047780     -1.16035445565479
  H   1.93723734001115     -0.80747224267081     -0.13951808136929
  H   1.76415404709177      0.83771650245764      0.52239936145185
  N   -0.93729405790171      1.03460614613815      0.34387790925616
  O   -0.38530497096825      2.09197014566599      0.62626920034064
  O   -2.13896815177281      0.87926966279568      0.14323950456847
  N   -0.64808668565013     -1.27737718143917     -0.44377185821784
  H   -1.63438893179953     -1.35745712120246     -0.23196578318940
  H   -0.51498468011042     -1.14702309169240     -1.43602473906587
