12
Coordinates from ORCA-job run
  C   -0.13415521832767     -0.19006458838492      0.37334909778259
  C   1.25387599777989      0.05238632481762     -0.17878766963115
  F   -0.02629131624393     -0.52962375027529      1.68237517618353
  H   1.19342221133789      0.36880217210371     -1.21985881724018
  H   1.82338931916713     -0.87661503890277     -0.11310559033083
  H   1.76293654273534      0.81899223194493      0.40855787823697
  N   -0.88981946077510      1.13831137390863      0.30470140534095
  O   -1.24536171287503      1.47130005457836     -0.82298383213955
  O   -1.04360469720092      1.76903293008095      1.33844767212449
  N   -0.97578994557559     -1.14106183962431     -0.26881384505827
  H   -0.51986228492318     -2.04394977853611     -0.29722766727933
  H   -1.19873943509882     -0.83651009171081     -1.20665380798922
