12
Coordinates from ORCA-job run
  C   -0.13474541841492     -0.16422390152736      0.20395153567795
  C   1.34208551700570      0.03868139511011      0.03041110671375
  F   -0.37013320712969     -0.62971063906095      1.49762512427846
  H   1.55187308659210      0.48211078899904     -0.94069206433399
  H   1.72302291984594      0.68679926959481      0.81622504297012
  H   1.83343342210534     -0.93354838187050      0.10508306699134
  N   -0.89909361330855      1.16075474501048      0.18389876536979
  O   -2.12090610336138      1.06165580121966      0.22163180495736
  O   -0.25600812555491      2.20379691426162      0.15966500815481
  N   -0.72046501619756     -0.96102557898319     -0.78772218424347
  H   -0.24227488454685     -1.84584702032948     -0.88095052595716
  H   -1.70678857703522     -1.09844339242425     -0.60812668057895
