12
Coordinates from ORCA-job run
  C   -0.02352966669557     -0.25546389057671      0.33902370345547
  C   1.31476618812017      0.11915727271468     -0.23912271072064
  F   0.09313196116898     -0.59973819582977      1.64534423595825
  H   1.96033108085466     -0.75761888020638     -0.19732658987300
  H   1.75292325647523      0.92432687255457      0.35208174451189
  H   1.20666788320994      0.44924608875154     -1.27206673718230
  N   -0.89255411235097      1.03783945200016      0.33672560964259
  O   -1.26480435858132      1.39066965793287     -0.78042442462937
  O   -1.12303563343602      1.60500448364197      1.39512778713605
  N   -0.66269758232266     -1.30647307629055     -0.35055233954536
  H   -0.81903538360691     -1.06011532629147     -1.31786229101074
  H   -1.54316363283553     -1.54583445840091      0.08905201225716
