12
Coordinates from ORCA-job run
  C   -0.12994525027915     -0.18583121347980      0.37601057619439
  C   1.25112061873017      0.04700497081844     -0.19729042657804
  F   -0.00524199452472     -0.51713987834928      1.68575416611126
  H   1.77142547017900      0.81629993440472      0.37652922636988
  H   1.17701412607304      0.35536273339156     -1.23986343134704
  H   1.81772221478969     -0.88378785986960     -0.13196035898434
  N   -0.88183804690095      1.14463904890507      0.30817971280103
  O   -1.24497693500626      1.47248990402959     -0.81854924157590
  O   -1.02601360085261      1.78036357880434      1.34008324038864
  N   -0.98437477919510     -1.13844403570895     -0.24689287750017
  H   -0.53663464422307     -2.04572614028158     -0.26404334863414
  H   -1.21025717879002     -0.84623104266450     -1.18795723724556
