18

C	0.0	0.0	0.0
C	-0.494785	0.008196	-1.439651
F	1.411927	0.0	0.0
H	-0.122322	-0.904597	-1.924667
H	-1.588389	-0.051851	-1.332417
C	-0.496736	1.214505	0.757424
H	-1.592305	1.15673	0.6813
H	-0.106225	2.141813	0.328238
H	-0.177906	1.159919	1.804066
C	-0.495557	-1.256908	0.684947
H	-0.128414	-1.302537	1.716299
H	-1.591372	-1.174713	0.65338
H	-0.150344	-2.148152	0.149448
C	-0.062817	1.227484	-2.248872
H	1.013168	1.404836	-2.154693
H	-0.589952	2.126558	-1.921945
H	-0.290001	1.08668	-3.311012
F	-3.053422	0.0	0.0
