14

C	0.0	0.0	0.0
C	-0.284926	-0.105211	-1.538983
F	1.382943	0.0	0.0
H	0.518118	0.51265	-1.956705
H	-0.312095	-0.906614	0.531373
N	-0.56714	1.206601	0.501745
H	-1.588718	0.987663	0.42142
H	-0.356487	1.258233	1.494555
N	-1.54438	0.322233	-2.10905
H	-1.519534	1.335474	-2.107299
H	-2.281359	0.07492	-1.40526
C	0.020033	-1.488241	-1.956555
N	0.250167	-2.59064	-2.289693
F	-2.930251	0.0	0.0
