14

C	0.0	0.0	0.0
C	-0.493112	-0.07129	-1.430825
F	1.413323	0.0	0.0
H	-1.590292	-0.110352	-1.27222
H	-0.280314	-0.952072	0.465785
N	-0.531029	1.158124	0.630044
H	-1.55933	0.963511	0.52245
H	-0.312337	1.103913	1.621952
N	0.004202	-1.290888	-2.072703
H	1.003511	-1.193246	-2.217021
H	-0.427502	-1.379454	-2.986502
C	-0.110112	1.141791	-2.173409
N	0.240917	2.053265	-2.827695
F	-2.812304	0.0	0.0
