14

C	0.0	0.0	0.0
C	-0.27468	0.276491	-1.517965
F	1.373165	0.0	0.0
H	0.554737	0.943281	-1.785736
H	-0.317263	-1.013536	0.272001
N	-0.552169	1.028811	0.813599
H	-0.390007	0.766056	1.782403
H	-1.572167	0.900657	0.647227
N	-1.528336	0.902732	-1.875954
H	-1.723395	0.722763	-2.85257
H	-2.279806	0.504051	-1.25774
C	-0.011704	-0.997072	-2.235676
N	0.166741	-1.980742	-2.854655
F	-2.949421	0.0	0.0
