16
Coordinates from ORCA-job run
  C   -0.71135722942177      0.24867234865210     -0.27484199981906
  C   0.79804275404736      0.30451534476771      0.02784145776242
  Br  -0.90517728302153      1.84370022199381     -1.71634854783786
  H   1.13003290820833      1.33640907881754      0.11264889127819
  N   -1.05144572758983     -0.96106134018879     -0.88659315945845
  H   -0.60433226489137     -1.04327673813309     -1.79007588858984
  H   -2.05079430284227     -1.08903681743289     -0.97398400493885
  N   -1.50415376774901      0.53099973046325      0.83777088365426
  H   -1.20620237081213      1.36060826663907      1.33236303093818
  H   -2.48558651905227      0.60289739693175      0.60515463622796
  N   1.53581520462130     -0.41542963169043     -0.94353326169096
  H   2.50711913831264     -0.13734931197294     -0.94891430301992
  H   1.46998237638832     -1.40778990339674     -0.74745546605030
  N   0.98340472673073     -0.26019000683926      1.44631604134276
  O   0.90268607093558      0.55070158955123      2.36575732926880
  O   1.19396628613591     -1.46237022816231      1.55589436093269
