16
Coordinates from ORCA-job run
  C   -0.55517981471163      0.34065168605909     -0.35916659036409
  C   0.87656606459609      0.23556391887325      0.21809587732500
  Br  -0.37725104424800      1.73452524929139     -1.83091433559776
  H   1.21883799674740      1.21384708600446      0.55433379045236
  N   -0.90832229688858     -0.86941880446887     -1.04642874134945
  H   -1.67732740211507     -0.72417673293825     -1.68686197995688
  H   -1.14833513979518     -1.57761657973045     -0.36020959198144
  N   -1.46149947727587      0.72026184246568      0.65030728778754
  H   -2.40868839689777      0.80925129524252      0.30685230400218
  H   -1.18825909563898      1.55833408468651      1.14912328572597
  N   1.82953174544374     -0.39498584850258     -0.62088552440018
  H   1.35324756339662     -1.02296699085852     -1.25868059871249
  H   2.35827031613493      0.28957147444769     -1.14029890096667
  N   0.73685754088962     -0.57412982321477      1.49730838207351
  O   0.85180331308827      0.03196993424270      2.55854642850099
  O   0.50074812727440     -1.77068179159987      1.36887890746141
