16
Coordinates from ORCA-job run
  C   -0.75858791932940     -0.04869836113062     -0.15773347195943
  C   0.74175667290301      0.23030898135854      0.04026087197468
  Br  -1.03277045165304     -2.05368283554825     -0.28001829267597
  H   0.84841867113325      1.31716839741972      0.05675851186963
  N   -1.50339643614318      0.33852082103214      1.00198661185239
  H   -2.46144846385406      0.01873479761168      0.94014019989290
  H   -1.49001712361429      1.35070059026138      1.07848966859461
  N   -1.12590341800898      0.60601486392227     -1.36138963377901
  H   -0.51105528343320      0.33136289782448     -2.11938077247036
  H   -2.08967544398647      0.41580002184166     -1.60635547404338
  N   1.51880249811595     -0.32878941063582     -1.00750550203805
  H   1.54983081048637     -1.33761157352134     -0.91624671171935
  H   2.46255827794690      0.03519618277503     -0.99594254090354
  N   1.17202721833550     -0.19416703344807      1.43718031543010
  O   1.07313467853030      0.65346442018923      2.31895534552969
  O   1.60732571257134     -1.33432275995205      1.56880087444513
