16
Coordinates from ORCA-job run
  C   -0.88089442965476      0.17060288301943      0.15407562781625
  C   0.65846920334169      0.27581649834980      0.28710539097798
  Br  -1.71867320811876      0.40539717717395      1.90661685533077
  H   0.90614006796238      1.25985459618528      0.68484604479655
  N   -1.40013546247344      1.23285113876554     -0.68380251865179
  H   -0.84483711946858      1.24653825372641     -1.53519524672007
  H   -1.31930350579818      2.13476112254337     -0.22755627218466
  N   -1.21764723445796     -1.13646021101431     -0.33094684546995
  H   -0.81601443418758     -1.24866222069454     -1.25720869516635
  H   -2.22578166160185     -1.18119417555264     -0.43412696922548
  N   1.24201442388603      0.07026272462417     -1.00824719261638
  H   2.13974250863320      0.53307046910668     -1.07114868276021
  H   1.39668408435545     -0.92439042778740     -1.13936894696420
  N   1.21778356104042     -0.70743284125622      1.30472869295425
  O   1.50134415100826     -1.83040223840906      0.89539449020004
  O   1.36210905553368     -0.29861274878047      2.45283426768326
