16
Coordinates from ORCA-job run
  C   -0.62855405578010      0.32137093235913     -0.39605299228596
  C   0.84216952381415      0.37753218481522      0.06724548721471
  Br  -0.75091825948825      1.63780663692609     -1.91530324975228
  H   1.12355866972285      1.39533613910679      0.34273827993901
  N   -0.91708693531370     -0.96866055163548     -0.97036118154310
  H   -1.66067539458444     -0.91280728477531     -1.65236213689754
  H   -1.17420866027299     -1.60468660195043     -0.22297123576649
  N   -1.48238044083419      0.64859450936422      0.68445781905782
  H   -1.23659677485843      1.52085558440090      1.13747553382499
  H   -2.45152662373384      0.67389638255307      0.39462509000554
  N   1.69969447185147     -0.16883599307908     -0.89980342742643
  H   1.35847202239359     -1.07146783433825     -1.20372640500009
  H   2.66130706309709     -0.20836772822457     -0.59516969411019
  N   0.86698932192868     -0.36804929540778      1.41786425423560
  O   0.89476140375471      0.32213251472891      2.43309119767200
  O   0.85699466830341     -1.59564959484344      1.37825266083242
