16
Coordinates from ORCA-job run
  C   -0.67150133534658      0.35684131600366     -0.34122841585384
  C   0.83893997074222      0.33443547162349     -0.01481314323183
  Br  -0.88089186921016      1.87689653156124     -1.67824275434408
  H   1.23753797224477      1.34490363867363     -0.02807301604572
  N   -1.07651394065627     -0.87934743814080     -0.88615188145414
  H   -2.07255297442093     -0.89109919745055     -1.06464179729038
  H   -0.56905669872794     -1.09353994367529     -1.73634106690348
  N   -1.42485291225117      0.76615463112319      0.81289058896586
  H   -1.61788486628348     -0.05249623765169      1.38145137669979
  H   -2.29214242850727      1.21325101223105      0.55088406652481
  N   1.54824098499490     -0.53225750307486     -0.89284256378495
  H   1.37458654031852     -1.49580196258806     -0.62928750412498
  H   2.54252976841192     -0.35012930983396     -0.86854767248312
  N   0.98216603747198     -0.09019836297020      1.44527599441878
  O   0.70516591561761     -1.26067645451494      1.70685493396888
  O   1.37722983560193      0.75306380868408      2.24281285493841
