16
Coordinates from ORCA-job run
  C   -0.72529987151096     -0.02592527674410     -0.40425770522314
  C   0.64887296451390      0.04063344180600      0.30897996554018
  Br  -0.41487767477443     -0.63165990171732     -2.30072065899471
  H   0.42649547686277      0.41201649861201      1.32003108982801
  N   -1.56392022177847     -0.90808953515891      0.27819592383827
  H   -2.54497074875129     -0.75162483178058      0.12216660558740
  H   -1.28942312427532     -1.23770203107554      1.18784742769897
  N   -1.35639482026385      1.26652739552186     -0.55367876365475
  H   -1.42423360831015      1.73378546044432      0.34401019168014
  H   -0.92112578806875      1.85744890839122     -1.24820274790717
  N   1.63246828373714      0.76151744132996     -0.41746051814303
  H   1.25133862557553      1.59822065521011     -0.83276702262836
  H   2.42163814087163      1.00150725279050      0.16711800521895
  N   1.16938894118123     -1.36301231308305      0.59202225087395
  O   0.75241494680608     -1.86902747418826      1.63779845337728
  O   1.93862847818498     -1.88361569035827     -0.20008249709198
