16
Coordinates from ORCA-job run
  C   -0.74086635280073      0.29551807605440     -0.39134106627958
  C   0.77702041958050      0.33927693083391     -0.05184970045896
  Br  -0.91083793848679      1.70060229474063     -1.87017363027901
  H   1.13042660834420      1.36775418593702     -0.05325532268259
  N   -1.08992870962308     -0.99696000263495     -0.81264893145111
  H   -0.56186921974432     -1.27442198478538     -1.62959347363711
  H   -2.08363108659754     -1.04300847687380     -1.00033465158055
  N   -1.65977714600396      0.70364525232365      0.61950592946312
  H   -1.68106534323291      0.01495628193829      1.36300229975701
  H   -1.43784306932446      1.61529871257339      0.99488502404411
  N   1.53325416524623     -0.48692589498215     -0.92334599579609
  H   2.50703892586853     -0.21651892055065     -0.93795290789619
  H   1.46104700532573     -1.45156464464893     -0.61994185282663
  N   0.90139123522325     -0.08780428322603      1.41298171159648
  O   1.04736315295833     -1.28474497795903      1.64671512415584
  O   0.80627735326698      0.80389745125966      2.25434744387125
