16
Coordinates from ORCA-job run
  C   -0.68634126452028     -0.06544996320122     -0.35824616554819
  C   0.59400362870927      0.12698649682762      0.51209243202363
  Br  -0.00555891349892     -0.85592478517193     -2.12928618678079
  H   0.22930780773137      0.40896539411508      1.50424483087765
  N   -1.64678845975411     -0.83980897912740      0.29646543051435
  H   -2.46367732697628     -0.97557488104145     -0.28372821768177
  H   -1.28837680300925     -1.70752735394701      0.66941389661907
  N   -1.31478780258711      1.15954243512450     -0.74672672323750
  H   -1.69563418461283      1.62105893803851      0.07152670089661
  H   -0.69361632942818      1.76750772295904     -1.26091658861087
  N   1.56113250363845      1.06446780204640      0.06856082264670
  H   1.26769091389937      2.01478688867196      0.23382580274183
  H   1.82878354316485      0.91805339375549     -0.89555209073420
  N   1.28101836061395     -1.21108305861412      0.72151177713662
  O   0.66383162466131     -2.03226930043962      1.40310835049657
  O   2.36801270196840     -1.39373074999583      0.19570592864028
