16
Coordinates from ORCA-job run
  C   -0.64678570711594      0.24482434744171     -0.23200295085393
  C   0.83842471351963      0.26087958793859      0.18353151526890
  Br  -0.53670930529283      1.75214089829526     -1.87159264579547
  H   1.12823000146020      1.28701520421228      0.40273946372223
  N   -1.05108953880322     -0.95893047205715     -0.78768759176812
  H   -0.55319964767572     -1.17876614913941     -1.63749006957970
  H   -2.04856327664630     -1.02484934175602     -0.93812490365398
  N   -1.48851183959943      0.71012650933957      0.75906567610010
  H   -2.45003047766577      0.82416836838027      0.46951261297850
  H   -1.14980583447378      1.53991292448528      1.22432209940412
  N   1.78246788524637     -0.34875199025632     -0.69097971946099
  H   1.58897377622799     -1.33406849811249     -0.81146634982564
  H   1.81643656512577      0.13933280167879     -1.57554257719807
  N   0.91174886342217     -0.46445127052910      1.51022706540441
  O   0.82163138406830      0.23287556551407      2.51734105278051
  O   1.03878243820259     -1.68245848543534      1.47714732247713
