16
Coordinates from ORCA-job run
  C   -0.85258704636263      0.30618152226064      0.17139025287855
  C   0.69254442660042      0.33639719229330      0.26463179314451
  Br  -1.55585416285926      0.55313286941599      1.99784841009720
  H   1.00256009779027      1.31734918987359      0.62072896596512
  N   -1.20098632695931      1.45670291939498     -0.60544524062199
  H   -2.19484052988975      1.43406440902336     -0.80244816292535
  H   -0.67376610672329      1.43118173941396     -1.47230800999851
  N   -1.44745486657326     -0.90011092004491     -0.33625564274943
  H   -1.21571742630799     -1.00462684125134     -1.31746565466589
  H   -1.15352609862092     -1.72038915581340      0.18015184338160
  N   1.23420217040017      0.05680918287453     -1.03187143151002
  H   1.18134791364843     -0.93784735628044     -1.21857023580066
  H   2.20120727811408      0.34943513978505     -1.09307816954569
  N   1.19593373013910     -0.64466303178854      1.30136766329254
  O   1.74949303351089     -0.19493883985608      2.29846703946562
  O   1.03644391409304     -1.83967801930069      1.04285657959240
