16
Coordinates from ORCA-job run
  C   -0.66383442175916      0.31823858723333     -0.51840297572446
  C   0.79544960238681      0.41279865164098     -0.01142080741552
  Br  -0.75625935485242      1.52857730241633     -2.07250425244140
  H   1.04812882541550      1.45098932922375      0.20860230006291
  N   -0.91496224692319     -1.01790529437094     -0.97406176221685
  H   -1.86439397309469     -1.07687958213696     -1.32253390056978
  H   -0.79295458897252     -1.67168762872501     -0.20644921525631
  N   -1.66262696759893      0.78807069979670      0.40630065230237
  H   -1.47038275596255      1.72556918754668      0.73904939506990
  H   -1.74381534337614      0.15720541905642      1.19576845800900
  N   1.70916004081849     -0.18219678687476     -0.89239198182099
  H   2.65854472931283     -0.19781137008928     -0.55094120533565
  H   1.39626796698264     -1.08528039620005     -1.21777399985932
  N   0.76791425544811     -0.22689522089992      1.39679770135741
  O   0.79533715733827      0.53385381344241      2.36150767635051
  O   0.69842707483694     -1.45564671105967      1.45845391748815
