16
Coordinates from ORCA-job run
  C   -0.74680295738368      0.33884365769570      0.10676909078629
  C   0.78517788088091      0.28563067640959      0.19370258165144
  Br  -1.42200296859346      0.76819431611882      1.95747926980385
  H   1.14551367711343      1.25149981193827      0.54167200850418
  N   -1.06444711013653      1.49205694882796     -0.68732111817949
  H   -2.05948872230360      1.67825331719387     -0.67318619341599
  H   -0.75298936877930      1.31051322319167     -1.63554074475409
  N   -1.27322673936784     -0.87936008909645     -0.39725860895005
  H   -1.06081567567468     -1.66753045051405      0.20235451004017
  H   -2.27232908299539     -0.80932725564207     -0.54190206458905
  N   1.29985479915277     -0.03051663261089     -1.09380738079616
  H   2.30781457007848      0.04268926950485     -1.13068517241296
  H   0.98892986541639     -0.94674254567334     -1.39019051783410
  N   1.24507089955118     -0.69787359786280      1.26611013305484
  O   1.96307004813469     -0.25898771549108      2.15861097289787
  O   0.91767088490661     -1.87734293399006      1.12519323419320
