16
Coordinates from ORCA-job run
  C   -0.83201253198310      0.26007451934056      0.02846355098570
  C   0.69426263708000      0.26445873642342      0.25378762316629
  Br  -1.64476673584462      0.60340501126423      1.85628688994675
  H   0.99427505112688      1.21886318060029      0.68547847830477
  N   -1.27254119840300      1.35208648219726     -0.79451753776176
  H   -1.13829865596667      2.23692928721974     -0.32223520019777
  H   -0.71750289398977      1.33612781259294     -1.64494706318314
  N   -1.25027262749654     -0.93432851414607     -0.57914340405011
  H   -1.04802936487510     -1.75642978515568     -0.02695088659241
  H   -2.22801076711118     -0.87323761402995     -0.82994097571260
  N   1.33808216378255      0.04259937631595     -0.99548502680988
  H   1.07290845071017     -0.85462211391481     -1.38121236513084
  H   2.34386178879372      0.12653883383353     -0.92828523463595
  N   1.10963313982294     -0.75374389519509      1.31200003385951
  O   0.83207061931296     -1.93396462358298      1.09437110013896
  O   1.74734092504081     -0.33575669376330      2.27333001767247
