16
Coordinates from ORCA-job run
  C   -0.80238733767162      0.14891260412174     -0.05928508567201
  C   0.66258712451133      0.24008886516502      0.42632016031234
  Br  -1.93733711195600      0.29717120392078      1.61523722365427
  H   0.80784127761047      1.19257588784178      0.93482250456159
  N   -1.20067072821592      1.26691049421806     -0.86951325145837
  H   -1.16300053781189      2.13643279453266     -0.35414944851525
  H   -0.60645049020063      1.31346028345867     -1.68949608346122
  N   -1.01417688943928     -1.01608065240519     -0.81516442983351
  H   -0.80028372688349     -1.85995690444727     -0.30017164945924
  H   -1.95267005386140     -1.02557316667202     -1.19227581659076
  N   1.60938117451436      0.05319514486693     -0.62337904271193
  H   1.22783141776811     -0.49481025426371     -1.38175396018032
  H   2.03122496132635      0.91050874878350     -0.94036886001010
  N   0.95807336970895     -0.79590280808444      1.49473637789284
  O   0.73566163809112     -1.97055620734985      1.20690089127550
  O   1.44437591250960     -0.39537603368668      2.54554047019617
