16
Coordinates from ORCA-job run
  C   -0.65119320910529      0.22985689496003     -0.23355212692935
  C   0.83404680064060      0.28261812984633      0.17999809016303
  Br  -0.58616072401555      1.73831025165889     -1.86772117589747
  H   1.10048554399334      1.31561411388932      0.39666339999152
  N   -1.02435914006847     -0.98506297776905     -0.79011007334272
  H   -0.54147762403279     -1.17967413245151     -1.65457758797980
  H   -2.02245552986116     -1.08678495776738     -0.91385437766087
  N   -1.50380997127465      0.66770470420236      0.76144401071690
  H   -1.17797911319569      1.49308143085759      1.24350262825665
  H   -2.46484484371566      0.77493612275634      0.46783613306463
  N   1.78952122171583     -0.30776056092092     -0.69498337306169
  H   1.61320104642004     -1.29619571658642     -0.81647260805002
  H   1.81485535395069      0.18176420938999     -1.57892047170577
  N   0.92596012368616     -0.43739731334867      1.50823220581360
  O   0.81290567649213      0.25980086140700      2.51341994975866
  O   1.08330438837050     -1.65181106012389      1.47909537686267
