16
Coordinates from ORCA-job run
  C   -0.75695506776837      0.27794432973956     -0.37388469479212
  C   0.76373002602310      0.36300312355817     -0.05592252017734
  Br  -0.98699266134026      1.69645366628405     -1.83367601796824
  H   1.08328123435598      1.40237668174420     -0.03912532765006
  N   -1.07270547818854     -1.01874087981509     -0.80536205321792
  H   -0.54266934995882     -1.27447572833365     -1.62803835081267
  H   -2.06622984886090     -1.09339131095010     -0.98395994875553
  N   -1.67421086219356      0.64864713217936      0.65259616265547
  H   -1.47678181633142      1.56472465847400      1.03081343997840
  H   -1.66271664538367     -0.04463585032500      1.39192129241241
  N   1.53253708694612     -0.41959996523653     -0.95695741143716
  H   2.49220101781612     -0.10495208743657     -0.99485891745666
  H   1.51218921888676     -1.38951497492218     -0.66262678304488
  N   0.92543073446270     -0.09301425489829      1.39636499493229
  O   0.80603206034547      0.77424317206124      2.25983433402102
  O   1.12286035118925     -1.28806771212312      1.59988180131293
