16
Coordinates from ORCA-job run
  C   -0.70179791449953      0.07951979812448     -0.12347088495289
  C   0.74618548126219      0.10691483425077      0.42565122192922
  Br  -0.56439410096098     -1.10272526403464     -1.89783729992642
  H   0.65349565535306      0.53564807076941      1.42730155012024
  N   -1.62288511877071     -0.45631734336020      0.77356503143508
  H   -1.28785643976826     -1.30421853451177      1.21083603663696
  H   -2.53470493637753     -0.59959493635282      0.35997412201637
  N   -1.05733374523285      1.39586361944137     -0.50006454399071
  H   -2.06170053862546      1.51188339480897     -0.53532562110402
  H   -0.65656468549657      1.65155797476499     -1.39123288456909
  N   1.71321881035471      0.82661708753977     -0.32061778651954
  H   1.53183452186097      1.81849606191012     -0.27112626066434
  H   1.76901228438545      0.50615676480939     -1.27876066628791
  N   1.24560542599761     -1.30523177331225      0.64574758298614
  O   2.18075546970069     -1.70595750711688     -0.02867102421434
  O   0.64712983081722     -1.95661224773066      1.50503142710527
