16
Coordinates from ORCA-job run
  C   -0.67349209635468      0.09781780027635     -0.35249136909734
  C   0.72073903023309      0.09659381745203      0.34909202021406
  Br  -0.46529931823689     -0.58221273994996     -2.18006434724900
  H   0.54392105556281      0.51284147920985      1.34772460974774
  N   -1.71024236454223     -0.69457691916167      0.25955009481290
  H   -1.79786918161985     -0.43485859391498      1.23773757953316
  H   -1.50010924221632     -1.68508556003589      0.22280733628326
  N   -1.02872910032401      1.49476775944940     -0.44487888760987
  H   -1.89995399173199      1.56920294809338     -0.95985612309185
  H   -1.19778383011508      1.84973791002111      0.49351649419318
  N   1.78880110243645      0.79661293312482     -0.29103290448521
  H   2.06538483107347      0.29031709742858     -1.12424336131292
  H   1.43469551874263      1.70385351219653     -0.57251161466993
  N   1.14728463559559     -1.31550756898516      0.60955372009696
  O   0.63917414308132     -1.87022781220020      1.58437890841926
  O   1.93347880841565     -1.82927606300417     -0.17928215578439
