16
Coordinates from ORCA-job run
  C   -0.76724884749111      0.24034196745208      0.07475296279332
  C   0.75096620910440      0.16203049359221      0.32645267015315
  Br  -1.67680686295592      0.78566412745195      1.78836046949974
  H   1.09381124816114      1.10197810288373      0.77286578275193
  N   -0.95578982646590      1.26590704155085     -0.92073170357217
  H   -0.80786521990420      2.18820621460101     -0.52440152167237
  H   -1.90313186047559      1.23105465783554     -1.27890337848075
  N   -1.25579403102189     -1.03824987934306     -0.27723321477484
  H   -0.62412798883965     -1.48958999522526     -0.92810686290803
  H   -2.20858421761795     -1.01951547932321     -0.61301459909966
  N   1.36642231990852     -0.23696631695803     -0.90871123535785
  H   2.37423997543268     -0.27394658115755     -0.82193072007407
  H   1.10206204775912      0.43072426295933     -1.62250418654801
  N   1.08204759382577     -0.87013047644021      1.38200221818781
  O   1.14358038608710     -2.04479092833437      1.04094062676792
  O   1.28721907449350     -0.42971721154500      2.51116269233387
