16
Coordinates from ORCA-job run
  C   -0.68769697419559      0.01927381916918     -0.19540190570217
  C   0.80382804689055      0.09936584975235      0.20618222305763
  Br  -1.16623519576272     -1.89022652968975     -0.62250916157351
  H   1.00866707984744      1.16079929931191      0.35693489284791
  N   -1.51544735519966      0.37480563140315      0.91468335569457
  H   -2.49501702865481      0.22097799710374      0.71309593547943
  H   -1.36132528818181      1.34790894745795      1.15742860196934
  N   -0.84784596259655      0.85340621741841     -1.34538752056236
  H   -0.30723045795191      0.50677822773038     -2.12935833665035
  H   -1.82183569929542      0.88525663715280     -1.62319778876211
  N   1.76479581118414     -0.45118234649905     -0.68472775056154
  H   2.05080641291710      0.19760703943464     -1.40097402175896
  H   1.48149745766543     -1.34317294867560     -1.06520059264174
  N   0.98357616898762     -0.51351450940353      1.57211236201960
  O   0.94517702821013      0.25817474082820      2.52690550994958
  O   1.16128595613609     -1.72425807249477      1.62041419719468
