16
Coordinates from ORCA-job run
  C   -0.78648129944613      0.17441432688157     -0.04100961552727
  C   0.67892870576006      0.11845628629877      0.40922752351646
  Br  -0.63145123983601     -0.85518249561275     -2.03832317366143
  H   0.69427506524903      0.46040454625640      1.44905269935371
  N   -1.68566320356224     -0.52882136248071      0.73551416353960
  H   -2.63647657911899     -0.46335158490597      0.39925104581599
  H   -1.40913943475753     -1.48639277621720      0.89512264824524
  N   -1.15004645918906      1.48808531259425     -0.26773027272199
  H   -0.45466990996762      1.98400288358105     -0.80717446747736
  H   -2.08193955713589      1.59722816139271     -0.64251008756593
  N   1.49010323273498      0.94208166100210     -0.40427525847168
  H   2.39474131065653      1.09784906377866      0.01770814559868
  H   1.61680937380016      0.51221559507569     -1.31391475923082
  N   1.18690157984167     -1.33345004444727      0.49610262956742
  O   0.53138468327953     -2.11653585019582      1.17946993298266
  O   2.24172373169155     -1.59000372300148     -0.06651115396332
