16
Coordinates from ORCA-job run
  C   -0.78710030700018      0.01639170861515     -0.29852084775190
  C   0.57609984585501      0.14148232041021      0.42476196241579
  Br  -0.27727003894639     -0.65376030279244     -2.18941019389970
  H   0.34732980042366      0.34781092160683      1.47500440487563
  N   -1.67752426937929     -0.82627045899606      0.37238503859327
  H   -2.54659493425239     -0.90430836756797     -0.13917679924888
  H   -1.28695000015139     -1.72957448818325      0.59856540653130
  N   -1.43559061273457      1.26589694079941     -0.51576819925512
  H   -0.77852304216967      1.94958393608500     -0.86854787197261
  H   -1.81897759468777      1.58127544512203      0.36872572466878
  N   1.37009360625945      1.17176997653697     -0.12984013630915
  H   1.71053652669300      0.90030145804251     -1.04475556412318
  H   2.16363757577750      1.37734346945652      0.46148988317817
  N   1.30280781344976     -1.21715867699556      0.47254724992593
  O   2.42252447663288     -1.27982921002396     -0.01820292133913
  O   0.71550115423041     -2.14195467211540      1.03174286371079
