18

C	-0.476016	-0.021379	-1.451097
C	0.0	0.0	0.0
F	0.209851	0.902075	-2.228908
H	1.095503	0.0	0.0
C	-0.166097	-1.346808	-2.039569
N	-0.009012	-2.384859	-2.566277
C	-1.966737	0.239384	-1.63585
H	-2.555215	-0.502497	-1.092308
H	-2.216194	0.182511	-2.698004
H	-2.190601	1.238605	-1.266562
C	-0.373391	-1.232465	0.80077
H	0.134696	-1.174119	1.762332
H	-1.449966	-1.320112	0.978973
H	-0.011521	-2.12561	0.288981
N	-0.40656	1.207394	0.68152
O	-0.476489	1.17758	1.924878
O	-0.521759	2.258321	0.021506
H	2.491476	0.0	0.0
