18

C	-0.480691	0.009439	-1.450135
C	0.0	0.0	0.0
F	0.208401	0.941481	-2.213741
H	1.09145	0.0	0.0
C	-0.186262	-1.307196	-2.064729
N	-0.044053	-2.336097	-2.613149
C	-1.97092	0.285671	-1.622406
H	-2.228043	0.244302	-2.683178
H	-2.562226	-0.457261	-1.084102
H	-2.18381	1.282066	-1.239206
C	-0.380955	-1.244811	0.777826
H	-0.031524	-2.1312	0.245905
H	-1.457244	-1.325128	0.960846
H	0.133747	-1.211324	1.737066
N	-0.402971	1.197713	0.705175
O	-0.493074	1.140467	1.94593
O	-0.494165	2.263288	0.066742
H	2.501803	0.0	0.0
