18

C	-0.401713	0.011254	-1.459743
C	0.0	0.0	0.0
F	-1.806835	0.024618	-1.58523
H	1.092001	0.0	0.0
C	0.087244	1.179213	-2.222862
N	0.41242	1.985991	-3.011175
C	0.130645	-1.23169	-2.156283
H	-0.032459	-1.151217	-3.231688
H	1.200762	-1.311479	-1.942469
H	-0.390445	-2.113435	-1.784409
C	-0.418755	-1.250402	0.744833
H	-0.138827	-1.139584	1.789934
H	0.134436	-2.103908	0.350153
H	-1.49383	-1.439117	0.680761
N	-0.453681	1.209165	0.694423
O	-0.705318	1.138955	1.904387
O	-0.478993	2.269745	0.058029
H	2.58509	0.0	0.0
