18

C	-0.380474	-0.006633	-1.468849
C	0.0	0.0	0.0
F	-1.775085	-0.199155	-1.615612
H	1.091816	0.0	0.0
C	-0.084868	1.243587	-2.197261
N	0.119066	2.128389	-2.943718
C	0.343444	-1.135315	-2.181929
H	0.175375	-1.062696	-3.257815
H	1.41043	-1.052204	-1.949752
H	-0.031146	-2.094807	-1.828144
C	-0.458425	-1.237512	0.740153
H	0.086485	-2.101	0.348615
H	-1.53593	-1.40572	0.666764
H	-0.188981	-1.134103	1.790771
N	-0.458741	1.223593	0.676836
O	-0.094364	2.302312	0.195296
O	-1.10987	1.127153	1.725389
H	2.622385	0.0	0.0
