18

C	-0.421699	0.073334	-1.476581
C	0.0	0.0	0.0
F	-0.257635	-1.224458	-1.991065
H	1.091365	0.0	0.0
C	-1.864397	0.373533	-1.630084
N	-3.009463	0.596151	-1.780257
C	0.450024	0.981807	-2.323161
H	0.265926	0.756003	-3.376207
H	0.228743	2.026078	-2.11951
H	1.490544	0.772685	-2.056321
C	-0.467278	-1.246648	0.718922
H	-0.100563	-2.119591	0.179847
H	-0.035165	-1.252544	1.718618
H	-1.558718	-1.296794	0.798889
N	-0.40797	1.203189	0.719263
O	-0.628421	2.242222	0.071112
O	-0.416554	1.158823	1.954191
H	2.61677	0.0	0.0
