18

C	-0.429343	0.106023	-1.472003
C	0.0	0.0	0.0
F	-0.283565	-1.181472	-2.014948
H	1.091345	0.0	0.0
C	-1.867098	0.426618	-1.615588
N	-3.008524	0.667032	-1.758658
C	0.449174	1.021442	-2.302915
H	0.243375	0.839295	-3.360776
H	0.256186	2.061336	-2.059574
H	1.487488	0.781108	-2.059261
C	-0.471362	-1.255911	0.698927
H	-0.038893	-1.280685	1.697233
H	-0.109565	-2.120689	0.146546
H	-1.561906	-1.30372	0.778574
N	-0.393955	1.191118	0.747075
O	-0.629274	2.236751	0.117808
O	-0.376761	1.131027	1.982437
H	2.617093	0.0	0.0
