11
Coordinates from ORCA-job run
  C   0.11068565726844      0.26082208933109      0.28965527474775
  C   -0.92329065924755     -0.83971748882532      0.20281814153638
  Cl  0.68696998958142      0.45745032244701      1.95816463008184
  H   -0.49907429880420     -1.76619702042055      0.58473520440409
  H   -1.79362794879725     -0.55919560431182      0.79632961337070
  H   -1.22492075734163     -0.97612419601181     -0.83801177888334
  N   1.34600309061962     -0.12527409243281     -0.55017320632865
  O   1.88847203598373      0.76902100140018     -1.18419766914731
  O   1.68704436907523     -1.29647680978453     -0.48022653001309
  C   -0.39574004133087      1.53621834863599     -0.20361406364789
  N   -0.88252143700694      2.53847344997257     -0.57647961612047
