11
Coordinates from ORCA-job run
  C   0.11880524596525      0.26330579453523      0.34617199636266
  C   -0.91876625613934     -0.82627918698541      0.13471534866351
  Cl  0.59222399157037      0.37079074069296      2.03919772468836
  H   -1.81219025009755     -0.59566413423286      0.71503551658800
  H   -1.17548876842760     -0.87903019187441     -0.92481841487617
  H   -0.50700253357274     -1.78003828836063      0.46911414530339
  N   1.34275862217617     -0.13037600702177     -0.51812059769868
  O   2.24196725693955     -0.75562807988410      0.01493522477439
  O   1.23205564909091      0.15994908695607     -1.70198470681827
  C   -0.34471221463485      1.56653839563486     -0.11644003598531
  N   -0.77065074287016      2.60643187054005     -0.45980620100187
