11
Coordinates from ORCA-job run
  C   0.11630589834372      0.25866293093528      0.34655760657538
  C   -0.92141223140172     -0.82655072313625      0.11596413011398
  Cl  0.58361287542437      0.33955193983075      2.04424108428343
  H   -1.17076314078340     -0.86783416165126     -0.94608050968053
  H   -1.81877806472745     -0.60069425448829      0.69166843075484
  H   -0.51318809508682     -1.78409645142352      0.44260599812789
  N   1.34420877149531     -0.12741970598787     -0.51282250075983
  O   2.18188993889244     -0.85146376472560     -0.00452038391895
  O   1.29859608147241      0.26629500937108     -1.67088984332491
  C   -0.34209728864041      1.57043276611915     -0.09619215165766
  N   -0.75937474498844      2.62311641515653     -0.40953186051364
