11
Coordinates from ORCA-job run
  C   0.14450802761380      0.26594742913891      0.33380428161574
  C   -0.93105956447790     -0.79918839741815      0.20184960545796
  Cl  0.71462812649033      0.39080152264894      1.99583018005405
  H   -1.78186851339063     -0.53647625586655      0.83011355018614
  H   -0.52426831705564     -1.75786511150311      0.52735980224678
  H   -1.25146838821889     -0.86150295697768     -0.83942291887653
  N   1.30751170506644     -0.17567207701239     -0.58935104270978
  O   1.13963090796750      0.10030675303511     -1.76990330710027
  O   2.21790502653141     -0.81697863280881     -0.09603920602884
  C   -0.30944006676571      1.57293222372924     -0.12774668046481
  N   -0.72607894376071      2.61769550303449     -0.46749426438044
