17

C	0.0	0.0	0.0
C	-0.173425	0.120305	-1.555184
Cl	1.921104	0.0	0.0
H	0.605472	0.81321	-1.893331
C	-0.415132	1.256996	0.721859
H	-0.097604	1.20127	1.764185
H	-1.507482	1.325182	0.672752
H	0.03397	2.138819	0.260506
N	-0.525648	-1.158852	0.56975
H	-0.589133	-1.874009	-0.148075
H	-1.469261	-0.957636	0.90428
C	-1.400719	0.753735	-2.05705
N	-2.151907	1.391966	-2.698077
N	-0.015517	-1.208859	-2.150571
H	-0.483529	-1.255351	-3.045948
H	0.971958	-1.391963	-2.279898
Br	-3.863801	0.0	0.0
