17

C	0.0	0.0	0.0
C	-0.486959	-0.025658	-1.454599
Cl	1.801499	0.0	0.0
H	-1.584488	-0.008305	-1.371657
C	-0.436072	1.286267	0.686495
H	-1.528732	1.314472	0.680211
H	-0.079903	1.276578	1.720872
H	-0.037576	2.160195	0.173015
N	-0.472241	-1.212515	0.619738
H	-0.222119	-1.195432	1.603229
H	-1.495462	-1.174305	0.568391
C	-0.092088	-1.281903	-2.121073
N	0.244769	-2.202183	-2.769577
N	-0.060619	1.155001	-2.195757
H	-0.642985	1.253912	-3.018022
H	0.898311	1.035158	-2.500636
Br	-3.83494	0.0	0.0
