17

C	0.0	0.0	0.0
C	-0.488218	-0.212026	-1.449877
Cl	1.80401	0.0	0.0
H	-1.580259	-0.311434	-1.358958
C	-0.438591	1.354941	0.537921
H	-1.530894	1.389112	0.507628
H	-0.013922	2.18278	-0.033152
H	-0.105419	1.452181	1.574545
N	-0.461978	-1.128414	0.76585
H	-1.48497	-1.113758	0.712777
H	-0.206905	-1.000355	1.739723
C	0.036688	-1.475494	-1.988936
N	0.424405	-2.476188	-2.464688
N	-0.216972	0.860745	-2.393008
H	0.736962	1.185058	-2.281698
H	-0.850217	1.626824	-2.202813
Br	-3.802767	0.0	0.0
