18

C	-0.532943	-0.003274	-1.409141
C	0.0	0.0	0.0
F	-1.93173	-0.054615	-1.420281
H	1.088905	0.0	0.0
N	-0.057935	1.084025	-2.166125
H	-0.143985	1.957735	-1.671956
H	-0.539313	1.112896	-3.055471
N	-0.098558	-1.222022	-2.226698
O	0.829741	-1.900782	-1.822796
O	-0.685433	-1.352146	-3.301595
N	-0.463398	-1.170484	0.746016
O	-0.181795	-1.203038	1.951319
O	-1.036187	-2.095587	0.151783
C	-0.369943	1.267892	0.750804
H	-1.43895	1.495234	0.69144
H	-0.080233	1.130715	1.791027
H	0.225057	2.103204	0.370345
H	2.558822	0.0	0.0
