18

C	-0.267897	0.109925	-1.507368
C	0.0	0.0	0.0
F	-1.4111	0.86967	-1.772933
H	1.091321	0.0	0.0
N	0.844431	0.653776	-2.115624
H	0.920391	0.415568	-3.093743
H	1.709704	0.43541	-1.587355
N	-0.716163	-1.244222	-2.160368
O	0.006076	-1.722614	-3.033193
O	-1.796207	-1.69052	-1.805187
N	-0.385868	-1.286261	0.592586
O	0.121497	-2.294465	0.0923
O	-1.100069	-1.292583	1.604406
C	-0.53165	1.182545	0.767541
H	-1.62032	1.187506	0.814538
H	-0.127531	1.157502	1.781156
H	-0.1849	2.093858	0.276056
H	2.649021	0.0	0.0
