18

C	-0.476735	0.070003	-1.439188
C	0.0	0.0	0.0
F	-0.002787	-1.041617	-2.099814
H	1.087471	0.0	0.0
N	-1.864229	0.26825	-1.63437
H	-2.336197	-0.483735	-1.146018
H	-2.061806	0.194834	-2.62709
N	0.180827	1.238011	-2.197218
O	0.217615	1.098057	-3.416796
O	0.540427	2.230053	-1.581333
N	-0.424009	-1.28784	0.591194
O	0.165603	-1.629626	1.615341
O	-1.340046	-1.953004	0.074567
C	-0.480673	1.094254	0.93918
H	-0.054911	0.895232	1.923398
H	-0.113486	2.057114	0.595755
H	-1.571962	1.12103	1.004715
H	2.660418	0.0	0.0
