18

C	-0.335578	0.217207	-1.472504
C	0.0	0.0	0.0
F	-1.588153	0.76095	-1.615627
H	1.09128	0.0	0.0
N	0.604262	1.067693	-2.127297
H	0.4218	2.015538	-1.819507
H	1.537193	0.806469	-1.781783
N	-0.360089	-1.087886	-2.279481
O	-1.455528	-1.596973	-2.482526
O	0.720926	-1.498622	-2.670093
N	-0.457	-1.257202	0.592885
O	-0.199027	-2.302433	-0.015218
O	-0.971984	-1.226866	1.720105
C	-0.426546	1.189055	0.835674
H	-0.074783	2.10765	0.362143
H	0.05362	1.118421	1.812026
H	-1.506899	1.240485	0.968917
H	2.59429	0.0	0.0
