18

C	-0.43901	-0.003878	-1.47702
C	0.0	0.0	0.0
Cl	0.251821	1.475191	-2.235698
H	1.09157	0.0	0.0
C	0.115846	-1.219037	-2.214435
H	1.190525	-1.273152	-2.022919
H	-0.073439	-1.12064	-3.284347
H	-0.364726	-2.130759	-1.852419
C	-1.895604	0.093478	-1.623858
N	-3.061903	0.178379	-1.743783
N	-0.460543	-1.301684	0.587336
O	-1.643828	-1.374707	0.935093
O	0.350609	-2.220738	0.665421
C	-0.542931	1.143563	0.829884
H	-0.138745	2.081559	0.449141
H	-1.633356	1.174538	0.823036
H	-0.194526	1.026401	1.858085
Cl	3.333916	0.0	0.0
