18

C	-0.40123	0.031388	-1.477144
C	0.0	0.0	0.0
Cl	-2.212879	0.117948	-1.637197
H	1.093752	0.0	0.0
C	0.220074	1.2512	-2.154948
H	-0.207533	2.168918	-1.751842
H	1.297629	1.227052	-1.96578
H	0.028882	1.214994	-3.228094
C	0.007279	-1.154335	-2.237891
N	0.29459	-2.005287	-2.994972
N	-0.476707	-1.267927	0.635529
O	-1.234979	-1.190197	1.604904
O	-0.075737	-2.320493	0.14623
C	-0.451131	1.201944	0.803663
H	-1.532029	1.341173	0.788467
H	0.051007	2.09308	0.425581
H	-0.131046	1.065648	1.835946
Cl	3.25412	0.0	0.0
