18

C	-0.429598	-0.048971	-1.483068
C	0.0	0.0	0.0
Cl	0.012994	1.533229	-2.226141
H	1.091261	0.0	0.0
C	0.300948	-1.139189	-2.261192
H	1.371032	-1.029487	-2.070384
H	0.088338	-1.033173	-3.326362
H	-0.019843	-2.125053	-1.925483
C	-1.884473	-0.180042	-1.615863
N	-3.045515	-0.299166	-1.755989
N	-0.450636	-1.292663	0.622739
O	0.250306	-2.287261	0.446493
O	-1.509248	-1.285531	1.258108
C	-0.551985	1.162946	0.794809
H	-0.30948	1.01709	1.848375
H	-0.065312	2.078974	0.46367
H	-1.634853	1.257527	0.697154
Cl	3.323367	0.0	0.0
