18

C	-0.512261	0.011231	-1.449438
C	0.0	0.0	0.0
Cl	0.233384	-1.321814	-2.396911
H	1.093592	0.0	0.0
C	-2.030887	-0.039172	-1.630834
H	-2.416187	-0.981584	-1.251911
H	-2.270745	0.05195	-2.691235
H	-2.494078	0.794815	-1.098506
C	-0.042641	1.259001	-2.065917
N	0.223665	2.29215	-2.557788
N	-0.401103	-1.231261	0.757254
O	-0.020018	-1.279885	1.924999
O	-1.069155	-2.110706	0.205963
C	-0.463376	1.205584	0.810247
H	0.070953	1.200858	1.758786
H	-1.539689	1.185549	1.006026
H	-0.20632	2.126631	0.285989
Cl	3.260816	0.0	0.0
