18

C	-0.526501	-0.008419	-1.449737
C	0.0	0.0	0.0
Cl	0.297487	-1.286738	-2.405881
H	1.090837	0.0	0.0
C	-2.034303	-0.230163	-1.573975
H	-2.322079	-0.165853	-2.624427
H	-2.578418	0.527844	-1.007697
H	-2.302029	-1.215508	-1.193647
C	-0.19139	1.277825	-2.067982
N	0.024441	2.329665	-2.545407
N	-0.479254	-1.252909	0.664847
O	-1.567493	-1.204439	1.251936
O	0.213767	-2.260313	0.563755
C	-0.461863	1.208565	0.796077
H	0.004393	2.102155	0.378437
H	-1.545435	1.325217	0.82167
H	-0.101687	1.100781	1.820622
Cl	3.307376	0.0	0.0
