18

C	-0.520848	0.003179	-1.451833
C	0.0	0.0	0.0
Cl	0.240783	-1.326315	-2.385007
H	1.09112	0.0	0.0
C	-2.03753	-0.136822	-1.588101
H	-2.309411	-0.086823	-2.643084
H	-2.366449	-1.091965	-1.180413
H	-2.541886	0.669265	-1.052477
C	-0.113391	1.265402	-2.078283
N	0.169144	2.297695	-2.562788
N	-0.481726	-1.252761	0.664329
O	-1.595914	-1.219359	1.200315
O	0.241945	-2.241955	0.628316
C	-0.459112	1.205791	0.800165
H	-0.070429	1.109162	1.815843
H	-1.542529	1.306043	0.852672
H	-0.01733	2.105269	0.367986
Cl	3.311195	0.0	0.0
