18

C	-0.519539	0.013675	-1.451789
C	0.0	0.0	0.0
Cl	0.222036	-1.332098	-2.381582
H	1.091117	0.0	0.0
C	-2.037728	-0.099149	-1.593196
H	-2.52896	0.718743	-1.06338
H	-2.303844	-0.048086	-2.650019
H	-2.384328	-1.046277	-1.182383
C	-0.090904	1.267178	-2.079936
N	0.14634	2.291295	-2.604149
N	-0.480764	-1.256004	0.657713
O	-1.607565	-1.232954	1.168488
O	0.256088	-2.235836	0.641288
C	-0.460837	1.200907	0.807765
H	-0.058103	1.106959	1.818216
H	-0.033531	2.10553	0.37159
H	-1.544934	1.288533	0.872538
Cl	3.309229	0.0	0.0
