15

C	0.0	0.0	0.0
C	-0.347137	-0.195605	-1.503955
F	1.360209	0.0	0.0
H	0.506937	0.272539	-2.007906
N	-0.27697	1.488689	0.380398
O	-0.45807	1.718261	1.569928
O	-0.165276	2.320822	-0.515227
N	-0.532339	-0.93157	0.862387
H	-0.317033	-0.670686	1.818189
H	-1.557433	-0.901457	0.727802
C	-1.506769	0.433266	-2.147929
N	-2.184577	0.942532	-2.963084
C	-0.292066	-1.624508	-1.829966
N	-0.215255	-2.745664	-2.168007
Cl	-3.35634	0.0	0.0
