15

C	0.0	0.0	0.0
C	-0.414895	-0.025994	-1.499318
F	1.387866	0.0	0.0
H	0.520636	0.234429	-2.010934
N	-0.22873	1.433916	0.576198
O	-0.495015	1.50976	1.767974
O	0.016311	2.370015	-0.177247
N	-0.497605	-1.024592	0.768581
H	-1.526139	-0.995948	0.668373
H	-0.257152	-0.867582	1.741235
C	-1.389347	0.943468	-2.017583
N	-1.93359	1.74642	-2.68073
C	-0.75423	-1.385701	-1.928062
N	-0.975973	-2.459411	-2.348136
Cl	-3.274609	0.0	0.0
