15

C	0.0	0.0	0.0
C	-0.422682	-0.051349	-1.498977
F	1.373173	0.0	0.0
H	0.510457	0.194374	-2.020016
N	-0.236358	1.443509	0.552888
O	-0.489672	1.53732	1.74721
O	-0.006032	2.369904	-0.21765
N	-0.505605	-1.010677	0.784442
H	-0.270341	-0.838304	1.755686
H	-1.53342	-0.979816	0.678777
C	-1.400577	0.90576	-2.033587
N	-1.963081	1.681396	-2.713878
C	-0.761304	-1.420802	-1.90183
N	-0.935928	-2.505485	-2.315711
Cl	-3.291372	0.0	0.0
