15

C	0.0	0.0	0.0
C	-0.316491	0.370614	-1.504325
F	1.381246	0.0	0.0
H	0.56959	0.928559	-1.823988
N	-0.333463	1.23385	0.854963
O	-0.064339	2.30531	0.315173
O	-0.705109	1.070113	2.003629
N	-0.494013	-1.145843	0.597387
H	-1.518655	-1.034556	0.65116
H	-0.268273	-1.956336	0.032525
C	-1.442601	1.240585	-1.861668
N	-2.086417	2.060664	-2.405345
C	-0.342696	-0.878578	-2.267982
N	-0.282745	-1.898305	-2.847149
Cl	-3.294853	0.0	0.0
