12
Coordinates from ORCA-job run
  C   1.05254596187320      0.28446548014526      0.15191718541092
  C   -0.22916756983772      0.09765073646411      0.55477869542650
  H   1.80690889023636      0.60818027518354      0.86363580937018
  N   1.48197335315671      0.17727855761598     -1.15049197952414
  H   0.91537444175951     -0.37910210723554     -1.77063271279701
  H   2.47043248807068      0.04505662121126     -1.28106383624173
  C   -1.31847023762696     -0.31706041885442     -0.40249781445102
  H   -1.15905921747935     -1.33511157954328     -0.77553608047583
  H   -1.35549715952752      0.35777087983229     -1.26364858107951
  H   -2.29397044670012     -0.29377769493595      0.08219939082423
  C   -0.54303140294274      0.29850178439413      1.92928086266009
  N   -0.82903910098206      0.45414746572263      3.06105906087732
