12
Coordinates from ORCA-job run
  C   1.08178972122322     -0.13319830517219      0.15993196159637
  C   -0.19671015144968      0.05242318421645      0.57306746250340
  H   1.87994843926962     -0.24697508086870      0.88795936254427
  N   1.48555309132045     -0.10536819473944     -1.15510867238248
  H   2.36823337905843     -0.54450048350998     -1.35477676323175
  H   0.77864029115815     -0.29497019599474     -1.84782343348642
  C   -1.33296318670071      0.24936372094525     -0.39924400365581
  H   -1.10644903881179      1.05833160912874     -1.10121011877910
  H   -1.52658613080696     -0.65962200596150     -0.97986262286225
  H   -2.25350966878353      0.50846007300459      0.12277705560322
  C   -0.46313518910676      0.05636373697659      1.97211715403956
  N   -0.71181155637045      0.05969194197493      3.12317261811098
