12
Coordinates from ORCA-job run
  C   1.06152991720216     -0.17239301469412      0.23670563354272
  C   -0.24919575406221     -0.02459209246867      0.55317348082852
  H   1.79954810548854     -0.31647446450039      1.02068421496121
  N   1.54717626993141     -0.25234768908790     -1.04938269310567
  H   0.97302456860160      0.15618116448267     -1.76971937125259
  H   2.52649527174809     -0.04911986056745     -1.15878172437784
  C   -1.31603182701193      0.14033972914229     -0.50001788683004
  H   -2.31105907241255      0.10774952270682     -0.05703409959109
  H   -1.21939017319090      1.09840684318861     -1.02314404820702
  H   -1.25436748892089     -0.66139143925631     -1.24294504646243
  C   -0.61477548485365     -0.01879406590951      1.92984175844002
  N   -0.94295433251967     -0.00756463303605      3.06061978205422
