12
Coordinates from ORCA-job run
  C   0.75578503277875     -0.15587944634166     -0.62110835315599
  C   -0.33683870546015      0.03085987063763      0.16290912364994
  H   0.63237175130778     -0.16812256290826     -1.70152696706833
  N   2.03022378010065     -0.43020374584751     -0.18634946739347
  H   2.77611933683423     -0.15754134769225     -0.80373246198429
  H   2.21727050242969     -0.24297761488075      0.78824122820984
  C   -1.72867452490101      0.21226887411819     -0.37954603451721
  H   -2.15929521490680      1.16372503933406     -0.05660909758927
  H   -1.71218794901742      0.19827971071644     -1.47153202823451
  H   -2.39481359223047     -0.58566738117962     -0.04056591002113
  C   -0.14185100548654      0.05510072301664      1.57589095661880
  N   0.06389058855129      0.07815788102710      2.73592901148562
