12
Coordinates from ORCA-job run
  C   0.78105156442086     -0.21702283708804     -0.56885424707723
  C   -0.34227535282499      0.03869441113839      0.14959144473268
  H   0.68610005307924     -0.45197234610629     -1.62639763927821
  N   2.06018785683829     -0.30460996428964     -0.07410530194433
  H   2.20852787155568      0.08512721811787      0.84567001035272
  H   2.80013284070582     -0.10320838788092     -0.72508157237901
  C   -1.72869639621781      0.00213556815916     -0.43440268893692
  H   -2.23344299904185      0.96491010812322     -0.31987898756802
  H   -1.68223459970615     -0.23439216949208     -1.49969633302154
  H   -2.34598960897540     -0.75618487504842      0.05477099542811
  C   -0.18718669179248      0.35571741756736      1.53164402517029
  N   -0.01417453804121      0.62080585679938      2.66674029452145
