12
Coordinates from ORCA-job run
  C   1.06863975683257      0.16845869349789      0.20678091014701
  C   -0.23440225030266      0.03798845689075      0.56056226100531
  H   1.82924042083920      0.32284235939461      0.96681743177224
  N   1.52072184138514      0.20790985264524     -1.09226649400764
  H   0.92506449864284     -0.20840581466474     -1.79030986689304
  H   2.49659600454915      0.00381018108813     -1.22567608161910
  C   -1.32778364938098     -0.14250926786838     -0.46284588162127
  H   -1.23927489156443     -1.10561665082609     -0.97815648929966
  H   -1.28816972880219      0.65018884649426     -1.21687352329371
  H   -2.31088598623759     -0.10932838575683      0.00557266123162
  C   -0.56821911340139      0.07572362427018      1.94443554512904
  N   -0.87152690255964      0.09993810483500      3.08195952744921
