12
Coordinates from ORCA-job run
  C   0.79489362116470     -0.15823774890586     -0.56917500474151
  C   -0.34638136669197      0.02354878102439      0.14352115391340
  H   0.72890942438752     -0.25791284217647     -1.65016208874966
  N   2.05773873932747     -0.32315628236484     -0.05299628492846
  H   2.18289832456100     -0.04987331228452      0.91097137182297
  H   2.81899340324343     -0.05711142620984     -0.65431160627379
  C   -1.71522485537954      0.08097742232673     -0.47915395118419
  H   -1.63964862977287     -0.01450763548251     -1.56453553116669
  H   -2.35364772604274     -0.72683847662645     -0.11146609250901
  H   -2.21384935769677      1.02706904792023     -0.25280150965301
  C   -0.22863006986412      0.16583916386616      1.55801519792948
  N   -0.08505150723610      0.28920330891299      2.72109434554047
