12
Coordinates from ORCA-job run
  C   0.76357496923728     -0.18322701411435     -0.60411806144737
  C   -0.33850220180099      0.03574219327038      0.15841947549199
  H   0.64407738185655     -0.30711679636489     -1.67798817479895
  N   2.04659214168842     -0.36043441428217     -0.14505159125111
  H   2.22266025376312     -0.07006599854788      0.80590876504325
  H   2.78367121490380     -0.12233849534748     -0.78689045467963
  C   -1.73549714059760      0.10028070049617     -0.39727842597574
  H   -2.20995268586759      1.05816263061456     -0.16878645583813
  H   -2.36535104039778     -0.68994589955758      0.02002148252477
  H   -1.71545340002789     -0.02057456254811     -1.48258334600386
  C   -0.14931777132701      0.20800594125774      1.56175735650989
  N   0.05249827856969      0.35351171512360      2.71358943042490
