12
Coordinates from ORCA-job run
  C   1.06163851648363     -0.22640425284432      0.18648985438490
  C   -0.25393630582652     -0.19903348882796      0.51606139139799
  H   1.78509850041274     -0.67447122075813      0.86164179760036
  N   1.59375223520872      0.36275899534612     -0.93742374334736
  H   2.49683670460179      0.02614366439306     -1.22556846473955
  H   0.96183291300977      0.52267937126826     -1.70594066388974
  C   -1.28950147961264      0.44321556280301     -0.37302419263555
  H   -2.26169718114808      0.47292713259744      0.11789854265279
  H   -1.00591369870971      1.47181536586093     -0.61821530640089
  H   -1.41024250211690     -0.10878278666090     -1.31202156453257
  C   -0.65801783858876     -0.79921363490930      1.74273584868584
  N   -1.01984986371404     -1.29163470826822      2.74936650082378
