12
Coordinates from ORCA-job run
  C   1.07894571497035     -0.18041685130072      0.13164079517167
  C   -0.20460277153410     -0.10216824572167      0.56377897951643
  H   1.86750305449857     -0.48734787882039      0.81279979404848
  N   1.49962734207519      0.18790531401450     -1.12486197637352
  H   2.38421163360883     -0.18519173221545     -1.42422320823382
  H   0.80156768952347      0.20195304142350     -1.85108721839225
  C   -1.32659776315332      0.35286588101305     -0.33605473023048
  H   -2.25586065197967      0.45895386578619      0.22284954092985
  H   -1.09402266828529      1.32289764297332     -0.78701015102308
  H   -1.50769861662018     -0.36351379251775     -1.14527951124299
  C   -0.48902300909857     -0.45727100673943      1.91325049189953
  N   -0.75404995400528     -0.74766623789513      3.02319719393018
