12
Coordinates from ORCA-job run
  C   0.79159304355916     -0.01440599948574     -0.59596579835060
  C   -0.34540987934019      0.00316212790140      0.14579727556352
  H   0.74057167739839      0.27620300249760     -1.64268897962544
  N   2.02438745273614     -0.46086958193104     -0.18405070745739
  H   2.81855189530515     -0.06082868827239     -0.65460571369840
  H   2.14936169993454     -0.56292540633278      0.81280121069280
  C   -1.69125899478506      0.39204587037714     -0.40378413438970
  H   -2.39825552280316     -0.44016790878106     -0.35005689359272
  H   -1.59900095183249      0.69134007567066     -1.45009970127557
  H   -2.12034376377355      1.22832846624300      0.15417324211748
  C   -0.24767237527452     -0.37275078002994      1.51841347344853
  N   -0.12252428112441     -0.68013117785685      2.64906672656749
