12
Coordinates from ORCA-job run
  C   1.08590616198894      0.02627596786266      0.17295737999948
  C   -0.21193665516816      0.01175586634497      0.56664950381973
  H   1.87827528694956      0.11639539214402      0.91061329283548
  N   1.51105764565594     -0.15545952452384     -1.12363934173891
  H   2.44808406152127      0.14987890478936     -1.32449410842623
  H   0.85232131891345      0.07112191071688     -1.85133406605494
  C   -1.35119505535249     -0.15042602429533     -0.40810303229710
  H   -1.53138626071124      0.76836954101157     -0.97745892747298
  H   -1.13967908252649     -0.95704647286661     -1.11705607647629
  H   -2.27480917117216     -0.40125325733672      0.11353883893275
  C   -0.49979820208141      0.18521243379698      1.95079602007278
  N   -0.76784004801723      0.33617526235605      3.08753051680623
