12
Coordinates from ORCA-job run
  C   0.76672554702053     -0.13595234554254     -0.61278864603836
  C   -0.33860364803018      0.01589162840528      0.16099624796023
  H   0.64637137065446     -0.22867367498365     -1.68981799699599
  N   2.05746635358705     -0.28321911445313     -0.16455268157568
  H   2.78093923787380      0.00535643671690     -0.80133482875097
  H   2.22806833619642     -0.01610115299485      0.79425039606535
  C   -1.73999280686026      0.05405712719595     -0.38644254960131
  H   -1.72122153403078     -0.03844390436228     -1.47456238509257
  H   -2.24113211605438      0.99122229416386     -0.13066290149738
  H   -2.34331841571704     -0.76549706825026      0.01234410497986
  C   -0.14862941518581      0.14474205674430      1.56897294284952
  N   0.05332709054619      0.25661771736043      2.72459829769731
