12
Coordinates from ORCA-job run
  C   1.04381558399262     -0.32218976594496      0.13962427360268
  C   -0.26655338566517     -0.25499276454991      0.48368845680717
  H   1.73530186921697     -0.91334681521137      0.73337192423493
  N   1.61465799622417      0.38978636144711     -0.89044739980978
  H   0.99400307808897      0.70429933219081     -1.61928446144353
  H   2.49114951218275      0.03743588371397     -1.23602821239554
  C   -1.25650382292432      0.57992099992288     -0.28967104738055
  H   -2.22484528932776      0.59990002292964      0.20913597266164
  H   -0.90445865591393      1.61232457374168     -0.38213509705822
  H   -1.41325211780555      0.18319456296536     -1.29915381687363
  C   -0.70972491099116     -1.00182910013323      1.61245083728963
  N   -1.10358985707760     -1.61350329107198      2.53844857036519
