14

C	0.0	0.0	0.0
C	-0.530245	0.151793	-1.430784
Cl	1.794014	0.0	0.0
H	-1.63021	0.116991	-1.349432
H	-0.183253	-0.679909	-2.04968
C	-0.480916	1.122909	0.907642
H	-0.110952	0.965416	1.922055
H	-1.573918	1.117847	0.898364
H	-0.097437	2.074271	0.532565
C	-0.396335	-1.313612	0.519578
N	-0.612187	-2.382147	0.957087
C	-0.100961	1.409805	-2.032082
N	0.251031	2.418991	-2.517983
Cl	-3.62872	0.0	0.0
