14

C	0.0	0.0	0.0
C	-0.516854	-0.18894	-1.428608
Cl	1.793293	0.0	0.0
H	-1.617316	-0.18081	-1.359946
H	-0.18347	0.663946	-2.028134
C	-0.477566	1.327271	0.571055
H	-0.089294	1.458735	1.582465
H	-0.100902	2.137693	-0.058715
H	-1.57033	1.320049	0.579125
C	-0.396966	-1.128564	0.848664
N	-0.624456	-2.058097	1.52979
C	-0.044003	-1.419931	-2.052624
N	0.345208	-2.397731	-2.572796
Cl	-3.609242	0.0	0.0
