14

C	0.0	0.0	0.0
C	-0.257406	-0.339319	-1.497415
Cl	1.796519	0.0	0.0
H	0.271227	-1.277502	-1.693791
H	0.27615	0.43291	-2.05924
C	-0.52334	1.352618	0.432923
H	-1.617003	1.305887	0.392123
H	-0.140354	2.119647	-0.244971
H	-0.192465	1.573394	1.45006
C	-0.416103	-1.091296	0.883579
N	-0.620422	-1.988821	1.61504
C	-1.570966	-0.472368	-2.1349
N	-2.339554	-0.644773	-3.009582
Cl	-3.566137	0.0	0.0
