14

C	0.0	0.0	0.0
C	-0.544044	0.192278	-1.422239
Cl	1.793912	0.0	0.0
H	-1.642864	0.164951	-1.32991
H	-0.216425	-0.628587	-2.065235
C	-0.497532	1.086228	0.941377
H	-0.163742	0.876689	1.958382
H	-1.590185	1.090127	0.90393
H	-0.09773	2.051121	0.622914
C	-0.398999	-1.330192	0.470546
N	-0.624092	-2.413883	0.864185
C	-0.117724	1.461409	-2.001296
N	0.238063	2.481844	-2.459848
Cl	-3.658921	0.0	0.0
