14
Coordinates from ORCA-job run
  C   0.91489820314041     -0.42447155503885      0.60405123561735
  C   -0.17960503389673     -0.09325731318866     -0.41950350224059
  Br  0.56004036885159      0.38242948512202      2.34489364413560
  H   0.19034195792252     -0.42051231226914     -1.39609485124261
  H   0.89015958661754     -1.50370086010918      0.77547267444474
  C   2.25681506378146     -0.06021631534392      0.16804851257681
  N   3.35931110710030      0.18393003910164     -0.15655260858306
  N   -0.29182893874855      1.40475312355645     -0.54918321692885
  O   0.66350661864883      1.96668607719202     -1.07877042427095
  O   -1.30135455452926      1.94764641186731     -0.11193485521714
  C   -1.51557570767005     -0.72445405652257     -0.09854045334396
  H   -1.88594616840440     -0.39772343816267      0.87130029063288
  H   -2.25154686364267     -0.45108338051460     -0.85482114804907
  H   -1.40921563917100     -1.81202590568986     -0.09836529753115
