14
Coordinates from ORCA-job run
  C   1.13301571725292     -0.56793754039112      0.11060850924324
  C   -0.22444386999507     -0.24460283054979     -0.52148596701303
  Br  1.17430173042144     -2.43756313653400      0.66779799365968
  H   -0.38899129828997     -0.94746847861637     -1.34462721144895
  H   1.92337833618826     -0.46392370918390     -0.63025746328424
  C   1.41221320615154      0.29837973238314      1.24717540935830
  N   1.60898205809161      1.01666729630328      2.15594228018384
  N   -0.09876349016969      1.10899265340290     -1.20737274475956
  O   -1.12331605639504      1.76642861210880     -1.34030486514817
  O   1.01223705895323      1.42254320200718     -1.62898207302680
  C   -1.39032377712403     -0.23768641682155      0.44307584284667
  H   -1.46376805837796     -1.20790038602551      0.93457017419854
  H   -1.25771285534171      0.53520204853741      1.20198621088782
  H   -2.31880870136552     -0.04213104662047     -0.08912609569733
