14
Coordinates from ORCA-job run
  C   1.02318715037671      0.14087919238559      0.61314255577365
  C   -0.05726421877355      0.13397102178503     -0.46486455583505
  Br  2.43555128522326      1.40885239656100      0.16858727245664
  H   0.38683390112110     -0.02452515119440     -1.44833222881818
  H   0.59287453834233      0.48470967914949      1.55593253490059
  C   1.59349618685969     -1.18819275321438      0.77043627749505
  N   2.02253959566164     -2.27631415043022      0.88289777563029
  N   -0.66802951621965      1.50513672162340     -0.51855433365079
  O   -1.01676494215286      1.99479349696597      0.55262302513170
  O   -0.81309402399053      2.00693806527106     -1.62836716178983
  C   -1.16749991067684     -0.86265965395154     -0.17034622391393
  H   -0.77874290448900     -1.88126293194059     -0.20199487185535
  H   -1.60004838035690     -0.67285745019378      0.81381845125840
  H   -1.95203876092539     -0.76946848281663     -0.92397851678318
