14
Coordinates from ORCA-job run
  C   0.95093072618835     -0.44924043153648      0.52385047487825
  C   -0.20052574269660     -0.06069534892797     -0.41395228033046
  Br  0.68316543151585      0.23171961288265      2.33265594881407
  H   0.12194157113395     -0.30444083556826     -1.43102054404184
  H   0.94423915607389     -1.53793182215957      0.62101756456628
  C   2.26436003001635     -0.04162287157598      0.04195318943424
  N   3.34121820656938      0.22245985652800     -0.34655491948054
  N   -0.34137215979286      1.44036697758381     -0.41972541098179
  O   -1.34503936771985      1.92754882118322      0.09033184880346
  O   0.58735351977141      2.06051047983156     -0.93084277923075
  C   -1.50716260102827     -0.74133938652281     -0.07392399360360
  H   -2.28819575873488     -0.42389356811774     -0.76477082013180
  H   -1.38345028018625     -1.82305712045969     -0.16673741771375
  H   -1.82846273111047     -0.50038436314074      0.93771913901823
