14
Coordinates from ORCA-job run
  C   0.95009831688481     -0.46505548136082      0.51184045876337
  C   -0.20767750789851     -0.05920758751765     -0.41023092910324
  Br  0.72178059445046      0.22955421032912      2.32101324336426
  H   0.09436255741058     -0.31459214359615     -1.43076043294778
  H   0.92429548096530     -1.55288324574585      0.61471743918852
  C   2.26378795553347     -0.08498713616734      0.00890147671193
  N   3.34008265868707      0.15542394459816     -0.39621715495444
  N   -0.31962751531662      1.44455822059999     -0.42277330390743
  O   -1.30850816228884      1.95386593539871      0.09453739829708
  O   0.61485139739195      2.04372184289386     -0.94819480940318
  C   -1.52224724805221     -0.71204467342411     -0.04693655570956
  H   -1.42127513056190     -1.79661082428351     -0.13461835376942
  H   -2.30672901636622     -0.38360224306710     -0.72879388873211
  H   -1.82419438083931     -0.45814081865731      0.96751541220200
