14

C	0.0	0.0	0.0
C	-0.536128	0.253047	-1.404244
F	1.387292	0.0	0.0
H	-0.302866	-0.615419	-2.028289
H	-1.631601	0.334096	-1.312032
C	-0.378735	1.116342	0.8947
N	-0.580763	2.043555	1.585771
C	-0.48846	-1.326524	0.541588
H	-0.090427	-1.480395	1.546283
H	-1.580841	-1.314784	0.561434
H	-0.128284	-2.126111	-0.111442
C	0.041355	1.444451	-2.018412
N	0.51318	2.385581	-2.537813
Cl	-3.657924	0.0	0.0
