14

C	0.0	0.0	0.0
C	-0.527692	-0.16436	-1.424207
F	1.387892	0.0	0.0
H	-0.208362	0.681856	-2.038636
H	-1.62773	-0.164027	-1.352823
C	-0.383716	1.337787	0.500467
N	-0.555478	2.420378	0.920632
C	-0.480354	-1.092952	0.93036
H	-1.571758	-1.074431	0.960809
H	-0.125321	-2.056005	0.555713
H	-0.069747	-0.923656	1.92775
C	-0.039935	-1.400284	-2.028009
N	0.357455	-2.387493	-2.523546
Cl	-3.654874	0.0	0.0
