14

C	0.0	0.0	0.0
C	-0.241015	-0.144326	-1.522848
F	1.390387	0.0	0.0
H	0.433425	0.589804	-1.974008
H	0.162816	-1.130242	-1.780742
C	-0.406485	1.326018	0.496826
N	-0.564717	2.414369	0.908833
C	-0.516607	-1.128774	0.850669
H	-1.609604	-1.108557	0.818764
H	-0.134902	-2.073454	0.452297
H	-0.163731	-1.001973	1.876514
C	-1.521786	0.006895	-2.213861
N	-2.304494	0.109009	-3.084017
Cl	-3.580479	0.0	0.0
