14

C	0.0	0.0	0.0
C	-0.234267	0.253083	-1.50937
F	1.390559	0.0	0.0
H	0.358285	1.145	-1.73698
H	0.27677	-0.582416	-1.99958
C	-0.408506	1.144072	0.832013
N	-0.566726	2.081271	1.521038
C	-0.506422	-1.318132	0.521891
H	-0.142432	-1.469599	1.540539
H	-0.127538	-2.119013	-0.118494
H	-1.599266	-1.295797	0.506929
C	-1.521397	0.421519	-2.183698
N	-2.290327	0.604648	-3.054069
Cl	-3.548566	0.0	0.0
