14

C	0.0	0.0	0.0
C	-0.525341	-0.186162	-1.422869
F	1.387784	0.0	0.0
H	-0.206028	0.653091	-2.047928
H	-1.626302	-0.184092	-1.353642
C	-0.385574	1.345127	0.479668
N	-0.555705	2.436271	0.877661
C	-0.478668	-1.081595	0.944557
H	-1.570894	-1.07562	0.96403
H	-0.106872	-2.046514	0.591934
H	-0.081713	-0.890619	1.943825
C	-0.034192	-1.429077	-2.008921
N	0.362705	-2.422757	-2.492235
Cl	-3.647659	0.0	0.0
