15

C	-0.352552	-0.049631	-1.46138
C	0.0	0.0	0.0
Cl	-2.134978	-0.183893	-1.770436
H	1.093587	0.0	0.0
H	0.074736	-0.983173	-1.837116
C	0.181276	1.02148	-2.30276
N	0.565149	1.781204	-3.112354
C	-0.404285	-1.235131	0.77085
H	-0.042027	-2.116371	0.233983
H	0.08324	-1.214662	1.744845
H	-1.485288	-1.311771	0.909849
N	-0.445871	1.218303	0.644629
O	-0.556546	2.243024	-0.045613
O	-0.583439	1.20093	1.877433
H	2.510976	0.0	0.0
