15

C	-0.366301	-0.051197	-1.45731
C	0.0	0.0	0.0
Cl	-2.143222	-0.271456	-1.744891
H	1.093535	0.0	0.0
H	0.10274	-0.958405	-1.845501
C	0.102642	1.048708	-2.296673
N	0.455528	1.830746	-3.097466
C	-0.38496	-1.24403	0.770603
H	0.164857	-1.255197	1.711236
H	-1.456388	-1.295988	0.976886
H	-0.082746	-2.123237	0.194637
N	-0.453509	1.207208	0.660358
O	-0.608827	2.232435	-0.020557
O	-0.5565	1.181368	1.89667
H	2.510439	0.0	0.0
