15

C	-0.391168	-0.008829	-1.471306
C	0.0	0.0	0.0
Cl	0.119978	-1.537926	-2.26245
H	1.092885	0.0	0.0
H	0.155007	0.787559	-1.975083
C	-1.827742	0.160901	-1.679595
N	-2.98359	0.299995	-1.838979
C	-0.510018	-1.138537	0.845528
H	-1.600131	-1.129237	0.943289
H	-0.190934	-2.084743	0.407392
H	-0.066831	-1.05825	1.837178
N	-0.364989	1.292972	0.5506
O	-0.500889	1.390165	1.779342
O	-0.382263	2.269852	-0.223025
H	2.516109	0.0	0.0
