14

C	0.0	0.0	0.0
C	-0.495329	-0.178866	-1.454441
Cl	1.789291	0.0	0.0
H	-1.607926	-0.15841	-1.220889
C	-0.45503	1.297951	0.510884
N	-0.615373	2.37682	0.945064
C	-0.457532	-1.086149	0.874042
N	-0.612309	-1.988837	1.61031
C	-0.079609	-1.473954	-1.990513
N	0.231023	-2.482541	-2.511016
N	-0.072444	0.954917	-2.252119
H	-0.777076	1.168697	-2.943529
H	0.810844	0.784976	-2.71582
F	-2.524519	0.0	0.0
