14

C	0.0	0.0	0.0
C	-0.531802	0.051306	-1.450015
Cl	1.779024	0.0	0.0
H	-1.645749	0.001086	-1.177254
C	-0.453985	1.185513	0.735835
N	-0.605351	2.167259	1.363266
C	-0.440042	-1.227999	0.673765
N	-0.607711	-2.253004	1.223243
C	-0.094661	-1.118909	-2.204172
N	0.250028	-2.01288	-2.887873
N	-0.176428	1.315511	-2.061864
H	0.66306	1.247122	-2.622529
H	-0.939911	1.638422	-2.638564
F	-2.567025	0.0	0.0
