14

C	0.0	0.0	0.0
C	-0.398549	-0.053507	-1.571448
Cl	1.783241	0.0	0.0
H	0.547971	-0.236339	-2.090148
C	-0.47139	1.173	0.729219
N	-0.592372	2.17615	1.331781
C	-0.435711	-1.242723	0.636156
N	-0.572598	-2.307271	1.116128
C	-0.844026	1.282591	-1.982057
N	-1.120251	2.34736	-2.392644
N	-1.340408	-1.047593	-2.002906
H	-0.938636	-1.966046	-1.847388
H	-2.125511	-0.900658	-1.343563
F	-2.385694	0.0	0.0
