14

C	0.0	0.0	0.0
C	-0.475492	0.05885	-1.495403
Cl	1.786221	0.0	0.0
H	-1.564677	-0.117201	-1.33437
C	-0.476381	1.184311	0.713792
N	-0.603002	2.206364	1.281195
C	-0.435542	-1.232684	0.65984
N	-0.601411	-2.258151	1.210043
C	0.144004	-1.015114	-2.267951
N	0.602742	-1.875919	-2.923205
N	-0.274987	1.341697	-2.128313
H	-0.942695	1.989294	-1.726531
H	0.660586	1.693587	-1.96051
F	-2.470046	0.0	0.0
