14

C	0.0	0.0	0.0
C	-0.412683	0.023361	-1.561623
Cl	1.790494	0.0	0.0
H	0.533022	-0.054334	-2.107186
C	-0.441932	1.150118	0.784876
N	-0.598525	2.104066	1.454528
C	-0.440336	-1.258351	0.598679
N	-0.555463	-2.337872	1.051262
C	-0.973388	1.340417	-1.887559
N	-1.335297	2.388512	-2.274925
N	-1.293446	-1.010214	-2.031431
H	-0.852115	-1.911739	-1.904327
H	-2.086101	-0.9222	-1.375056
F	-2.370931	0.0	0.0
