14

C	0.0	0.0	0.0
C	-0.410748	0.28621	-1.542483
Cl	1.785793	0.0	0.0
H	0.535477	0.267247	-2.092918
C	-0.46542	0.993277	0.963541
N	-0.582606	1.856735	1.754343
C	-0.435529	-1.347678	0.362889
N	-0.569441	-2.491762	0.598232
C	-0.934421	1.652065	-1.642329
N	-1.289161	2.760127	-1.795579
N	-1.318793	-0.632164	-2.174845
H	-2.107917	-0.638912	-1.505076
H	-0.889822	-1.551299	-2.201163
F	-2.379393	0.0	0.0
