14

C	0.0	0.0	0.0
C	-0.446039	-0.078073	-1.512524
Cl	1.782583	0.0	0.0
H	0.473143	-0.075749	-2.108714
C	-0.427172	1.22997	0.672694
N	-0.584206	2.249654	1.235426
C	-0.434223	-1.168997	0.770252
N	-0.540238	-2.125097	1.445928
C	-1.188357	1.133071	-1.919196
N	-1.666669	2.074432	-2.434464
N	-1.141304	-1.323698	-1.763378
H	-2.006017	-1.187661	-1.221939
H	-1.352663	-1.381253	-2.753659
F	-2.380818	0.0	0.0
