19

C	-0.248651	0.008816	-1.512226
C	0.0	0.0	0.0
Br	0.264747	-1.72854	-2.2446
H	1.091385	0.0	0.0
N	-1.727679	0.182534	-1.849835
O	-2.498491	-0.72056	-1.54327
O	-2.060459	1.251243	-2.359744
C	0.622485	1.060564	-2.160357
H	0.29048	2.054417	-1.865304
H	0.59584	0.983605	-3.247558
H	1.62363	0.88082	-1.752646
C	-0.618705	-1.090591	0.841922
H	-0.324615	-0.921992	1.88072
H	-1.704752	-1.117843	0.776015
H	-0.207885	-2.051099	0.536544
N	-0.480244	1.327085	0.508398
O	0.344126	2.219008	0.698513
O	-1.693367	1.451327	0.716832
F	2.601755	0.0	0.0
