19

C	-0.483901	-0.018469	-1.450963
C	0.0	0.0	0.0
Br	0.347977	1.448749	-2.432614
H	1.088342	0.0	0.0
N	0.061682	-1.310088	-2.094336
O	1.256629	-1.542734	-1.9654
O	-0.751183	-2.016897	-2.695568
C	-1.971122	0.032723	-1.707961
H	-2.372	0.951022	-1.283743
H	-2.454456	-0.820755	-1.230914
H	-2.179808	-0.004932	-2.776658
C	-0.566349	-1.148408	0.812389
H	-0.125882	-1.103769	1.811172
H	-0.26016	-2.098105	0.369114
H	-1.654737	-1.120097	0.907096
N	-0.431393	1.289667	0.638562
O	-1.626022	1.417555	0.943323
O	0.448748	2.096963	0.922676
F	2.533509	0.0	0.0
