15

C	-0.588955	0.045357	-1.393385
C	0.0	0.0	0.0
F	0.06726	-0.825143	-2.270101
H	1.092812	0.0	0.0
H	-0.394024	1.052108	-1.763011
N	-2.002879	-0.193945	-1.399909
H	-2.146488	-1.174571	-1.189943
H	-2.366694	-0.021256	-2.329558
N	-0.425363	-1.24957	0.713707
O	-0.527496	-1.207483	1.942203
O	-0.604214	-2.279586	0.054353
N	-0.404503	1.179801	0.708311
H	-1.359092	1.100614	1.043197
H	0.219834	1.299789	1.496579
F	2.552331	0.0	0.0
