15

C	-0.210033	-0.039937	-1.52193
C	0.0	0.0	0.0
F	-0.197183	1.327198	-1.960476
H	1.091557	0.0	0.0
H	-1.190729	-0.401899	-1.847126
N	0.852209	-0.799528	-2.034604
H	1.728981	-0.564262	-1.53519
H	0.931224	-0.743392	-3.039649
N	-0.559601	-1.277058	0.541006
O	0.1903	-2.096741	1.062948
O	-1.785017	-1.419484	0.442384
N	-0.587064	1.088924	0.723261
H	-1.39184	1.45715	0.233747
H	0.112844	1.816144	0.778662
F	2.677286	0.0	0.0
