15

C	-0.211785	0.056502	-1.501635
C	0.0	0.0	0.0
F	-1.543465	0.373397	-1.802545
H	1.091772	0.0	0.0
H	0.001135	-0.917567	-1.94135
N	0.656979	1.049226	-2.079546
H	0.437855	1.911711	-1.58496
H	1.583439	0.788686	-1.718712
N	-0.516259	-1.280609	0.577531
O	-1.158106	-1.235736	1.634093
O	-0.251594	-2.326545	-0.016678
N	-0.492071	1.167943	0.653027
H	-0.006933	1.28441	1.532226
H	-1.484018	1.093718	0.837401
F	2.599796	0.0	0.0
