15

C	-0.509693	0.024551	-1.428432
C	0.0	0.0	0.0
F	-0.139393	-1.189321	-2.046145
H	1.089777	0.0	0.0
H	0.035551	0.809799	-1.958246
N	-1.915416	0.252544	-1.547729
H	-2.400084	-0.49424	-1.063242
H	-2.182126	0.260271	-2.524521
N	-0.465154	-1.312639	0.621154
O	-1.682547	-1.557915	0.621742
O	0.36766	-2.056582	1.124525
N	-0.524996	1.061887	0.805387
H	-1.325047	1.503617	0.374268
H	0.214736	1.722193	0.997578
F	2.603268	0.0	0.0
