15

C	-0.446161	0.064449	-1.448205
C	0.0	0.0	0.0
F	-0.240577	-1.203099	-2.030691
H	1.089862	0.0	0.0
H	0.245516	0.740567	-1.955881
N	-1.78743	0.509239	-1.643413
H	-1.997201	0.54732	-2.631846
H	-2.406298	-0.149384	-1.187071
N	-0.596775	-1.223381	0.641442
O	-1.808221	-1.429337	0.467934
O	0.11495	-1.931723	1.344183
N	-0.424253	1.140817	0.771403
H	-1.131852	1.67317	0.284185
H	0.397556	1.702094	0.947734
F	2.605517	0.0	0.0
