15

C	-0.26718	-0.087801	-1.514289
C	0.0	0.0	0.0
F	-0.536096	1.229797	-1.957318
H	1.098704	0.0	0.0
H	-1.160907	-0.666808	-1.757764
N	0.875367	-0.584392	-2.201745
H	1.707523	-0.429817	-1.612073
H	0.767971	-1.57624	-2.356912
N	-0.390283	-1.285916	0.634054
O	-0.438191	-2.303899	-0.065185
O	-0.563165	-1.285576	1.851321
N	-0.665746	1.084951	0.683038
H	-0.640859	1.871847	0.048144
H	-0.103189	1.327603	1.489586
F	2.647966	0.0	0.0
