15

C	-0.602853	0.016989	-1.385439
C	0.0	0.0	0.0
F	-0.012842	1.059683	-2.081557
H	1.089156	0.0	0.0
H	-1.67764	0.255636	-1.345815
N	-0.313309	-1.203062	-2.116806
H	-0.125228	-0.943831	-3.077052
H	-1.119154	-1.810657	-2.080489
N	-0.492874	-1.238302	0.69734
O	-1.5361	-1.779099	0.286704
O	0.09544	-1.603019	1.710193
N	-0.403137	1.155823	0.766764
H	-1.302913	1.035611	1.21853
H	0.310852	1.334485	1.461763
F	2.585414	0.0	0.0
