15

C	-0.244418	0.117055	-1.50547
C	0.0	0.0	0.0
F	-1.468884	0.801201	-1.750467
H	1.092685	0.0	0.0
H	-0.399261	-0.860972	-1.96936
N	0.839656	0.877212	-2.035315
H	1.685612	0.674106	-1.478623
H	1.003228	0.650923	-3.006288
N	-0.527354	-1.308625	0.500839
O	-0.188654	-2.307205	-0.141772
O	-1.231597	-1.348364	1.507252
N	-0.470495	1.104641	0.767949
H	-1.197919	1.602066	0.272484
H	0.31286	1.723068	0.933062
F	2.637417	0.0	0.0
