15

C	-0.202473	-0.11471	-1.540114
C	0.0	0.0	0.0
F	-0.384205	1.197101	-2.005532
H	1.091487	0.0	0.0
H	-1.11462	-0.65802	-1.820093
N	0.945453	-0.67399	-2.171479
H	0.849932	-1.679465	-2.191467
H	1.763684	-0.460856	-1.572256
N	-0.526194	-1.283856	0.554926
O	-1.60378	-1.276167	1.153975
O	0.115295	-2.31164	0.310364
N	-0.547637	1.113914	0.697609
H	-1.354084	1.501025	0.227828
H	0.175626	1.819101	0.737992
F	2.654166	0.0	0.0
