15

C	-0.615276	0.00892	-1.375122
C	0.0	0.0	0.0
F	-2.039898	-0.190774	-1.213391
H	1.093719	0.0	0.0
H	-0.289929	-0.839471	-1.972497
N	-0.354052	1.235546	-2.015422
H	-0.934706	1.338893	-2.836489
H	-0.524873	1.979873	-1.349698
N	-0.388674	-1.298974	0.649045
O	-0.21595	-2.329829	-4.7e-05
O	-0.816564	-1.280503	1.806929
N	-0.432276	1.138771	0.757893
H	0.280832	1.336077	1.447236
H	-1.3047	0.951442	1.234293
F	2.555606	0.0	0.0
