11

C	-0.383092	0.111321	-1.437694
C	0.0	0.0	0.0
Br	-2.355627	0.253179	-1.746325
H	1.103243	0.0	0.0
H	0.035207	1.002734	-1.903573
H	-0.08855	-0.784028	-1.980378
H	-0.354706	0.879392	0.55644
N	-0.437242	-1.277297	0.575752
H	-1.26219	-1.157208	1.151901
H	0.317453	-1.591971	1.172367
F	2.689325	0.0	0.0
