18

C	-0.356264	-0.025939	-1.49761
C	0.0	0.0	0.0
Br	-0.064716	-1.804654	-2.252943
H	1.095827	0.0	0.0
N	-1.845363	0.241862	-1.722446
O	-2.632642	-0.232608	-0.909943
O	-2.160976	0.897902	-2.710584
C	0.476548	0.974866	-2.265594
H	0.236394	1.983327	-1.919811
H	0.280176	0.911483	-3.333939
H	1.527503	0.768197	-2.048809
C	-0.453879	-1.135042	0.917573
H	0.007065	-0.970031	1.894263
H	-1.536197	-1.177066	1.024659
H	-0.081849	-2.084896	0.535313
C	-0.442013	1.292189	0.523328
N	-0.824161	2.321788	0.942341
Br	3.462117	0.0	0.0
