18

C	-0.388965	-0.037636	-1.480709
C	0.0	0.0	0.0
Br	-2.329286	-0.246833	-1.727154
H	1.103783	0.0	0.0
N	-0.017599	1.318206	-2.097521
O	1.048173	1.35478	-2.703694
O	-0.768419	2.266791	-1.901572
C	0.337798	-1.135767	-2.226575
H	0.184399	-1.028447	-3.300785
H	-0.048483	-2.105838	-1.915158
H	1.404183	-1.067577	-1.994993
C	-0.376051	-1.278735	0.759284
H	0.137109	-2.135388	0.321182
H	-1.453759	-1.451689	0.768066
H	-0.019888	-1.179714	1.786215
C	-0.52416	1.161365	0.707437
N	-0.947967	2.046281	1.353332
Br	3.427963	0.0	0.0
