17

C	0.0	0.0	0.0
C	-0.420707	-0.11395	-1.464842
F	1.401723	0.0	0.0
H	-1.506056	-0.24695	-1.475112
H	0.04274	-1.020936	-1.870418
N	-0.446431	1.187602	0.681098
H	-0.282925	1.995428	0.090477
H	-1.457875	1.0976	0.786968
C	-0.439492	-1.212816	0.79411
H	-1.529298	-1.278991	0.796737
H	-0.016737	-2.117001	0.348693
H	-0.071876	-1.111577	1.817397
C	-0.017984	1.08972	-2.312654
H	1.034894	1.340667	-2.161064
H	-0.626778	1.964306	-2.074549
H	-0.166371	0.879903	-3.374854
Br	-3.933002	0.0	0.0
