17

C	0.0	0.0	0.0
C	-0.388783	0.37702	-1.422061
F	1.425986	0.0	0.0
H	0.12441	-0.322852	-2.091305
H	0.053009	1.363549	-1.616191
N	-0.471405	0.977307	0.918366
H	-0.076642	1.88421	0.704658
H	-0.244155	0.724959	1.87108
C	-0.463959	-1.375155	0.422235
H	-1.551907	-1.389797	0.498886
H	-0.031869	-1.625541	1.395463
H	-0.135098	-2.123785	-0.30106
C	-1.890085	0.397927	-1.681242
H	-2.094704	0.791535	-2.680985
H	-2.339047	-0.593362	-1.621102
H	-2.427142	1.004424	-0.953855
Br	-5.243888	0.0	0.0
