17

C	0.0	0.0	0.0
C	-0.423106	0.220565	-1.449756
F	1.405661	0.0	0.0
H	-1.513514	0.307719	-1.445623
H	-0.008758	1.192436	-1.751123
N	-0.447187	1.046939	0.881521
H	-1.44765	0.899963	1.021477
H	-0.359763	1.9367	0.399284
C	-0.44095	-1.335534	0.560779
H	-0.135138	-1.387621	1.607881
H	-1.527296	-1.420819	0.490307
H	0.03488	-2.151382	0.014612
C	0.032302	-0.857939	-2.426561
H	-0.178795	-0.55725	-3.456692
H	1.106466	-1.037569	-2.337149
H	-0.49434	-1.797643	-2.248406
Br	-3.93663	0.0	0.0
