17

C	0.0	0.0	0.0
C	-0.304636	0.277211	-1.476924
F	1.399626	0.0	0.0
H	0.10373	1.275407	-1.667582
H	0.32315	-0.42781	-2.033141
N	-0.465868	1.084222	0.821616
H	-0.479997	0.795315	1.794657
H	-1.429811	1.281986	0.56829
C	-0.451707	-1.369708	0.4697
H	-0.05146	-1.557897	1.471513
H	-1.543758	-1.402596	0.510447
H	-0.08669	-2.154001	-0.199147
C	-1.742697	0.181378	-1.956792
H	-2.414655	0.88962	-1.475963
H	-2.180055	-0.798188	-1.767192
H	-1.776788	0.365416	-3.035978
Br	-4.626261	0.0	0.0
