15

C	-0.565597	0.014288	-1.422296
C	0.0	0.0	0.0
Cl	0.152263	-1.356893	-2.334334
H	1.097336	0.0	0.0
H	-0.345041	-0.928787	0.46565
C	-2.082376	-0.135886	-1.431035
H	-2.342928	-1.095456	-0.978251
H	-2.512695	0.671692	-0.838623
H	-2.473322	-0.108588	-2.449385
C	-0.196486	1.258545	-2.103494
N	0.024493	2.282989	-2.634156
N	-0.550837	1.153521	0.729053
H	0.113759	1.914492	0.630918
H	-0.563588	0.926023	1.715996
Br	3.65175	0.0	0.0
