15

C	-0.436038	-0.002233	-1.463818
C	0.0	0.0	0.0
Cl	-0.050789	1.601125	-2.202025
H	1.093022	0.0	0.0
H	-0.334362	-0.956731	0.418308
C	0.332362	-1.070364	-2.231334
H	1.401225	-0.892887	-2.089606
H	0.08216	-2.05546	-1.827647
H	0.080924	-1.044896	-3.292757
C	-1.884092	-0.190228	-1.586416
N	-3.031882	-0.417052	-1.693919
N	-0.631055	1.082238	0.748683
H	-0.088339	1.925304	0.592234
H	-0.544104	0.869305	1.737347
Br	3.650128	0.0	0.0
