15

C	-0.441074	-0.045707	-1.46068
C	0.0	0.0	0.0
Cl	-0.053762	1.531711	-2.252439
H	1.100181	0.0	0.0
H	-0.334181	-0.942867	0.448703
C	0.319105	-1.141291	-2.19762
H	0.061699	-1.149573	-3.25785
H	1.38935	-0.962832	-2.068636
H	0.067384	-2.111638	-1.760015
C	-1.890678	-0.231545	-1.571314
N	-3.040317	-0.450801	-1.675569
N	-0.62639	1.105264	0.720262
H	-0.093959	1.944058	0.517396
H	-0.507796	0.933798	1.711781
Br	3.65097	0.0	0.0
