14

C	-0.261516	-0.058974	-1.515643
C	0.0	0.0	0.0
Cl	0.137709	1.574416	-2.178469
H	1.093776	0.0	0.0
H	-0.417968	0.906059	0.442767
C	0.699416	-1.071725	-2.129455
H	0.682233	-1.022209	-3.219482
H	0.413772	-2.076962	-1.804867
H	1.683801	-0.826326	-1.709377
C	-1.658473	-0.309793	-1.872915
N	-2.778029	-0.530296	-2.153408
C	-0.516673	-1.182009	0.663453
N	-0.932633	-2.142942	1.198671
F	2.593779	0.0	0.0
