14

C	-0.249178	0.074805	-1.501733
C	0.0	0.0	0.0
Cl	-1.979149	0.500893	-1.901293
H	1.095588	0.0	0.0
H	-0.332957	0.939655	0.452658
C	0.693161	1.127217	-2.077939
H	1.683834	0.88457	-1.667486
H	0.388504	2.109853	-1.709512
H	0.676775	1.127547	-3.169065
C	-0.000151	-1.224172	-2.135495
N	0.18909	-2.266303	-2.645115
C	-0.634693	-1.119912	0.660476
N	-1.15839	-2.016038	1.212417
F	2.589152	0.0	0.0
