14

C	-0.263594	0.101312	-1.498765
C	0.0	0.0	0.0
Cl	-1.983809	0.602406	-1.864534
H	1.095164	0.0	0.0
H	-0.324582	0.934588	0.468582
C	0.71084	1.122448	-2.076192
H	0.457431	2.110516	-1.683466
H	0.667468	1.145585	-3.166361
H	1.70045	0.83569	-1.69231
C	-0.077997	-1.195881	-2.152913
N	0.074201	-2.238795	-2.672229
C	-0.632164	-1.126396	0.649777
N	-1.149091	-2.03579	1.186477
F	2.592946	0.0	0.0
