14

C	-0.316497	0.102892	-1.501172
C	0.0	0.0	0.0
Cl	0.206767	1.736919	-2.046717
H	1.094309	0.0	0.0
H	-0.386919	0.868314	0.536976
C	0.504562	-0.946473	-2.237624
H	0.438369	-0.819061	-3.319975
H	1.528734	-0.825284	-1.869369
H	0.138648	-1.939904	-1.962998
C	-1.751218	0.027238	-1.791503
N	-2.913791	-0.006988	-1.967951
C	-0.551408	-1.214655	0.556084
N	-1.024453	-2.185835	1.019383
F	2.588214	0.0	0.0
