15

C	0.0	0.0	0.0
C	-0.460426	-0.047606	-1.495206
Cl	1.759541	0.0	0.0
H	0.442598	0.062581	-2.105485
N	-0.379025	1.29056	0.72242
O	-0.62881	1.21641	1.914079
O	-0.268598	2.316076	0.063956
C	-0.450685	-1.13748	0.795335
N	-0.587254	-2.085156	1.477713
C	-1.355603	1.042524	-1.922862
N	-1.945105	1.823641	-2.576768
N	-1.020795	-1.36525	-1.749244
H	-1.904915	-1.315488	-1.231158
H	-1.217728	-1.438057	-2.741672
F	-2.352347	0.0	0.0
