15

C	0.0	0.0	0.0
C	-0.258932	-0.155295	-1.609668
Cl	1.764078	0.0	0.0
H	0.113358	-1.179399	-1.755994
N	-0.47436	1.317636	0.555785
O	-0.604615	1.388908	1.768532
O	-0.585158	2.232047	-0.248993
C	-0.511513	-1.121242	0.765569
N	-0.667755	-2.123559	1.361174
C	0.658555	0.727126	-2.353258
N	1.328179	1.400529	-3.044281
N	-1.545112	-0.02188	-2.22572
H	-1.706586	0.971972	-2.353008
H	-2.208926	-0.25695	-1.44485
F	-2.474091	0.0	0.0
