15

C	0.0	0.0	0.0
C	-0.259722	-0.010949	-1.602784
Cl	1.766352	0.0	0.0
H	0.532323	-0.686826	-1.939447
N	-0.494848	1.17815	0.806018
O	-0.666032	2.232647	0.220069
O	-0.568471	0.987998	2.011447
C	-0.483488	-1.246026	0.574623
N	-0.658372	-2.348629	0.943945
C	0.113852	1.297234	-2.176057
N	0.438509	2.269533	-2.748685
N	-1.489736	-0.467714	-2.172656
H	-2.20719	-0.205828	-1.448744
H	-1.460449	-1.480953	-2.170021
F	-2.466089	0.0	0.0
