16

C	0.0	0.0	0.0
C	-0.406136	0.021188	-1.50318
Br	1.954809	0.0	0.0
H	0.352266	0.633904	-2.001807
H	-0.223795	0.98493	0.426949
N	-0.570595	-1.099564	0.717233
H	-1.567911	-1.111099	0.49229
H	-0.505241	-0.928071	1.714138
N	-1.683134	0.636604	-1.791274
H	-1.704403	1.588597	-1.444132
H	-2.47341	0.171475	-1.343894
C	-0.365507	-1.374342	-2.110736
H	0.592155	-1.865903	-1.926468
H	-0.532512	-1.287009	-3.186684
H	-1.157417	-1.999735	-1.694365
Cl	-4.263208	0.0	0.0
