16

C	0.0	0.0	0.0
C	-0.491721	-0.277786	-1.430587
Br	1.961475	0.0	0.0
H	-1.582442	-0.267209	-1.325911
H	-0.25392	1.026976	0.285821
N	-0.50577	-1.012173	0.885791
H	-1.526794	-0.959405	0.781026
H	-0.296258	-0.756808	1.843809
N	-0.110037	-1.585419	-1.952711
H	0.905328	-1.642036	-1.959691
H	-0.429601	-2.283946	-1.289121
C	-0.102144	0.810885	-2.414081
H	0.976145	0.818403	-2.600798
H	-0.614439	0.628092	-3.360491
H	-0.396734	1.796469	-2.042278
Cl	-3.645287	0.0	0.0
