16

C	0.0	0.0	0.0
C	-0.469095	-0.373676	-1.404273
Br	2.015382	0.0	0.0
H	-1.559251	-0.346208	-1.284706
H	-0.260116	1.035491	0.221132
N	-0.478779	-0.852165	1.030894
H	-0.47637	-1.793916	0.649588
H	-1.458669	-0.593675	1.168868
N	-0.096819	-1.759939	-1.684853
H	-0.726453	-2.140419	-2.380159
H	0.847074	-1.79422	-2.05381
C	-0.06792	0.625473	-2.482304
H	-0.3557	1.64255	-2.197987
H	-0.579406	0.383264	-3.419186
H	1.011155	0.607265	-2.659131
Cl	-3.651929	0.0	0.0
