16

C	-0.540819	-0.058242	-1.433035
C	0.0	0.0	0.0
Br	-0.187369	1.694179	-2.264412
H	1.097453	0.0	0.0
H	-0.374524	0.902102	0.492438
C	0.186111	-1.121724	-2.231147
H	1.263353	-0.952967	-2.189195
H	-0.034192	-2.095203	-1.781067
H	-0.166193	-1.12644	-3.263344
N	-1.980385	-0.274886	-1.512547
H	-2.137767	-1.065072	-0.887732
H	-2.442304	0.522815	-1.084337
N	-0.483842	-1.210246	0.70672
H	0.314767	-1.820872	0.83928
H	-0.79739	-0.951919	1.633899
Cl	3.53819	0.0	0.0
