16

C	-0.451582	-0.063633	-1.461431
C	0.0	0.0	0.0
Br	0.023564	1.742833	-2.277821
H	1.091761	0.0	0.0
H	-0.378442	0.91808	0.461681
C	0.322926	-1.097777	-2.252737
H	1.393033	-0.911914	-2.144834
H	0.049246	-1.076117	-3.311278
H	0.08996	-2.087079	-1.849308
N	-1.860627	-0.283301	-1.554914
H	-2.154681	-0.315208	-2.523881
H	-2.361964	0.468735	-1.094711
N	-0.44056	-1.172983	0.760253
H	0.28822	-1.873451	0.73035
H	-1.28092	-1.556905	0.346056
Cl	3.551191	0.0	0.0
