16

C	-0.482109	-0.025671	-1.459427
C	0.0	0.0	0.0
Br	-0.063725	1.721918	-2.288151
H	1.093626	0.0	0.0
H	-0.31983	-0.968622	0.414439
C	0.26521	-1.10081	-2.222229
H	0.01798	-2.0766	-1.785931
H	1.341578	-0.949119	-2.122838
H	-0.033256	-1.100425	-3.271538
N	-1.919917	-0.201964	-1.641989
H	-2.170835	-1.083424	-1.200484
H	-2.415501	0.536709	-1.152852
N	-0.489999	1.057606	0.866074
H	-1.475999	1.230801	0.706541
H	0.014263	1.908644	0.652748
Cl	3.572297	0.0	0.0
