16

C	-0.263101	-0.015964	-1.505243
C	0.0	0.0	0.0
Br	-2.265148	-0.170281	-1.825031
H	1.098924	0.0	0.0
H	-0.354049	-0.945573	0.418267
C	0.165224	1.277212	-2.177969
H	-0.000306	1.222789	-3.257173
H	1.236151	1.399049	-1.980259
H	-0.377478	2.140857	-1.79122
N	0.355559	-1.194202	-2.036791
H	1.275713	-1.284574	-1.606354
H	0.478301	-1.111375	-3.039172
N	-0.505428	1.120856	0.765259
H	0.072643	1.934309	0.602141
H	-1.457083	1.333342	0.488926
Cl	3.468861	0.0	0.0
