15
Coordinates from ORCA-job run
  C   -0.80323666809830     -0.09324516121185      0.02194897408873
  C   0.50986016602100     -0.44729237807327     -0.68353039470596
  F   -1.78499275131300     -0.82493611730785     -0.58251121576158
  H   0.58305545076390     -1.53323534573619     -0.74444369972989
  N   -1.14241508733200      1.24931899103143      0.00293219152391
  H   -2.01483592201909      1.41218655549906      0.49012731766235
  H   -0.40409634241579      1.82420954866823      0.38561367619682
  N   -0.74183818621162     -0.72722432095529      1.44948211414029
  O   -1.45206590898201     -0.20257562529433      2.29641417720141
  O   -0.03752631840536     -1.72231475600033      1.58713569322229
  N   1.72449378139131     -0.00939835542529      0.10778682785805
  O   2.74979572342568     -0.63648042056318     -0.10530956177971
  O   1.58524051086254      0.94419150746803      0.86815785019186
  C   0.57677277451832      0.15148257090457     -2.00927962165103
  N   0.65078877779442      0.61531330699625     -3.08552432845753
