15
Coordinates from ORCA-job run
  C   -0.61455415870696     -0.35307640661172      0.16554496502523
  C   0.74012369055594      0.34918475826757     -0.15108703116951
  F   -0.37893321223689     -1.67940627876222      0.14992050666342
  H   0.57214738147879      1.42369666205665     -0.24267925476073
  N   -1.74445095042067     -0.05866850056528     -0.61685134225665
  H   -2.01308862139220      0.91169974679607     -0.51916399660066
  H   -1.57800078131862     -0.27953776587088     -1.58973423027966
  N   -0.95137484015997      0.07672913861380      1.59254792552763
  O   -1.16802281519088      1.28039550743931      1.70806659386961
  O   -0.97529842417554     -0.77780823638421      2.45972978364446
  N   1.19172910196746     -0.13805827605240     -1.51080881510001
  O   0.51690658207281      0.27490412635524     -2.45089106595147
  O   2.15055212105161     -0.89382700834799     -1.56887704105370
  C   1.74306314964086      0.04948027135340      0.85828415694375
  N   2.50920177683427     -0.18470773828735      1.71699884549830
