15
Coordinates from ORCA-job run
  C   -0.78387380969400     -0.09195618051371     -0.17745783319891
  C   0.66513603812366     -0.35888833495049     -0.59750510321486
  F   -1.58102963102800     -0.73477692296715     -1.08082637099005
  H   0.77823656846604     -1.42810696282496     -0.77709485475138
  N   -1.14269944755356      1.24376973540673     -0.10574126593814
  H   -2.10825597694555      1.34723290061357      0.18084638178309
  H   -0.52745019428810      1.76095133259494      0.50767583880625
  N   -1.03922792543438     -0.90401219031937      1.13328740912742
  O   -0.35459784347270     -1.90657632572280      1.31058406660781
  O   -1.94713119623450     -0.49494560107679      1.84425086812804
  N   1.65260947420354     -0.03246658802196      0.50361874138327
  O   1.31790016743887      0.81711936543947      1.32405268069068
  O   2.71393580859957     -0.63370672212702      0.45855475020034
  C   1.02219578174007      0.40734561971021     -1.78331029839268
  N   1.33425218607903      1.01101687475933     -2.74093501024087
