15
Coordinates from ORCA-job run
  C   -0.80876590176285     -0.04775609451401     -0.00683596485319
  C   0.49974805480752     -0.37039929720826     -0.73600981498965
  F   -1.81457160931722     -0.61548220028376     -0.73582093518381
  H   0.51212344373211     -1.43639105922486     -0.96309300360977
  N   -1.06702791408809      1.30112596059221      0.17438515199233
  H   -1.93683992851687      1.44199650614967      0.67314542327112
  H   -0.30292940619578      1.76452030397598      0.64768868665701
  N   -0.82501702734355     -0.89417444158265      1.30498483686023
  O   -1.52667558513316     -0.46235816148478      2.20950076366980
  O   -0.18298023707292     -1.93980667159571      1.30089594671290
  N   1.71785445318014     -0.13492896175191      0.13479765730046
  O   2.70743259742117     -0.78952520365801     -0.15169757157422
  O   1.61722968426778      0.70225290443841      1.02686058691369
  C   0.63757901958573      0.42406151660022     -1.94857215309549
  N   0.77184035643600      1.05586489954746     -2.92922961007140
