15
Coordinates from ORCA-job run
  C   -0.80393434634429     -0.03049033973172     -0.09160415489148
  C   0.56713327845348     -0.35963265046434     -0.69147912311059
  F   -1.74012160877504     -0.56081981107078     -0.93231065475905
  H   0.58302339068209     -1.41868545751868     -0.94892498485460
  N   -1.05748849003372      1.31754179082446      0.09961697780770
  H   -1.97226565981304      1.46258222708823      0.50846147107754
  H   -0.33849798448356      1.75426176063464      0.66056689348816
  N   -0.96819981675588     -0.90943767296906      1.19004772503992
  O   -1.76858174007896     -0.49655162602251      2.01844432712530
  O   -0.33292521284341     -1.95821836426909      1.23316678622392
  N   1.69069941657980     -0.17455592320491      0.30719927282142
  O   2.68649592770978     -0.85434294693908      0.11712081379125
  O   1.51856590083886      0.65259046655549      1.19775535107923
  C   0.84453001633161      0.46394071441751     -1.86001858908842
  N   1.09156692853227      1.11281783266985     -2.80704211175030
