15
Coordinates from ORCA-job run
  C   -0.56544833338133     -0.17552860211862      0.32884446178327
  C   0.74780100433098      0.30822257639564     -0.29485035396555
  F   -0.30867253721184     -1.25398210705938      1.13984559788845
  H   0.59933327974208      1.29347842216626     -0.73686758672530
  N   -1.58705215587952     -0.35917706294748     -0.60479432039948
  H   -2.47166679832158     -0.49398981071300     -0.12862453402184
  H   -1.38520230491173     -1.14755903289717     -1.20560025549524
  N   -1.06127853800387      0.91479142416357      1.28863778443505
  O   -0.39760149048990      1.93985474227767      1.39545563123027
  O   -2.10197567209436      0.64442971999648      1.87211184014989
  N   1.19976212283133     -0.58212941569226     -1.44587417699654
  O   2.06933135099811     -0.09286083088903     -2.15172715258407
  O   0.69460743925599     -1.69270316469857     -1.56232346247176
  C   1.83879948345467      0.34491140646503      0.67136774099751
  N   2.73026314968098      0.35324173555083      1.43539878617533
