18

C	-0.603169	-0.068391	-1.40126
C	0.0	0.0	0.0
F	-0.210411	-1.247256	-1.997554
H	1.09686	0.0	0.0
C	-2.106789	0.012496	-1.434973
H	-2.456956	-0.064973	-2.466355
H	-2.433662	0.959626	-1.014229
H	-2.50364	-0.813402	-0.845518
N	-0.015296	1.040159	-2.259841
O	-0.643015	2.096009	-2.315528
O	1.040037	0.798118	-2.830628
N	-0.489284	-1.190284	0.725434
H	0.074173	-1.237533	1.570694
H	-0.214427	-2.006437	0.185127
N	-0.440931	1.218112	0.650998
H	-1.198836	1.001211	1.286457
H	0.331111	1.615509	1.168734
Br	3.57935	0.0	0.0
