18

C	-0.495513	0.032023	-1.444573
C	0.0	0.0	0.0
F	-1.798227	0.457528	-1.487847
H	1.09672	0.0	0.0
C	0.366614	0.893384	-2.326263
H	1.397225	0.536196	-2.292299
H	-0.022647	0.887952	-3.347537
H	0.33512	1.903875	-1.919747
N	-0.509384	-1.370139	-2.029194
O	-1.493575	-1.726217	-2.668136
O	0.51032	-2.031315	-1.854901
N	-0.576173	-1.155954	0.705941
H	-0.380465	-1.00722	1.690907
H	-0.035541	-1.9756	0.444422
N	-0.408324	1.25789	0.589779
H	-1.367972	1.188074	0.904452
H	0.199647	1.470376	1.368843
Br	3.615205	0.0	0.0
