18

C	-0.399123	-0.00422	-1.469482
C	0.0	0.0	0.0
F	0.109094	1.127441	-2.054631
H	1.101225	0.0	0.0
C	0.062827	-1.217336	-2.224402
H	-0.193078	-1.113587	-3.281843
H	-0.393428	-2.107637	-1.801053
H	1.147543	-1.273245	-2.109288
N	-1.914005	0.136934	-1.57988
O	-2.57216	-0.83616	-1.216391
O	-2.377398	1.190672	-1.999927
N	-0.414578	-1.21562	0.659353
H	0.214618	-1.395046	1.43162
H	-1.361027	-1.106483	1.005213
N	-0.573521	1.201363	0.623777
H	-0.103006	1.31234	1.517361
H	-0.295405	2.006013	0.068656
Br	3.580511	0.0	0.0
