18

C	-0.493419	0.031637	-1.446064
C	0.0	0.0	0.0
F	-1.790593	0.472857	-1.494627
H	1.096659	0.0	0.0
C	0.382195	0.87585	-2.332141
H	0.364685	1.889413	-1.932642
H	-0.00486	0.869584	-3.354401
H	1.407917	0.504957	-2.294517
N	-0.524442	-1.374199	-2.02095
O	-1.510271	-1.719755	-2.662827
O	0.484018	-2.049897	-1.836434
N	-0.578291	-1.152428	0.70856
H	-0.375481	-1.005635	1.692347
H	-0.044147	-1.975296	0.442884
N	-0.405753	1.260286	0.587086
H	0.205987	1.475196	1.363356
H	-1.364921	1.191829	0.905982
Br	3.6134	0.0	0.0
