18

C	-0.531651	0.075611	-1.423061
C	0.0	0.0	0.0
F	-1.890295	0.334195	-1.37163
H	1.092146	0.0	0.0
C	0.158514	1.099077	-2.281101
H	-0.028322	2.077373	-1.838124
H	1.232027	0.902641	-2.280075
H	-0.237396	1.06655	-3.299599
N	-0.398465	-1.292369	-2.06775
O	-1.417575	-1.942071	-2.272897
O	0.745084	-1.635586	-2.3385
N	-0.442785	-1.241167	0.612721
H	-1.403105	-1.172292	0.92402
H	0.152318	-1.451414	1.40142
N	-0.376328	1.259469	0.644187
H	0.276252	1.437694	1.397251
H	-1.313485	1.196774	1.023271
Br	3.557077	0.0	0.0
