16
Coordinates from ORCA-job run
  C   1.10186449050920     -0.07082354932721     -0.39401781788542
  C   -0.26683447852183      0.40962010584411      0.08131649013522
  Cl  1.02766399394036     -1.32786296344090     -1.62186610563112
  H   -0.03964906961793      1.21005417507857      0.79536925612248
  H   1.69025562379838      0.75555514609022     -0.79187641515044
  N   1.87862520289760     -0.54661016867780      0.81828042189637
  O   2.28194649598384      0.37092577593488      1.52886511462139
  O   1.99325753771235     -1.74300368083712      1.03963455006271
  C   -1.05081111195331     -0.68435477123059      0.79832575890380
  H   -0.53450534779781     -1.04390477929764      1.69053186667016
  H   -2.02065455106157     -0.29192415684021      1.11201316096432
  H   -1.22739790024860     -1.53784194545100      0.14060705869241
  C   -1.05297281653021      1.00883137908407     -1.08113002344532
  H   -1.35502553942202      0.23809293878512     -1.79238487104515
  H   -1.95615171063596      1.49318976918289     -0.70334676402975
  H   -0.46761081905250      1.76005672510263     -1.61832168088167
