16
Coordinates from ORCA-job run
  C   1.12758614612193      0.13246764756286     -0.19050418047842
  C   -0.36669681008537     -0.08497400088723     -0.36279174225935
  Cl  1.97785062072962      0.31488232470394     -1.72900527971390
  H   -0.48331587905441     -0.92731531958260     -1.05304320521284
  H   1.35461447570302      0.99938674265541      0.42916026436431
  N   1.71102487059947     -1.04453788024044      0.54774007622710
  O   1.66644618997684     -2.13440402640538     -0.00861358520331
  O   2.12059159881296     -0.81895605693228      1.68424430361732
  C   -1.01446369964215      1.16282181602477     -0.95714662382145
  H   -0.88421463082102      2.02002598688458     -0.28946261023040
  H   -0.59569546499770      1.41814255184638     -1.93094162422566
  H   -2.08673866756451      0.99910262514179     -1.08379904577875
  C   -1.00133183125206     -0.44322062583881      0.98152409081992
  H   -2.08350979933764     -0.52799406504224      0.86288871403477
  H   -0.63687713266110     -1.39603116646474      1.36941147603535
  H   -0.80426998652788      0.32960344657398      1.73033897182531
