16
Coordinates from ORCA-job run
  C   1.05827932306679     -0.40642177369678     -0.56109334904953
  C   -0.43940118470114     -0.11099121649138     -0.51887336191201
  Cl  1.41201873416153     -2.09292785950341     -0.93644836407239
  H   -0.80194977943956     -0.43353741353663     -1.50252290049722
  H   1.56123967748677      0.21178260722387     -1.30253485888098
  N   1.69651521403472     -0.02213154502970      0.75196498316020
  O   1.64518793398910     -0.81247806647373      1.68541666802571
  O   2.16698228251798      1.11409732056884      0.78350192110691
  C   -0.68219742299819      1.39204778277577     -0.38301625747999
  H   -1.74726495311857      1.60149099907319     -0.50482113659773
  H   -0.13583553342770      1.96294937827310     -1.13764295556739
  H   -0.37900896811791      1.75922389425126      0.59969497372623
  C   -1.18759147649225     -0.89664771613759      0.55373084439088
  H   -2.26090204216220     -0.73207175284307      0.43406249845553
  H   -0.90661267134900     -0.56725545962471      1.55578611515625
  H   -0.99845913345035     -1.96812917882904      0.48379518003551
