16
Coordinates from ORCA-job run
  C   1.08840798884781     -0.11573884707811     -0.41947556267271
  C   -0.25228715537259      0.41955665372345      0.07620777876981
  Cl  0.94405469611053     -1.40471681973311     -1.60745690583756
  H   0.01696495457081      1.23232034395745      0.76110363551115
  H   1.69069262352494      0.68017504330591     -0.85665207082675
  N   1.88231082651276     -0.58014191899824      0.78623182831992
  O   1.96737396388280     -1.77256270837803      1.03983437788329
  O   2.33085870802675      0.34494973682320      1.45895123143118
  C   -1.04984775011781     -0.62919697451461      0.84411959047250
  H   -1.99806793809659     -0.19752026725042      1.17210104076558
  H   -0.52100342643504     -0.98046896480384      1.73226567318540
  H   -1.27085363609303     -1.49407493139182      0.21538647632148
  C   -1.05035665730363      1.00947851914877     -1.08293086787146
  H   -0.45647624524441      1.72540065216156     -1.65765598391977
  H   -1.39530863699365      0.22815169635825     -1.76242429800061
  H   -1.92746231581966      1.53338878666959     -0.69660594353145
