16
Coordinates from ORCA-job run
  C   1.12843049213985      0.04062776756088     -0.22601013004475
  C   -0.38140137487057     -0.08891584874903     -0.34651590400244
  Cl  1.94576229401281      0.04098021023026     -1.79266387312288
  H   -0.57110697141392     -0.97437583458776     -0.96263465103555
  H   1.42844098481120      0.93734690103177      0.31528262561905
  N   1.65339877101392     -1.10938647853105      0.59316214724925
  O   2.10736640799348     -0.82121925934730      1.69814675222515
  O   1.52302242932158     -2.23486351913055      0.12894304438690
  C   -0.96295152873299      1.14793582714216     -1.02580803746672
  H   -0.76558519768449      2.04350964975637     -0.42866814042266
  H   -2.04577522148935      1.04355462075782     -1.12187577392122
  H   -0.54995172496065      1.30095692019540     -2.02323905525783
  C   -1.00040637066455     -0.29493445343926      1.03647979868697
  H   -0.68947855491462     -1.23671440060986      1.49197523239215
  H   -0.73097149962300      0.51968142993489      1.71518910951862
  H   -2.08879293493868     -0.31418353221474      0.95023685519596
