14
Coordinates from ORCA-job run
  C   0.41411038814874     -0.71253120325846      0.32334346207455
  C   -0.58352405530914      0.06481131399219     -0.54153140960748
  H   -0.02824596431973     -0.85075205657874      1.31695410498239
  H   -0.13167188172392      0.23480820397351     -1.52519799568787
  H   0.54026377162922     -1.71217645991705     -0.10355252006992
  C   1.75626897472923      0.00141297423538      0.42795585193366
  H   2.44656112211952     -0.56518645164137      1.05683617685219
  H   2.21493518652976      0.10881552087725     -0.55876360692611
  H   1.63307930702295      0.99712558320208      0.85206968556165
  N   -0.85716077069619      1.37235922907692      0.04626725106300
  H   -1.44572974313976      1.91895138328024     -0.57128765551129
  H   -1.36251751038534      1.25113215573734      0.91725369593902
  C   -1.80322261844777     -0.74560094284112     -0.75362590810170
  N   -2.79314620615758     -1.36416925013818     -0.88672113250208
