14
Coordinates from ORCA-job run
  C   0.47181645893649     -0.76654241900001      0.12096696397656
  C   -0.71322848861967      0.03976732300404     -0.42068420675379
  H   0.17036579063484     -1.19616968874003      1.07993779020026
  H   -0.45788871125297      0.39355884559920     -1.43352660492592
  H   0.66858647980188     -1.59373754993419     -0.56808721546005
  C   1.72313310355659      0.08793660084647      0.29082089876846
  H   1.98160718284055      0.60555112245286     -0.63795631117821
  H   1.59233789372086      0.83074103392309      1.07997330345071
  H   2.57670283977030     -0.53280565786422      0.57019792761231
  N   -1.05559818306684      1.12477219505394      0.50216512873674
  H   -1.92932317111887      1.55510361011447      0.22220172844968
  H   -0.33951146335698      1.83908944099722      0.44946335017230
  C   -1.88132002286077     -0.83932764161114     -0.56606517379468
  N   -2.80867970898540     -1.54793721484171     -0.68940757925438
