14
Coordinates from ORCA-job run
  C   0.77307924345775     -0.11227660878898     -0.59566266980188
  C   -0.74357469586392      0.11446033621751     -0.55153320973196
  H   1.22156192133969      0.78303904315021     -1.04351323315283
  H   -1.10491184620709      0.21699639723043     -1.58700916107573
  H   0.97566054514932     -0.93992266252083     -1.28277377678267
  C   1.38450343278992     -0.38648768452445      0.77293035087848
  H   2.46773146644099     -0.49983735637379      0.68975033053787
  H   1.17066384831686      0.42861976376640      1.46376167397034
  H   0.98236145186516     -1.30742914361026      1.20141092795008
  N   -1.05373404040964      1.27342176782941      0.28717413477630
  H   -2.05601410700832      1.41564539510969      0.33321256671615
  H   -0.64478050734119      2.09872595588957     -0.13656096568357
  C   -1.41756270043661     -1.06622209824192      0.00894161787188
  N   -1.95498401209292     -2.01673310513299      0.43987141352756
