7
Coordinates from ORCA-job run
  C   -1.03888568866112      0.14838902918416     -0.12992993975988
  C   0.19204618409462      0.21807639455514      0.40013489840165
  H   -1.87198149794914      0.65024001019626      0.34765335135514
  H   -1.23394263530324     -0.40723267767286     -1.04025249146751
  H   0.38195738462777      0.77469157516931      1.31258983071893
  C   1.31935400551790     -0.42918554466860     -0.20183822205417
  N   2.25145224767321     -0.95397878676341     -0.68935742719415
