7
Coordinates from ORCA-job run
  C   -1.03343669164870      0.16449212408736     -0.15308825305985
  C   0.11199953547425     -0.23942826263883      0.41765898875018
  H   -1.04067139065036      0.68971150327143     -1.10130002460838
  H   -1.98446761852933     -0.02832846712398      0.32883326408668
  H   0.11322504359579     -0.76499599800410      1.36749957751979
  C   1.38955640594418     -0.00450849376944     -0.18623590192043
  N   2.44279471581417      0.18305759417756     -0.67336765076798
