7
Coordinates from ORCA-job run
  C   -1.02224689139432      0.23446125678846     -0.13328368719852
  C   0.10050736315782     -0.26770063563003      0.40363487855956
  H   -1.00482766459717      0.80699364052920     -1.05354553509809
  H   -1.97976267471295      0.07597356680652      0.34811697138899
  H   0.07676801322334     -0.83997516293845      1.32570487360989
  C   1.38542591352846     -0.07908242878351     -0.20092894201865
  N   2.44413594079483      0.06932976322781     -0.68969855924319
