7
Coordinates from ORCA-job run
  C   -1.02762576062353      0.21424728139046     -0.12533480854849
  C   0.10694708935685     -0.28166599573342      0.39209298578688
  H   -1.98147936387172      0.01029493797231      0.34629504455113
  H   -1.02307847431729      0.82649383982228     -1.01983604722070
  H   0.09701890560417     -0.89430038819670      1.28814247190873
  C   1.38724001730201     -0.03540040405019     -0.20145394296354
  N   2.44297758654953      0.16033072879525     -0.67990570351401
