7
Coordinates from ORCA-job run
  C   -1.01702271244596      0.27322339754548     -0.09606121625355
  C   0.19350466255803      0.07599083805248      0.44858641530971
  H   -1.82416689849572      0.68892442700262      0.49519029376742
  H   -1.22050170391977      0.02510326906755     -1.13145090607292
  H   0.39216647926748      0.32614341990005      1.48602640470050
  C   1.28623638205828     -0.47071778379760     -0.29917220509424
  N   2.18978379097766     -0.91866756777058     -0.90311878635691
