7
Coordinates from ORCA-job run
  C   -1.00781831166225      0.29063360276727     -0.13454020219464
  C   0.17365029475489      0.06037164762385      0.45872754357035
  H   -1.83597425953040      0.69968203072932      0.43177674931232
  H   -1.16670826148948      0.07729761042692     -1.18532094392963
  H   0.32660630094794      0.27601087194900      1.51159939852531
  C   1.29272614720918     -0.47996537773630     -0.25373540312753
  N   2.21751808977012     -0.92303038576007     -0.82850714215619
