7
Coordinates from ORCA-job run
  C   -1.02713914948352      0.17056698730477     -0.18447187282655
  C   0.10108094509505     -0.20178718293055      0.43947141192055
  H   -1.98878618961900      0.04306868315174      0.29798626358055
  H   -1.01001355147285      0.60431026515745     -1.17746540068636
  H   0.07753252373207     -0.63559661626713      1.43426808032476
  C   1.39190797618356     -0.04989041905518     -0.16276280710519
  N   2.45641744556470      0.06932828263891     -0.64702567520776
