16

C	-0.253186	-0.142179	-1.499602
C	0.0	0.0	0.0
F	-1.509749	-0.704821	-1.749479
H	1.090548	0.0	0.0
C	-0.18629	1.126206	-2.254938
N	-0.099806	2.105067	-2.895314
N	0.753157	-1.031461	-2.04868
H	0.603828	-1.925751	-1.584476
H	1.644604	-0.687085	-1.648016
N	-0.412126	-1.153444	0.747111
H	-1.135668	-1.68794	0.287778
H	0.394646	-1.71739	0.969391
N	-0.6105	1.210157	0.625547
O	-1.480574	1.825742	0.001147
O	-0.224923	1.499423	1.75301
F	2.594225	0.0	0.0
