16

C	-0.489607	-0.047804	-1.443351
C	0.0	0.0	0.0
F	-0.100924	1.14749	-2.068065
H	1.0896	0.0	0.0
C	0.219198	-1.139126	-2.151522
N	0.711008	-1.996238	-2.78483
N	-1.889034	-0.274029	-1.577325
H	-2.156505	-0.251206	-2.554477
H	-2.376629	0.445644	-1.053217
N	-0.483278	-1.080094	0.798732
H	-1.284111	-1.54731	0.394438
H	0.280188	-1.721482	0.963101
N	-0.50401	1.298958	0.595845
O	0.305527	2.052534	1.118583
O	-1.72435	1.520483	0.563418
F	2.552893	0.0	0.0
