16

C	-0.182903	-0.005899	-1.532177
C	0.0	0.0	0.0
F	-0.153291	-1.367288	-1.880885
H	1.099017	0.0	0.0
C	-1.493925	0.494735	-1.998774
N	-2.541867	0.864361	-2.376908
N	0.903028	0.631545	-2.201246
H	1.736286	0.479153	-1.6021
H	0.723682	1.62585	-2.240935
N	-0.710255	-1.060949	0.67992
H	-0.376151	-1.077055	1.636688
H	-0.401129	-1.920236	0.243476
N	-0.409419	1.299879	0.570748
O	-0.385129	2.301165	-0.151655
O	-0.674999	1.324161	1.772265
F	2.612667	0.0	0.0
