16

C	-0.572247	0.071523	-1.411598
C	0.0	0.0	0.0
F	-0.289047	1.252401	-2.060609
H	1.09465	0.0	0.0
C	0.076629	-1.000101	-2.219743
N	0.471436	-1.842714	-2.935947
N	-2.006038	-0.060062	-1.380514
H	-2.218273	-0.90879	-0.868019
H	-2.360687	-0.159245	-2.325161
N	-0.421585	-1.259435	0.575023
H	0.403564	-1.663624	1.001905
H	-1.100497	-1.080274	1.30703
N	-0.512637	1.166959	0.77813
O	-0.177329	2.285388	0.403798
O	-1.244566	0.956352	1.754776
F	2.525613	0.0	0.0
