16

C	-0.174357	-0.104521	-1.532322
C	0.0	0.0	0.0
F	-0.172408	-1.485301	-1.782654
H	1.095009	0.0	0.0
C	-1.464758	0.399184	-2.050223
N	-2.476438	0.795595	-2.491746
N	0.927036	0.464213	-2.235036
H	1.755215	0.355588	-1.619793
H	0.758587	1.450822	-2.376808
N	-0.71197	-1.022686	0.735429
H	-0.520544	-0.869314	1.718184
H	-0.276882	-1.899609	0.477791
N	-0.417305	1.329876	0.483344
O	-0.332555	2.289672	-0.287947
O	-0.754461	1.424582	1.664526
F	2.614065	0.0	0.0
