16

C	-0.571496	-0.021967	-1.412754
C	0.0	0.0	0.0
F	-0.148283	1.123453	-2.103366
H	1.090261	0.0	0.0
C	-0.01722	-1.178145	-2.147044
N	0.346694	-2.062448	-2.826106
N	-1.994259	-0.121952	-1.421132
H	-2.343434	-0.073842	-2.370186
H	-2.396031	0.624522	-0.867003
N	-0.43776	-1.157343	0.696573
H	0.197228	-1.334327	1.462709
H	-1.393392	-1.087885	1.017894
N	-0.500361	1.296266	0.616799
O	-1.562666	1.255574	1.262753
O	0.148819	2.319852	0.434117
F	2.540248	0.0	0.0
