16

C	0.0	0.0	0.0
C	-0.469736	0.013746	-1.470442
Br	1.950068	0.0	0.0
H	-1.563117	0.093283	-1.336513
N	-0.480076	1.224311	0.589253
H	-0.198285	1.247373	1.564089
H	-1.507807	1.076947	0.536883
N	-0.490903	-1.241751	0.564335
H	-0.181732	-1.303929	1.529109
H	-1.516623	-1.060338	0.541065
N	-0.048574	-1.204443	-2.177682
H	-0.733523	-1.389778	-2.902876
H	-0.136301	-1.944064	-1.483751
C	0.021879	1.197176	-2.183933
N	0.351525	2.126165	-2.822504
F	-2.83199	0.0	0.0
