16

C	0.0	0.0	0.0
C	-0.041601	0.111439	-1.5449
Br	2.358449	0.0	0.0
H	0.604498	-0.690666	-1.918394
N	-0.392116	1.096283	0.732066
H	-0.205402	1.93595	0.189933
H	-1.425166	0.919348	0.765112
N	-0.450859	-1.239926	0.438788
H	-1.490555	-1.092944	0.255142
H	-0.333544	-1.261623	1.447895
N	0.382992	1.45115	-1.964487
H	1.391788	1.487992	-1.870553
H	0.137511	1.587912	-2.937044
C	-1.360929	-0.128852	-2.16407
N	-2.196017	-0.274515	-2.979545
F	-2.666797	0.0	0.0
