16

C	0.0	0.0	0.0
C	-0.250556	0.12624	-1.563004
Br	2.022524	0.0	0.0
H	0.529612	0.777417	-1.978405
N	-0.626729	1.016073	0.760269
H	-0.553281	1.889505	0.253947
H	-1.641735	0.735742	0.668044
N	-0.469547	-1.244823	0.467219
H	0.138515	-2.022607	0.25858
H	-0.703087	-1.196639	1.447431
N	-1.528988	0.724562	-1.815667
H	-2.303231	0.293524	-1.233619
H	-1.718337	0.753898	-2.810742
C	-0.027286	-1.20258	-2.184484
N	0.121859	-2.229864	-2.737029
F	-3.105734	0.0	0.0
