16

C	0.0	0.0	0.0
C	-0.4678	0.040389	-1.479863
Br	1.954283	0.0	0.0
H	-1.562915	0.088856	-1.326034
N	-0.470823	1.123208	0.765475
H	-0.182692	1.99278	0.328818
H	-1.499227	1.013769	0.676143
N	-0.50364	-1.238875	0.531139
H	-0.25999	-1.253834	1.516826
H	-1.532969	-1.075339	0.460463
N	-0.018532	-1.132888	-2.235836
H	0.006706	-1.882194	-1.548494
H	-0.75019	-1.367821	-2.898699
C	-0.029349	1.274438	-2.13822
N	0.278073	2.27979	-2.663028
F	-2.840141	0.0	0.0
