14
Coordinates from ORCA-job run
  C   0.96051359808477      0.06687407440395      0.28465264074135
  C   -0.42337954912761      0.33670770994901     -0.27229806217876
  H   0.84377204348022     -0.30259890248634      1.30434461371850
  H   -0.40220021040967      0.69320773539638     -1.30095258221585
  H   1.50336568067382      1.01468339071257      0.32371075705276
  N   1.57595239999278     -0.93927740517829     -0.56695649565816
  H   2.00638534224635     -1.67320625973440     -0.02593292671170
  H   2.26838134932587     -0.53486144785194     -1.18013421420747
  N   -1.14529668864876      1.38387450172145      0.53489784122665
  O   -0.56832069171321      2.46564027181232      0.58311787883580
  O   -2.20668872278602      1.09095108469648      1.07044949102014
  N   -1.25730833561996     -0.90399855158918     -0.25814705050098
  O   -1.11862403732661     -1.65780084192696      0.69861119779563
  O   -2.03755217817197     -1.04019535992507     -1.19536308891792
