14
Coordinates from ORCA-job run
  C   0.83650188644072     -0.56598360343932      0.03956158916774
  C   -0.57054088578992     -0.08009196656714     -0.23494063602676
  H   0.85008619251368     -1.63183435477772     -0.19783070983302
  H   -0.86876141690057     -0.24073217060785     -1.26848134253675
  H   1.04983699943780     -0.44559522336863      1.10760118722586
  N   1.73283076488488      0.15520721444488     -0.84986182327887
  H   2.07413528128643      0.99109348102074     -0.39536781569680
  H   2.52460372524030     -0.41861843307390     -1.10217713105580
  N   -0.72159419368956      1.38296288740204      0.03950767955042
  O   0.08884605156234      1.90940306579389      0.79727564954532
  O   -1.67359094408136      1.92987538625283     -0.50717235179784
  N   -1.55149730488761     -0.80348381266750      0.64251781880557
  O   -2.00312510557794     -0.21840590912033      1.61948020621359
  O   -1.76773105043920     -1.96379656129200      0.30988767971731
