14
Coordinates from ORCA-job run
  C   0.91045260813194     -0.20017699266835      0.59581737268834
  C   -0.55414287207907      0.17988287074623      0.51078361585037
  H   1.38883617652779      0.57789375591904      1.19450314833277
  H   -0.98947259369255      0.45523707415388      1.47115682524627
  H   0.97617492752566     -1.14318533932926      1.15532832927000
  N   1.50644581353385     -0.20975763610406     -0.72535464158327
  H   2.50618982239469     -0.08111569636492     -0.66748210069928
  H   1.30955517224778     -1.08019500622344     -1.19814846464302
  N   -1.42069668106759     -0.90703020349710     -0.04575368740045
  O   -2.62520567959520     -0.77087437815299      0.14205006777667
  O   -0.87540216569751     -1.83386468158766     -0.64019343526718
  N   -0.69455025818951      1.37813295686032     -0.38897287275847
  O   -1.21285674907728      1.22910336707185     -1.48434864080378
  O   -0.22432752096299      2.40594990917646      0.08061448399104
