14
Coordinates from ORCA-job run
  C   0.98764314043455      0.04244738469779      0.22678388212703
  C   -0.41001689041396      0.41752046062394     -0.22995837508474
  H   1.59386297518631      0.94837455434615      0.25741376603579
  H   -0.42981576900130      0.87670619863922     -1.21781924191605
  H   0.91480877332698     -0.34066855980438      1.24677490068037
  N   1.49256467011484     -0.95544511254253     -0.70602867107295
  H   2.33815341416820     -0.64909031180657     -1.16226107069592
  H   1.67222749571942     -1.83369837324124     -0.24386179384149
  N   -1.09502064281865      1.36599118041231      0.71778066405775
  O   -0.36545832520968      2.17371831987358      1.28435586104394
  O   -2.31409252675886      1.29204776258356      0.80793344866068
  N   -1.25683361981249     -0.81067807301188     -0.31079884323091
  O   -1.25152052392477     -1.53158756511763      0.68268846130121
  O   -1.87650217101061     -0.99563786565235     -1.35100298806471
