14
Coordinates from ORCA-job run
  C   0.85809705674411     -0.47968640315245      0.24970085314844
  C   -0.56587919940030     -0.19614141286466     -0.19156226252366
  H   1.00893580319413     -0.00252797575405      1.22026935333661
  H   -0.83328710481489     -0.69289866754948     -1.12367369452031
  H   0.96631002017719     -1.55554980174733      0.39094621116303
  N   1.74197835010810      0.05712588349611     -0.77573817975944
  H   2.33006122843371      0.78941327242844     -0.40818267209691
  H   2.32720433908059     -0.65824707627551     -1.17917508019860
  N   -0.73577233678798      1.27002451236295     -0.42281073538370
  O   -0.35788464492987      2.00322349252642      0.48623942692533
  O   -1.22950828041983      1.61478764345593     -1.48938689523862
  N   -1.58469923132912     -0.60264810763378      0.83987576489216
  O   -1.30324756965764     -1.59383338025427      1.50621879430890
  O   -2.62130843039821      0.04695802096168      0.89627911594678
