16
Coordinates from ORCA-job run
  C   0.47729252035846      0.75763484608101      0.03972399672705
  C   -0.88534117807818      0.04828121115444      0.21727260772032
  Cl  0.27205490172844      2.13642639532630     -1.08826740235085
  H   -1.60524366039523      0.76103340010942      0.62049491843289
  C   0.82486566349931      1.30116138057622      1.35417409100002
  N   1.11991978914226      1.73662302267489      2.40457938536851
  C   1.60174439134969     -0.13865770340163     -0.46526773142125
  H   2.51699262823292      0.44925422019218     -0.53840589575214
  H   1.35670392259751     -0.54225248016320     -1.44620501349276
  H   1.77218897768504     -0.95310532249747      0.24107562597643
  N   -0.74002745340962     -1.07743283183055      1.06952104575879
  H   -1.62764766254380     -1.36714871995338      1.45782364442497
  H   -0.31819050530364     -1.85469780191657      0.57659635941437
  N   -1.44875206220972     -0.31932833326664     -1.15264566567531
  O   -2.37856021946929      0.35452390484156     -1.58264054095483
  O   -0.93800005318415     -1.29231518792658     -1.70682942517621
