16
Coordinates from ORCA-job run
  C   0.72200111318741      0.28288438354171     -0.39603157268820
  C   -0.45507911612487     -0.71653202187820     -0.34054697286924
  Cl  1.73691152024253     -0.21130171579261     -1.78930028532146
  H   -0.04898596328502     -1.72846397223319     -0.35200342637556
  C   0.21917136372952      1.63153262802479     -0.65831725427551
  N   -0.18958675506705      2.71681506063321     -0.84786596775534
  C   1.58079411996179      0.26879819617751      0.86378173468314
  H   1.90318928496055     -0.75034633114730      1.08249856172312
  H   1.02017536872099      0.65976491410499      1.71468055705906
  H   2.45886505666636      0.89552368807367      0.70766729523058
  N   -1.37322028580160     -0.51376470977585     -1.39117107769111
  H   -1.87295027557343      0.36142496883943     -1.28812983362916
  H   -2.02878547391154     -1.27814560045905     -1.47625414889073
  N   -1.07790685744649     -0.57891359617482      1.05340855483363
  O   -0.74590977911756     -1.40438803800992      1.90040414602328
  O   -1.84768332114158      0.36511214607562      1.21717968994351
