16
Coordinates from ORCA-job run
  C   0.69174594718419      0.21260291905207     -0.33510026959116
  C   -0.54060475370481     -0.73062263914083     -0.21579205971531
  Cl  1.65922651504628     -0.44725252231102     -1.70249727435880
  H   -0.16515779544556     -1.74770313486989     -0.10038577909054
  C   0.26157802120103      1.55800885698240     -0.70841255836131
  N   -0.10191558955643      2.63403344247607     -1.01027845674689
  C   1.55540397902265      0.23237501082210      0.91821319811878
  H   1.81477290897994     -0.78778324612315      1.20654084887548
  H   1.01718795747258      0.70937260043136      1.73953677159020
  H   2.47034988764634      0.79377834196308      0.72717486857800
  N   -1.52510448183112     -0.67633636387181     -1.24035646895992
  H   -1.83471794235373      0.27225510556245     -1.41468651881473
  H   -1.18802529691885     -1.10014741805733     -2.09321948324697
  N   -1.21412226969151     -0.39791864545793      1.08885165499892
  O   -0.98321222553157     -1.13255467000046      2.04548591036291
  O   -1.91740486151943      0.60889236254289      1.09292561636132
