16
Coordinates from ORCA-job run
  C   0.42956340382670      0.78340642785732      0.06573648236052
  C   -0.85850851600441     -0.03645814944253      0.30904564171585
  Cl  0.01813103707477      2.24005677693408     -0.89576819823709
  H   -1.57469470846739      0.58183068504780      0.85093302626363
  C   0.88172983052673      1.22934484743155      1.38502436051808
  N   1.26281134485733      1.58878908975508      2.43648402135132
  C   1.54821354764847      0.02135142064017     -0.63508278279869
  H   2.41032249709004      0.68007111514719     -0.74300621151370
  H   1.22531246443702     -0.30964691156427     -1.62067122528089
  H   1.84608304425909     -0.83826146084484     -0.03197698050892
  N   -0.55178048584419     -1.22165221426883      1.02752973878467
  H   -0.13564234228898     -1.91719205256175      0.42079370951343
  H   -1.37306026618154     -1.61069525663297      1.47117177139727
  N   -1.54185773209718     -0.31751144798742     -1.02626623511300
  O   -1.03263952095210     -1.19472264330829     -1.72335229174610
  O   -2.55398359788437      0.32228977379772     -1.29059482670639
