16
Coordinates from ORCA-job run
  C   0.44399264840583      0.57860525502977     -0.08275679979700
  C   -0.66481377301383     -0.47819057450507      0.19573699893529
  Cl  0.22074435397360      1.27030023799317     -1.72227094103869
  H   -0.50426088323518     -0.84601846379976      1.21150723916286
  C   0.39196204254630      1.67016662306864      0.88820276579317
  N   0.42035749499739      2.53423548679681      1.68456098937457
  C   1.81388529014071     -0.08992655045046     -0.02171619516659
  H   1.88481858544922     -0.86101403913415     -0.78903430184526
  H   1.96718819220759     -0.53474698774877      0.96520366223307
  H   2.59463680671699      0.64973839301007     -0.19926650395281
  N   -0.76608971145303     -1.56695831885229     -0.70694558875508
  H   -0.77619130512457     -1.27528169904769     -1.67435196654498
  H   -0.06822146944034     -2.27511354323520     -0.53810480747937
  N   -1.99994930127300      0.22916954912453      0.24906929490668
  O   -2.64838783649493      0.27193841575224     -0.78943666365818
  O   -2.30867113440275      0.72409621599818      1.33060281783232
