16
Coordinates from ORCA-job run
  C   0.42785787833998      0.58857850063607     -0.09443834305707
  C   -0.64821034316153     -0.49432425667636      0.21166959003134
  Cl  0.14992116683592      1.27088793582346     -1.72939841070227
  H   -0.45388046503201     -0.85730359050061      1.22323922210914
  C   0.37205932152431      1.68110525568056      0.87517526927672
  N   0.39870349828912      2.54862832725413      1.66784575578591
  C   1.81456021310583     -0.04648572084118     -0.06402672361161
  H   2.57300911383363      0.71132063562189     -0.26082720066450
  H   2.00139141795506     -0.48541530907986      0.91976230628429
  H   1.88616688345918     -0.81740259332159     -0.83148596286085
  N   -0.74553807182246     -1.58574494422585     -0.68802188670456
  H   -0.02881407985965     -2.27843583471920     -0.53479730097581
  H   -0.78469510882266     -1.29564947179090     -1.65508649755456
  N   -1.99787378360310      0.18148694994313      0.29799293491182
  O   -2.29168778418603      0.66922820427434      1.38687593081460
  O   -2.67196985685562      0.20952591192196     -0.72447868308259
