16
Coordinates from ORCA-job run
  C   0.43969638037095      0.73439867058526     -0.02655679251520
  C   -0.94351514702982      0.05961197742626      0.22223472083335
  Cl  0.19392165571057      2.19084148401052     -1.04306342639398
  H   -1.63349480165892      0.82770564471224      0.57302065703793
  C   0.89443886877863      1.17242122719843      1.29463895465388
  N   1.23824475884366      1.47506445217985      2.37708159471656
  C   1.49720820320731     -0.15137228213518     -0.67421382187118
  H   2.43716132165933      0.39868587093426     -0.72889634933271
  H   1.65820324913836     -1.05198620698451     -0.07847156804975
  H   1.19224289936157     -0.43717126632574     -1.67903778248482
  N   -0.95681052293652     -1.05724271047816      1.10935240504580
  H   -0.79596126694512     -0.77894714233272      2.06752889921468
  H   -0.31295728916640     -1.78331990153179      0.82750079406203
  N   -1.50165226811063     -0.41042280658197     -1.09305047764238
  O   -2.38744351614253      0.26186719806116     -1.60858224015072
  O   -1.01928252508044     -1.44913420873789     -1.54048556712351
