16
Coordinates from ORCA-job run
  C   0.72924155053603      0.29326393040697     -0.37600242768996
  C   -0.41562489723751     -0.74336348000366     -0.33234808592526
  Cl  1.81903890850446     -0.21498211275953     -1.70636608271000
  H   0.02324873890698     -1.74056020224999     -0.28920314453830
  C   0.19324586593202      1.61299473232443     -0.71001276175063
  N   -0.24504366480000      2.67485134987026     -0.95730757679502
  C   1.53239297949069      0.35440435913295      0.91848186612124
  H   1.87383863081182     -0.64494416396460      1.19208171548941
  H   0.92385559543847      0.76067582534961      1.72824230589393
  H   2.39804885686586      1.00097723676101      0.77539720969271
  N   -1.29415674165142     -0.61063572072320     -1.42696616640736
  H   -1.82569055152024      0.25043554306180     -1.37885265030591
  H   -1.92068651594768     -1.39939247063254     -1.50873748975086
  N   -1.10188340578116     -0.57746121883944      1.02848615172001
  O   -0.77890539832521     -1.35998596144899      1.91866610178803
  O   -1.91091995122309      0.34272235371493      1.12444103516797
