16
Coordinates from ORCA-job run
  C   0.42852460305791      0.77740181315709      0.12446948014861
  C   -0.87007449432313     -0.04945009705832      0.27112132420212
  Cl  0.05875212485389      2.28536183856842     -0.77312234183620
  H   -1.60656341173905      0.54259000990080      0.81505583894252
  C   0.82553413321552      1.15035204495237      1.48371232518995
  N   1.15984741099649      1.45072614686097      2.56909613403186
  C   1.57327297754515      0.04963822977784     -0.57013535517151
  H   1.29165998283877     -0.22253917091352     -1.58603812889879
  H   1.84077576527351     -0.84530513907932     -0.00518984717448
  H   2.44201322293856      0.70754083980270     -0.60300708550323
  N   -0.59523550746900     -1.27213098879693      0.93778448657710
  H   -1.43345364510494     -1.67805986369639      1.33143193179433
  H   -0.15960589977384     -1.93770838505945      0.31145100368314
  N   -1.49784614118250     -0.25766885272525     -1.10398152377014
  O   -2.49673418147855      0.39904030976061     -1.37675318912548
  O   -0.96186693964879     -1.09978873545162     -1.82389505308981
