16
Coordinates from ORCA-job run
  C   0.40828381471141      0.73759134989480      0.15231985994632
  C   -0.90303945842436     -0.08210903937455      0.34665849593821
  Cl  -0.02645015063741      2.41511885719676     -0.30821400629698
  H   -1.56011848394010      0.48642467576407      1.00551396263219
  C   1.03482551662491      0.77596404852110      1.47521032209374
  N   1.52287111360915      0.75161694920560      2.54427037658085
  C   1.38853599431118      0.17903598451020     -0.87200357137170
  H   1.65912271326079     -0.84835183304866     -0.62116208233821
  H   0.95225481504973      0.20058133484992     -1.86861446073750
  H   2.29455063864166      0.78569581310554     -0.86523389875007
  N   -0.75459468870142     -1.41573694528599      0.83037982923128
  H   -0.13332711572992     -1.96928103235368      0.25714673607557
  H   -0.47104242793461     -1.43546685221764      1.80011413602800
  N   -1.62816537384915     -0.16519891000539     -0.96850086536562
  O   -1.18121431387527     -0.97614105582965     -1.77749940070937
  O   -2.60149259311659      0.56225665506758     -1.12938543295668
