16
Coordinates from ORCA-job run
  C   0.71255498624187      0.33492504583747     -0.37297914705882
  C   -0.41913066341384     -0.71668688487186     -0.38242250088984
  Cl  1.76025540370832     -0.03954485509708     -1.77941590739012
  H   0.03126872048874     -1.70790846375363     -0.44175427402818
  C   0.15172951107384      1.67180344123495     -0.57016844505067
  N   -0.30612320222402      2.74525325213406     -0.70766362309356
  C   1.55996446299646      0.29259745361635      0.89373911123952
  H   0.97598315019601      0.61670357899460      1.75683107729457
  H   2.41276949302877      0.96157288059750      0.77929945444636
  H   1.92205968336775     -0.72206930980768      1.06518290985474
  N   -1.33644338568138     -0.50036849531637     -1.43110147388814
  H   -1.95690864845678     -1.28749771814024     -1.56096746664649
  H   -1.87542187314018      0.34558265295798     -1.28893613315599
  N   -1.05989865043150     -0.67966701196374      1.01001789801747
  O   -0.69784491509205     -1.53228516391983      1.81694405883422
  O   -1.87481407266199      0.21758959749753      1.21339446151493
