16
Coordinates from ORCA-job run
  C   0.44294588030841      0.76391622287618      0.15712467365588
  C   -0.85335403552678     -0.06404294613062      0.31600658166257
  Cl  0.03785462152064      2.33654922447782     -0.60289743104599
  H   -1.55160727482600      0.48942874906695      0.94447580305843
  C   0.92127784191949      1.03155137104105      1.51489989710647
  N   1.32103070729522      1.24988922849886      2.59766863515214
  C   1.53870363023182      0.08282518511379     -0.65412745106861
  H   1.19633356282596     -0.11498069031056     -1.66839288115141
  H   1.83101709065183     -0.85080827382520     -0.17033851826372
  H   2.40972026824105      0.73747978604638     -0.69170842727410
  N   -0.55305616521842     -1.33504296636519      0.87281321257123
  H   -0.16138474238525     -1.95391507349987      0.17371932744427
  H   -1.37243932744779     -1.76505424515481      1.28068919187744
  N   -1.56082070534471     -0.16527657789022     -1.03214511907738
  O   -1.07702497954758     -0.95615106377737     -1.84168014945482
  O   -2.56719637269790      0.51563206983281     -1.19710734519242
