16
Coordinates from ORCA-job run
  C   0.67035909808146      0.21676129971235     -0.37229984149543
  C   -0.56624493402363     -0.71479916024221     -0.20992762181967
  Cl  1.53632526457363     -0.40057206125109     -1.82458850628621
  H   -0.19984359282266     -1.74072854912831     -0.16590206661397
  C   0.23888974080360      1.58183274430229     -0.66376940392687
  N   -0.11814805959483      2.67668478997881     -0.89892309466097
  C   1.61335177883460      0.17553821223280      0.82196654663910
  H   1.87472068082331     -0.85839589905210      1.05289467076475
  H   1.13677083582534      0.62660946819951      1.69430419386987
  H   2.52262571886996      0.73217558187529      0.59393927198636
  N   -1.61718780010984     -0.60121420755936     -1.16067534015512
  H   -1.34804419838607     -0.99367445433874     -2.05177668503580
  H   -1.92063553652106      0.35849747923496     -1.27418721718259
  N   -1.14283616475406     -0.43216051042671      1.15163714768374
  O   -1.82107487530416      0.58666931781750      1.25014742640054
  O   -0.86102795629575     -1.21322405135503      2.05616051983221
