16
Coordinates from ORCA-job run
  C   0.43215180329191      0.70302705586594      0.23090379774092
  C   -0.87101944690076     -0.13449733212828      0.40687889436993
  Cl  -0.01275745524888      2.43291935052364      0.08033615637166
  H   -1.45816803554064      0.32210029243892      1.20428129576534
  C   1.17004935386541      0.52886981003286      1.48369279188999
  N   1.74551983655970      0.33239045589223      2.48973484984252
  C   1.31234771166139      0.31050412534254     -0.94974395178473
  H   0.79301167610515      0.48983897564178     -1.88910408981125
  H   2.22533374699208      0.90632634829673     -0.92657561148829
  H   1.58673037853233     -0.74431328479434     -0.88711051095772
  N   -0.70336575757498     -1.52868007118589      0.65491138724024
  H   -0.33740097225368     -1.70644763406359      1.57969618614644
  H   -0.14615936654374     -1.98514734435223     -0.05325166858196
  N   -1.70925415974475     -0.00135460568334     -0.83499591368160
  O   -2.67938060338601      0.74623827009156     -0.78979901930488
  O   -1.34763870981453     -0.67077441191852     -1.80085459375662
