16
Coordinates from ORCA-job run
  C   0.72325544035097      0.30468928819052     -0.37875377579488
  C   -0.38725654861939     -0.76670204931335     -0.31229771668157
  Cl  1.84586047589432     -0.21362082891472     -1.67767146900760
  H   0.08285496710992     -1.74744406844231     -0.23430009099973
  C   0.15217570873256      1.59504992250849     -0.76461534040599
  N   -0.31097275861878      2.63529105384019     -1.05477573013990
  C   1.50669164185100      0.43517046692054      0.92254877901995
  H   2.35192027186526      1.10594877463291      0.76917207265869
  H   1.87819090615258     -0.54252372673971      1.23263231485257
  H   0.87383080211722      0.84680946328007      1.71056991082222
  N   -1.25980852250660     -0.69721818392405     -1.41761447622197
  H   -1.85916426582503     -1.50848823004981     -1.47958655219395
  H   -1.81927356096042      0.14705460552734     -1.40120995830882
  N   -1.09150894431135     -0.58203408042910      1.03648773161464
  O   -0.77419823391904     -1.34512257621624      1.94501745347622
  O   -1.91159737931323      0.33114016912923      1.10339684731012
