16
Coordinates from ORCA-job run
  C   0.48814685274971      0.59741663972023     -0.05269197788189
  C   -0.56414170009188     -0.50891092553189      0.16662330039080
  Cl  0.23445811310506      1.33711955193284     -1.67125213275230
  H   -0.43717801909989     -0.89078749058923      1.18262832940984
  C   0.37330219745167      1.65693222216701      0.94959214861423
  N   0.38276172688952      2.50693517255957      1.76093346995312
  C   1.89044378520241     -0.00097027371476      0.00280905135168
  H   2.05201511191617     -0.45778658620138      0.98261044622154
  H   1.99092443914954     -0.76218926176491     -0.76791766120914
  H   2.63015091698009      0.78568760396489     -0.14754800459124
  N   -0.43408518049794     -1.54468962426917     -0.78527494148193
  H   -0.99644583937021     -2.34471181063651     -0.52765868291533
  H   -0.72498487010897     -1.22538233026375     -1.70120248545197
  N   -1.96100993227668      0.13121073841081      0.19250253748309
  O   -2.64961477100530      0.01500471657327     -0.81620345029988
  O   -2.27474283099326      0.70512165764299      1.23105005315937
