16
Coordinates from ORCA-job run
  C   0.67867039905079      0.25921140030000     -0.32692817544248
  C   -0.51917765877320     -0.73254407454895     -0.26298596557685
  Cl  1.65163000484675     -0.26935903263713     -1.74629235128913
  H   -0.10767860100915     -1.74156795449172     -0.22731229888697
  C   0.20021707949401      1.61250387161420     -0.59980429764464
  N   -0.19392167180572      2.69791863523177     -0.81848985843205
  C   1.55540138376233      0.22179161616943      0.91698093247562
  H   1.01089597782345      0.62343117871901      1.77368743206882
  H   1.85134577540124     -0.80618407659183      1.13241582678568
  H   2.44907478213951      0.82550959734937      0.75722140361614
  N   -1.51923944244602     -0.63757005445837     -1.26900571362721
  H   -1.86002693112480      0.31047200261112     -1.37386577359501
  H   -1.18324560007002     -0.99218836957877     -2.15314838972402
  N   -1.18386251737570     -0.51959758737593      1.07091548979962
  O   -0.91491671679870     -1.31399354071846      1.96773684079502
  O   -1.91616626311476      0.46216638840628      1.15887489867748
