16
Coordinates from ORCA-job run
  C   0.45120504134785      0.78236770449833      0.13118601488769
  C   -0.84977925858952     -0.04988178146580      0.24139306147498
  Cl  0.07642985354292      2.48291076923812     -0.29520090696129
  H   -1.62534710477213      0.57678778182864      0.70611963186169
  C   1.00902032795061      0.81519895193509      1.48708062579199
  N   1.44020069670446      0.81529972334137      2.58032079110264
  C   1.47342029972305      0.19491039266239     -0.83409503597132
  H   2.41879344517229      0.72890512113361     -0.73553878249795
  H   1.62246397299989     -0.85745770047330     -0.58616431138640
  H   1.11816638480808      0.29424533996091     -1.85798456288054
  N   -0.56018307798530     -1.29672062663520      0.89746531974458
  H   -0.47715016755081     -1.15555400410583      1.89631412084047
  H   -1.31018224764251     -1.95312788100445      0.71842973166754
  N   -1.43002333408060     -0.38331745577652     -1.12342296241694
  O   -2.10065184962976     -1.40943870371968     -1.19009940563471
  O   -1.25638298199850      0.41487236858231     -2.03480332962243
