16
Coordinates from ORCA-job run
  C   0.69290648588696      0.22866157252349     -0.32023811072407
  C   -0.49144007671707     -0.77302599733995     -0.19136804286689
  Cl  1.75537936810352     -0.46119467549444     -1.59954816033715
  H   -0.06751494065623     -1.75891604512439      0.00100285183241
  C   0.21028885569352      1.52211706032553     -0.79846688503435
  N   -0.18921466107649      2.55845904048069     -1.18286107372473
  C   1.49591718161053      0.37603681324827      0.96454096292049
  H   2.38800986103035      0.97384628467222      0.77611899306769
  H   1.79477134326515     -0.60763562273590      1.33059036634072
  H   0.89623736145313      0.87423445113086      1.72873060331034
  N   -1.43323647931910     -0.83462316557781     -1.25522362946659
  H   -1.78624464240469      0.08346304829742     -1.49780477371329
  H   -1.03614021046591     -1.28576289608654     -2.06769625462707
  N   -1.23584023296697     -0.40091878734733      1.06277829514236
  O   -1.98434709760091      0.56894983351777      0.97888803661158
  O   -1.00953211583578     -1.06469091448990      2.07055682126856
