16
Coordinates from ORCA-job run
  C   0.44871953434845      0.58187472441889     -0.07152757980666
  C   -0.66088224834393     -0.48150092054840      0.18131877434308
  Cl  0.24299531915187      1.29764923410733     -1.70287982894465
  H   -0.50415495628157     -0.86887637352469      1.19030990072618
  C   0.38172166433746      1.65802201959610      0.91492747943924
  N   0.33791314827074      2.49925329192291      1.73473674150487
  C   1.81880613279631     -0.08659520275674     -0.00672149064986
  H   2.60071510922422      0.65611609947300     -0.16573530105482
  H   1.89866775249865     -0.84590912115230     -0.78484019112258
  H   1.96289229877777     -0.54611514346551      0.97484420916940
  N   -0.75506447624125     -1.55269709092051     -0.74334161381203
  H   -0.05499714293041     -2.26145708616006     -0.58626371705957
  H   -0.76156345709932     -1.24105063105541     -1.70460201981340
  N   -1.99839029144642      0.21982973097855      0.24073112234468
  O   -2.32825282500622      0.67029562488551      1.33518607489603
  O   -2.62812556205633      0.30116084420133     -0.80714256015989
