16
Coordinates from ORCA-job run
  C   0.35000312901596      0.81554357473268      0.12726258428807
  C   -0.88369145004460     -0.11387206242587      0.19910601195017
  Cl  -0.06223219600529      2.25327167630275     -0.86179424753412
  H   -1.71189545111742      0.43134147391031      0.65266436007446
  C   0.59558636675343      1.26875813588272      1.49781408602844
  N   0.80900763636031      1.63396281068024      2.59376017398363
  C   1.60689365681976      0.16378574474639     -0.43667181585100
  H   1.90014950025841     -0.67975773053407      0.19057461584028
  H   2.41695492928489      0.89332978344576     -0.43071197025458
  H   1.43702971624830     -0.17334018674707     -1.45760412018991
  N   -0.56868439722049     -1.28425291374952      0.93783715940990
  H   -0.02370241595749     -1.92969893357640      0.37980904112105
  H   -1.40275157307259     -1.74903830728237      1.27113087575692
  N   -1.36923369397006     -0.42345632674857     -1.21486067431844
  O   -0.70694694373821     -1.24438730164870     -1.84914286690106
  O   -2.38848681361491      0.13881056301172     -1.60017321340381
