16
Coordinates from ORCA-job run
  C   0.37366837556081      0.77068836235368      0.00130629844387
  C   -0.96580063835950     -0.02068087515846      0.10095395737629
  Cl  0.13192107363995      2.17376245809572     -1.08821051546444
  H   -1.75887053281354      0.69011205341366      0.33514642153049
  C   0.61970684947862      1.27891269467790      1.35251154660575
  N   0.80078505979661      1.63632050734252      2.45759475477009
  C   1.57794020104753     -0.03067023817651     -0.47879477590016
  H   1.73860522466135     -0.89894550409307      0.16317756754023
  H   2.46597500053022      0.60054914586960     -0.43364641822820
  H   1.43025605188102     -0.36568302728881     -1.50352600271044
  N   -0.99413087832090     -1.11079030846181      1.01966294063513
  H   -0.99036721777606     -0.79640059252510      1.97984876667961
  H   -0.25789245122589     -1.78163024033916      0.85053930147985
  N   -1.30934365162110     -0.57270584285971     -1.25530096470404
  O   -0.68261304894768     -1.57221632501548     -1.60221001664541
  O   -2.17983941753146      0.00037773216500     -1.90005286140861
