16
Coordinates from ORCA-job run
  C   0.40969619559577      0.75089632693032      0.26525290779125
  C   -0.82214295065251     -0.17942353815930      0.35347443304056
  Cl  -0.14077200571475      2.40130399332147     -0.16921165811479
  H   -1.49854149323088      0.20129938467972      1.11935283279894
  C   0.97287407428099      0.80609959350895      1.61580278917725
  N   1.44219324010355      0.85391885233338      2.69163271723551
  C   1.47949634985890      0.30374607867314     -0.72394683521114
  H   2.30810694430299      1.01157386308293     -0.69179797544992
  H   1.07540480583359      0.27128851712237     -1.73428658041185
  H   1.85746299697210     -0.68056898425718     -0.44166761123593
  N   -0.41013209285098     -1.50662276014405      0.64388233143657
  H   -0.03542063402855     -1.95937753317465     -0.18051389542116
  H   -1.17181114029119     -2.05936768179753      1.01410017935403
  N   -1.62607995552915     -0.08285226749544     -0.93962210586506
  O   -2.68666962571527      0.53128376817548     -0.90374472316249
  O   -1.15466470893460     -0.66419761279960     -1.91670680596178
