16
Coordinates from ORCA-job run
  C   0.36557362650345      0.68957848873733      0.35296957190362
  C   -0.82628898492009     -0.31409573695747      0.40083863038591
  Cl  -0.27337622132770      2.35060517797286      0.57155055221099
  H   -1.41347163636042     -0.09535216853433      1.29328946818954
  C   1.18855832165913      0.36093044789137      1.51871628773015
  N   1.83771506746695      0.04151237250276      2.44502559076936
  C   1.21328447586672      0.64534772245015     -0.91253902025758
  H   0.62409193157131      0.94458331233149     -1.77723230930098
  H   1.60365971812431     -0.36106195237928     -1.07580421441363
  H   2.05594698842932      1.32833405802833     -0.80063480680023
  N   -0.49310600895761     -1.70004657110675      0.35789035382394
  H   -0.05942350726001     -2.01099636395952      1.21590451298118
  H   0.07133931531477     -1.93956198989216     -0.44516196832630
  N   -1.74311642561883     -0.04079047248888     -0.75985958862097
  O   -2.78508735229867      0.56351083780097     -0.53285513754002
  O   -1.36629930819265     -0.46149716239686     -1.85209792273497
