16
Coordinates from ORCA-job run
  C   0.39691979702363      0.72022898481358      0.24117286831995
  C   -0.88913527133335     -0.15304108107567      0.35811067649180
  Cl  -0.08912890833255      2.43267616572013      0.02936727026152
  H   -1.53622021440141      0.30140548567052      1.10900461743589
  C   1.06476714444015      0.59238313666874      1.53811816382730
  N   1.58457379055685      0.43403329624474      2.58030014429821
  C   1.35600256102460      0.33283834748639     -0.87814708237157
  H   2.24748289572344      0.95758068896918     -0.81475238236517
  H   0.88734443410365      0.47731813179116     -1.84962646607159
  H   1.65827940038942     -0.71136831816443     -0.77720513511934
  N   -0.69569918512208     -1.53610328568147      0.64617160487556
  H   -0.38263514936320     -1.68456219548926      1.59530302624453
  H   -0.08306533635214     -1.98951826589772     -0.01719090966617
  N   -1.65518520639686     -0.07110531548135     -0.93409556017436
  O   -1.21783043094449     -0.75037828922552     -1.86090336388689
  O   -2.64747032101566      0.64761251365099     -0.96362747209968
