16
Coordinates from ORCA-job run
  C   0.43441791579826      0.58592454192926     -0.08274764724747
  C   -0.65764178424034     -0.48884506431298      0.19336896445288
  Cl  0.21119857393459      1.26512704627439     -1.72737563611984
  H   -0.49757902022110     -0.84916923011261      1.21188592694805
  C   0.35621688511889      1.68146499061530      0.88198674098644
  N   0.36325554036482      2.55033212987581      1.67357719627342
  C   1.81532076506065     -0.05824653840312     -0.00823054860325
  H   2.58437376491504      0.69380541586971     -0.18481322176664
  H   1.96944403950518     -0.49470507957407      0.98227379218084
  H   1.90489361586964     -0.83232499236234     -0.77058866083608
  N   -0.73380461465405     -1.58317218089500     -0.70489241594173
  H   -0.02621871293362     -2.27941247150173     -0.52733764912376
  H   -0.74153351154275     -1.29637941353514     -1.67375660022309
  N   -2.00520186851726      0.19554999669788      0.23448281028213
  O   -2.33012413419300      0.68928916930079      1.31182105962158
  O   -2.64701745426495      0.22276168013384     -0.80865411088347
