17

C	0.0	0.0	0.0
C	-0.497313	0.018827	-1.449789
Br	1.980132	0.0	0.0
H	-0.114417	-0.86901	-1.966013
H	-1.58816	-0.063687	-1.312699
C	-0.501357	1.211499	0.761456
H	-0.145059	2.146778	0.322014
H	-1.598417	1.116564	0.684144
H	-0.17921	1.176713	1.806265
C	-0.496165	-1.26976	0.665903
H	-0.164479	-2.158806	0.120422
H	-1.592951	-1.16413	0.623969
H	-0.145773	-1.340003	1.70005
N	-0.191547	1.200342	-2.250575
H	-0.759128	1.968072	-1.914022
H	0.78044	1.456489	-2.111936
F	-3.02359	0.0	0.0
