18
Coordinates from ORCA-job run
  C   0.78389869137929     -0.00826817180659     -0.44091182489353
  C   -0.75052355676620      0.05035128294894     -0.49015505725516
  Cl  1.39678883767425     -0.62416225088129     -1.98935910849799
  H   -1.02850747277425      0.57154624916235     -1.40519833279892
  C   1.40627058404955     -0.78076217562685      0.69502671150492
  H   1.06216332137427     -0.40718382624591      1.65817803940760
  H   2.48947927846591     -0.67685559640711      0.65055333129674
  H   1.14225279591621     -1.83233514120675      0.60395104257736
  N   1.19850412677825      1.47099303284379     -0.36283953945348
  O   1.87813115288197      1.81625543128716      0.59738300799824
  O   0.77793355598923      2.20125717330346     -1.25171499923723
  C   -1.38052209573236      0.69149111478698      0.73264627370202
  H   -2.46599968027534      0.69647055650532      0.61530273501693
  H   -1.05295608989608      1.72750710394729      0.83183276605181
  H   -1.13736789806221      0.14285640069890      1.64096801511638
  N   -1.29728754045510     -1.33715796603596     -0.65572219529177
  O   -1.76205513824240     -1.62362575260677     -1.75602431611073
  O   -1.26120287230497     -2.07737746466696      0.32608345086682
