18
Coordinates from ORCA-job run
  C   0.77789718871829      0.15232817222681     -0.34944590116196
  C   -0.73435157882337     -0.12393327563802     -0.41937216577581
  Cl  1.22170812461091      1.02219388244414     -1.83437707583219
  H   -0.89069934413638     -0.69514414544152     -1.33610276132850
  C   1.59865131044413     -1.11341795431353     -0.24474032214082
  H   2.66029144649917     -0.87106350525781     -0.27851534121642
  H   1.35464351514044     -1.76513239379239     -1.08503238585756
  H   1.39533127871943     -1.63375574764006      0.68986891810644
  N   1.09714624138131      1.08203353012088      0.82730281631380
  O   1.72032725286625      0.59334380820244      1.76306245406351
  O   0.68665162915629      2.23259903234330      0.75147254178652
  C   -1.68188453989165      1.05761167721560     -0.34900267565509
  H   -2.69798994918265      0.69751359850902     -0.52576690649797
  H   -1.43132242368285      1.78862259274852     -1.11648476728249
  H   -1.63984083993816      1.54016425379838      0.62444659505585
  N   -1.06844939083532     -1.08438557072582      0.68551328894754
  O   -1.01216398658751     -0.64264959410034      1.83140336795695
  O   -1.35494593445833     -2.23592836069961      0.36577032051818
