18
Coordinates from ORCA-job run
  C   0.71459601794992      0.28106135096331     -0.03908305773189
  C   -0.75178349729621     -0.06261951409778      0.24118928144382
  Cl  0.82713266611408      1.69559973050282     -1.08360033265414
  H   -0.75877520982935     -0.73124061279311      1.10557878398438
  C   1.48300715301786     -0.87731165705271     -0.65147362477384
  H   1.36664807362298     -1.77062600347556     -0.03607904696345
  H   2.54104568260178     -0.61396962389594     -0.70446867034381
  H   1.12822898609301     -1.07246152689895     -1.66217740947773
  N   1.41759074459692      0.56753553374146      1.30524098421749
  O   2.05955660162100      1.59323871819004      1.44222923255940
  O   1.30811579121996     -0.34552953508786      2.11624878031331
  C   -1.48333251424652     -0.67009483417533     -0.93475715658412
  H   -1.06592794882869     -1.65166624084594     -1.16156048550547
  H   -1.41964549561349     -0.03284293640923     -1.81648712258413
  H   -2.53583629319962     -0.79850273670187     -0.68568698298824
  N   -1.44684224586260      1.18761051435231      0.72809779883156
  O   -0.96016277348144      1.70793858705313      1.72838660354488
  O   -2.42361573847960      1.59388078663121      0.10840242471199
