18
Coordinates from ORCA-job run
  C   0.69491497282689      0.35781087600057      0.05679379770733
  C   -0.69523580732101     -0.26939565669902      0.12968877076553
  Cl  0.63015282412368      2.10587138102105     -0.15643809997478
  H   -0.56275164471505     -1.34348338865649      0.26883305011457
  C   1.52707399879634     -0.25059330712146     -1.06181266618381
  H   2.53599823892347      0.16301688914856     -1.01705570802900
  H   1.57699129673716     -1.33555339061211     -0.94304037583632
  H   1.09809416521098     -0.00483604493488     -2.03218610908585
  N   1.46994810166299      0.01429147221097      1.34070261434302
  O   1.27954610150617     -1.12306113174412      1.75998476337782
  O   2.27776649822405      0.82061831361605      1.76681905862522
  C   -1.57469475315640     -0.00494517984763     -1.07688190801634
  H   -2.55441289789401     -0.44578423349977     -0.89937766035062
  H   -1.14756578231997     -0.47373324888154     -1.96417205879637
  H   -1.68909052420960      1.06369169067208     -1.25739424713740
  N   -1.43458154625194      0.15183933278940      1.38574137144190
  O   -0.88530930779366      0.92025328437350      2.16819399083641
  O   -2.54584393435012     -0.34600765783515      1.53160141619867
