18
Coordinates from ORCA-job run
  C   0.80123875655328      0.01050862493464     -0.40636283958977
  C   -0.73038281286422      0.01331986519693     -0.52119355058108
  Cl  1.49988458235681     -0.62245992151237     -1.91132877171734
  H   -0.98732117380711      0.50803765931211     -1.45680293000939
  C   1.40163730066261     -0.70938744859709      0.77495825667227
  H   2.48172490071205     -0.57015109595454      0.77136251365022
  H   1.17572585119077     -1.77128700706643      0.70341218147502
  H   1.00589509673398     -0.32137170522232      1.71231006786219
  N   1.16261367038780      1.50533520421169     -0.35165223920890
  O   0.74971919660355      2.19846515991409     -1.27326582065713
  O   1.79754753164188      1.89716587608425      0.62113781282743
  C   -1.43401620381857      0.65128353317622      0.66250631366319
  H   -2.51238608585258      0.62718326267211      0.49330812103735
  H   -1.13774941465892      1.69624519128165      0.76629698296727
  H   -1.22038994987619      0.11751190780455      1.58699417896844
  N   -1.22170281049816     -1.39535224161445     -0.68444129246272
  O   -1.63689049856317     -1.71329533386269     -1.79585335553601
  O   -1.19414793690382     -2.12075153075835      0.30861437063898
