14

C	0.0	0.0	0.0
C	-0.554511	0.389039	-1.350092
F	1.362764	0.0	0.0
H	-1.658525	0.288901	-1.231946
H	-0.38773	-0.97197	0.304303
N	-0.354887	0.955649	1.116651
O	-0.856556	0.47303	2.128889
O	0.018237	2.119212	0.968573
N	0.016888	-0.538597	-2.351981
H	-0.701118	-0.776748	-3.02562
H	0.33375	-1.401223	-1.91958
C	-0.278465	1.779022	-1.773077
N	-0.205312	2.868922	-2.228446
Br	-3.668033	0.0	0.0
