14

C	0.0	0.0	0.0
C	-0.37273	0.014683	-1.526755
F	1.357922	0.0	0.0
H	0.302147	-0.780006	-1.894744
H	-0.40801	-0.778665	0.59824
N	-0.190968	1.449917	0.776161
O	-1.038415	1.702369	1.605499
O	0.773078	2.189469	0.524796
N	-0.025523	1.322983	-2.070073
H	-0.331363	1.361811	-3.036603
H	0.972139	1.482932	-2.076669
C	-1.660175	-0.395289	-2.15876
N	-2.305618	-0.852017	-3.046885
Br	-3.101552	0.0	0.0
