14

C	0.0	0.0	0.0
C	-0.573038	0.094869	-1.412163
F	1.35219	0.0	0.0
H	-1.452948	0.745843	-1.3651
H	-0.388913	-0.861163	0.537099
N	-0.345022	1.221303	0.817336
O	-0.401768	2.294371	0.222974
O	-0.417856	1.058513	2.031372
N	-0.923164	-1.268524	-1.832695
H	-1.08674	-1.259277	-2.83428
H	-1.835176	-1.42328	-1.395313
C	0.401142	0.684942	-2.334784
N	1.139317	1.144117	-3.124052
Br	-3.526308	0.0	0.0
