14

C	0.0	0.0	0.0
C	-0.567669	0.119725	-1.412217
F	1.358235	0.0	0.0
H	-1.452403	0.763964	-1.353514
H	-0.389692	-0.868903	0.523201
N	-0.339808	1.209304	0.8371
O	-0.396185	2.291294	0.259623
O	-0.409507	1.028059	2.048564
N	-0.908636	-1.238342	-1.858446
H	-1.81711	-1.407739	-1.419867
H	-1.079803	-1.209872	-2.857743
C	0.407203	0.731291	-2.318438
N	1.15086	1.209795	-3.090899
Br	-3.513284	0.0	0.0
