14

C	0.0	0.0	0.0
C	-0.370325	-0.361132	-1.488814
F	1.355719	0.0	0.0
H	0.57963	-0.166688	-1.998833
H	-0.402732	-0.649806	0.773865
N	-0.366143	1.410521	0.360986
O	-0.775051	1.622449	1.496462
O	-0.106994	2.263914	-0.487982
N	-1.399262	0.305018	-2.247707
H	-2.29304	0.181718	-1.763127
H	-1.186576	1.295275	-2.227627
C	-0.555723	-1.819202	-1.527417
N	-0.627551	-2.990314	-1.549125
Br	-3.651396	0.0	0.0
