11

C	0.0	0.0	0.0
C	-0.466222	-0.369709	-1.387558
F	1.394933	0.0	0.0
H	-1.551243	-0.275784	-1.432006
H	-0.275977	1.03839	0.228833
H	-0.172366	-1.402357	-1.5884
H	-0.001448	0.289656	-2.123138
N	-0.48311	-0.944082	0.961884
H	-0.404834	-0.546929	1.890856
H	-1.482042	-1.05311	0.783885
Cl	-3.716891	0.0	0.0
