11

C	0.0	0.0	0.0
C	-0.463164	-0.190811	-1.423685
F	1.394797	0.0	0.0
H	-0.156918	-1.185929	-1.757126
H	-0.27914	0.999525	0.358548
H	-1.548958	-0.103195	-1.462211
H	-0.002459	0.560953	-2.068032
N	-0.486069	-1.060816	0.830849
H	-1.488935	-1.125667	0.653238
H	-0.391121	-0.791812	1.80284
Cl	-3.719993	0.0	0.0
