19

C	0.0	0.0	0.0
C	-0.442293	0.014202	-1.517496
Br	1.97929	0.0	0.0
H	0.481548	0.02656	-2.101598
C	-0.537548	1.130021	0.865174
H	-0.175089	1.0198	1.889495
H	-1.634106	1.025952	0.8375
H	-0.227743	2.099604	0.476688
C	-0.31697	-1.273845	0.653856
N	-0.499657	-2.290099	1.217572
C	-1.249257	1.257775	-1.885003
H	-1.445701	1.228758	-2.962295
H	-2.207326	1.234648	-1.350651
H	-0.70387	2.18398	-1.678516
C	-1.221017	-1.241999	-1.908146
H	-0.639921	-2.148927	-1.717663
H	-1.435774	-1.196932	-2.982254
H	-2.163892	-1.266478	-1.353017
H	-3.457435	0.0	0.0
