15
Coordinates from ORCA-job run
  C   -0.63031294453986     -0.67058901577580     -0.61879771744992
  C   0.45249132262290      0.35481051546866     -0.22187510777776
  F   -1.38861213193317     -0.15877986816629     -1.65662786073080
  H   0.98698036781585      0.57499115371846     -1.15769530868366
  C   0.01469114966031     -1.91074374937127     -1.08282846651995
  N   0.58324977214840     -2.86157050023790     -1.47240360976963
  C   -1.51681541364240     -0.95960479651587      0.51909492392184
  N   -2.25022480648039     -1.14423853413958      1.41712494894142
  N   1.27377766873718     -0.28598721672318      0.78805836352526
  H   1.62763270490426      0.38401609414518      1.45652776740851
  H   2.05381672755965     -0.78628978419425      0.38277344129921
  C   -0.18721980324293      1.62559900336110      0.30981627035250
  H   -0.65961469839165      1.43730276779864      1.27701673333886
  H   -0.93865396547163      2.00756869715717     -0.38180327875979
  H   0.57881405025351      2.39351523347492      0.43961890090394
