15
Coordinates from ORCA-job run
  C   -0.65754707704171     -0.65834139735825     -0.61815029187000
  C   0.47465538271800      0.31727145135256     -0.23210362399208
  F   -1.49226473418161     -0.06653237002906     -1.54950547160605
  H   1.04745508188755      0.46740602104697     -1.15369938692587
  C   -0.09232031824763     -1.88068668933308     -1.21046404822432
  N   0.36038873871491     -2.82507881528078     -1.74124241700683
  C   -1.44993082952432     -0.99387500126783      0.57778981460767
  N   -2.06281457730283     -1.20053931857323      1.55790590943403
  N   1.29907105188949     -0.39279306680794      0.72883439925933
  H   1.05109644119693     -0.14882396427003      1.67928236755242
  H   2.28304270986391     -0.21411015902624      0.59059865321843
  C   -0.09012800249497      1.64766086039819      0.24710233150357
  H   0.73326662983804      2.33608956597559      0.44839176445023
  H   -0.74677389066797      2.09961843666321     -0.49774998095844
  H   -0.65719660664778      1.51373444650992      1.17300998055790
