15
Coordinates from ORCA-job run
  C   -0.25786328913182     -1.01092981292221     -0.38396450006044
  C   0.61620122753574      0.21334638583489     -0.07460017183070
  F   0.57080849390610     -2.12064075829435     -0.46459225914069
  H   1.29993669921874      0.29583445148086     -0.93498207192859
  C   -1.24622853661770     -1.23872803736044      0.68212289548236
  N   -2.06493252743090     -1.39870609820688      1.50823252296054
  C   -0.94256665421805     -0.85711391739324     -1.67872281071511
  N   -1.46326230263272     -0.69621612724831     -2.71898473923980
  N   1.27894077848906     -0.06879626580762      1.18455450772133
  H   2.00409307685183     -0.76407547359266      1.06402116697125
  H   1.69958270375524      0.77245553809468      1.55750922134721
  C   -0.22329213496570      1.47473067241254      0.03912616539451
  H   -0.79383745859379      1.66567560534535     -0.87148102947872
  H   0.43114036072910      2.33359414446511      0.20595353290667
  H   -0.90872043689515      1.39756969319227      0.88580756961019
