15
Coordinates from ORCA-job run
  C   -0.67251855176110     -0.81424318140872     -0.05762823718116
  C   0.51339382252361      0.16833815726967     -0.05153166935773
  F   -1.43781714163456     -0.57745322548247      1.07407733572977
  H   1.12255891955179     -0.08272345043449     -0.92711870669485
  C   -1.52699787575514     -0.62318115376399     -1.24239463268169
  N   -2.18067803235808     -0.44218788025030     -2.20093698606639
  C   -0.19245377858898     -2.20466561590398     -0.01889418900797
  N   0.20441024863678     -3.30929810581741     -0.02704309077404
  N   1.28624180491977     -0.14528436009475      1.13769665464856
  H   2.23757275117624      0.18304174655894      1.04143123244669
  H   0.87602278264105      0.29544125332554      1.95172092216981
  C   0.02616285375379      1.61218170402611     -0.15692963444564
  H   0.88701918696662      2.28224217225770     -0.11208727694460
  H   -0.50713118699978      1.80568631786628     -1.09033655174105
  H   -0.63678580307201      1.85010562185186      0.67797482990028
