15
Coordinates from ORCA-job run
  C   -0.59895331950242     -0.64762214614816     -0.59945600830542
  C   0.48507365614545      0.41170468007250     -0.24932815424150
  F   -1.42634299553077     -0.16209255780263     -1.59387210616031
  H   1.01102283337716      0.58925581770400     -1.19457970163070
  C   0.05145926084730     -1.87523330064354     -1.08675912275052
  N   0.63339020874448     -2.81924874674215     -1.47401952428033
  C   -1.40618521659983     -0.95417787414125      0.59277740335308
  N   -2.01281827654672     -1.15051506413669      1.57921625190766
  N   1.44050135631682     -0.05501060498032      0.72475216001928
  H   1.95131814488369     -0.87325118670320      0.41949967195854
  H   1.01113107443749     -0.23399849539306      1.62403778627460
  C   -0.17034220762960      1.69970845113222      0.22109234262723
  H   -0.90841315791684      2.05769522359390     -0.49706092654427
  H   0.60386796643533      2.45691676805946      0.34529443437361
  H   -0.66370932746155      1.55586903612892      1.18640549339904
