15
Coordinates from ORCA-job run
  C   -0.69796069848735     -0.79600499689096     -0.08774334483625
  C   0.46458511441242      0.22419941199865     -0.03043020437794
  F   -1.61306470984256     -0.52074436795856      0.90266718140598
  H   1.06283462847033      0.04933271044890     -0.93740481355336
  C   -1.38186030850376     -0.72389328747528     -1.39208350576458
  N   -1.89783639247889     -0.62324267582947     -2.44213627347540
  C   -0.17176135230078     -2.15710159455859      0.11223652093394
  N   0.28305580696262     -3.23327621896320      0.22957575207379
  N   1.19390083311249     -0.02878514850362      1.19794627085162
  H   1.53441970194096      0.82958054460944      1.60733380127346
  H   1.97440178829762     -0.65494194069860      1.05346509389661
  C   -0.08973515483543      1.64081831193626     -0.05249042157978
  H   0.73618385472625      2.35319731907257     -0.10918772234805
  H   -0.65620008825171      1.82979167930310      0.86056982333859
  H   -0.73996302322222      1.81007025350935     -0.91231815783864
