15
Coordinates from ORCA-job run
  C   -0.74473693385247     -0.74834752703642     -0.02702643673107
  C   0.52915914343143      0.11641074986317     -0.04613496996401
  F   -1.51191072304474     -0.36728763347511      1.06293323258496
  H   1.13225637014599     -0.24697838645497     -0.88580284905058
  C   -1.54639310804587     -0.55665456089131     -1.24792611983038
  N   -2.15569221879521     -0.37780492279636     -2.23580497362093
  C   -0.40031175552418     -2.17218123936404      0.11353432556385
  N   -0.13370201471334     -3.31362289453477      0.17608996050488
  N   1.23976272131903     -0.19372477302113      1.18270951537474
  H   2.21831686660818      0.04730970868625      1.09812272229916
  H   0.84803180500218      0.32815773698360      1.95714138939961
  C   0.18727372813934      1.59034491883773     -0.25398715205537
  H   1.10826106656966      2.17625062789464     -0.22690744870118
  H   -0.46703034158564      1.94399977353453      0.54607407758323
  H   -0.30428460565436      1.77412842177419     -1.21201527335689
