15
Coordinates from ORCA-job run
  C   -0.68399026902108     -0.80031789110730     -0.06959046904848
  C   0.52378565352887      0.15181315618053      0.00605501698168
  F   -1.59229488757217     -0.42704911626249      0.90978860404190
  H   1.24164176003828     -0.20491412111204     -0.74099509823868
  C   -1.35605354533151     -0.72005519748369     -1.37804943017641
  N   -1.86520182515671     -0.62861165383216     -2.43225178779627
  C   -0.26603772868168     -2.18871834090985      0.18184503894706
  N   0.06195212215834     -3.30528055061372      0.33646052552873
  N   1.10802322683323     -0.04980692679282      1.32076732221728
  H   2.07268592498698      0.25284449690934      1.33189632512002
  H   0.59882280099963      0.47942445329867      2.01778582023456
  C   0.11012807965065      1.58605703407484     -0.31716511378898
  H   -0.65758473393417      1.92550206687028      0.38172873799738
  H   0.97919729029327      2.23894980407542     -0.21436219466949
  H   -0.27507386879193      1.69016278670499     -1.33391329735029
