15
Coordinates from ORCA-job run
  C   -0.23838039106310     -0.99354454182606     -0.35771863819424
  C   0.66635594933342      0.25024065267713     -0.14745676228472
  F   0.58303030531171     -2.10823318498414     -0.43845529214656
  H   1.31350986387608      0.26658973631198     -1.03272918261406
  C   -1.13902206234756     -1.16311692658374      0.79266750859046
  N   -1.84068450303006     -1.23121177438508      1.73219374205349
  C   -1.01341649656666     -0.89834652307838     -1.60259816403162
  N   -1.61162541677181     -0.77169276893922     -2.60575282881752
  N   1.50522829656175      0.12582229255091      1.01964824615340
  H   2.02275900000255     -0.74373312186465      1.01604369915977
  H   0.96367343776270      0.18670505441107      1.87410090238460
  C   -0.15625844578172      1.52560682389283     -0.08088451594590
  H   0.52419760596769      2.36969436974589      0.03395656078486
  H   -0.75229855924398      1.67586906081337     -0.98254966329337
  H   -0.82906858401100      1.51135085125808      0.78153438820142
