15
Coordinates from ORCA-job run
  C   -0.77405902236865     -0.72847328932848     -0.06115144452379
  C   0.48316702692319      0.17452019786850     -0.03339412241825
  F   -1.66741855505164     -0.31905845036605      0.90208893090662
  H   1.07227068439405     -0.10405092008582     -0.92030290202766
  C   -1.43406477806942     -0.65058592345261     -1.37729340567317
  N   -1.92741932995224     -0.54775211595384     -2.43800275121113
  C   -0.38397988076378     -2.12286883650854      0.20869501823358
  N   -0.01395692886790     -3.22074242595220      0.39938304063499
  N   1.16783921568654     -0.08533371874851      1.21857789635770
  H   1.88045887509487     -0.79585599746184      1.12114692719884
  H   1.59086318021052      0.75416952595463      1.58815226575759
  C   0.07187547790472      1.63574822074841     -0.13581604298578
  H   -0.54320517155026      1.82406444740178     -1.01738166534106
  H   -0.48868279128091      1.92549948843039      0.75428550883669
  H   0.96531199769091      2.25971979745417     -0.20898725374520
