15
Coordinates from ORCA-job run
  C   -0.67341598840436     -0.80964676732516     -0.06665645777908
  C   0.51457727424975      0.16987595747939     -0.05812066610989
  F   -1.41490356849410     -0.60188825141104      1.08677196265677
  H   1.10416050750622     -0.05677335981098     -0.95356318288564
  C   -1.55115681058413     -0.58504351807790     -1.22809151084181
  N   -2.22289273316824     -0.37680402392476     -2.16856621752950
  C   -0.19769238431741     -2.20206532547528     -0.07462061845439
  N   0.16743100823867     -3.31643721777130     -0.12802460779921
  N   1.31240858277594     -0.18113872297184      1.10421551045750
  H   0.91771247584156      0.23146363078999      1.94049025081213
  H   2.26047006681756      0.15435388049294      0.99946517288514
  C   0.02928497267366      1.61720174747692     -0.11037216474330
  H   -0.52079286702130      1.84008905089171     -1.02731119589759
  H   0.89228126062916      2.28406007763359     -0.06109298379910
  H   -0.61747179674297      1.83075284200372      0.74347670902795
