15
Coordinates from ORCA-job run
  C   -0.58364636779188     -0.67261193761923     -0.58684430968084
  C   0.46562155054029      0.42820922164044     -0.25936883826851
  F   -1.44133049752943     -0.22485498798014     -1.57338505140858
  H   0.96808299150417      0.62061231383766     -1.21440740267321
  C   0.10416325263657     -1.87946102544971     -1.07444531322128
  N   0.71615747918873     -2.80363431203309     -1.46305944296086
  C   -1.36346690235542     -0.99845257131507      0.61837634112110
  N   -1.95045252477178     -1.20947114353411      1.61362743200615
  N   1.45466633203083      0.00248510131261      0.69967026583476
  H   1.04793732481595     -0.18945351521666      1.60677348449405
  H   1.99195137629799     -0.79625232780468      0.38833559851897
  C   -0.22999196448722      1.69249378230964      0.21755273087334
  H   -0.68768205198646      1.53795317186684      1.19880531508590
  H   0.51380541901868      2.48420358524385      0.31129485201054
  H   -1.00381541711101      2.01023464474163     -0.48192566173154
