15
Coordinates from ORCA-job run
  C   -0.62738582940706     -0.60482491746802     -0.61455882056194
  C   0.55288390457762      0.33178603834456     -0.22792750470438
  F   -1.30008060994028     -0.08647834812396     -1.70427374376353
  H   1.17033268255855      0.38270988868535     -1.13224483321552
  C   -0.10530837890347     -1.93391884457911     -0.97302676969209
  N   0.37648781818573     -2.96737388441100     -1.25483801504750
  C   -1.56222581322735     -0.72855414177312      0.51592723255436
  N   -2.26559987766329     -0.78551679948818      1.45485301366174
  N   1.36051044467986     -0.18663664138735      0.84839658143343
  H   0.84120011413323     -0.25504399440505      1.71505489730605
  H   1.78500203036274     -1.07921098588071      0.63158612231754
  C   0.03305584310739      1.71802605027196      0.11561441940745
  H   0.88524915516677      2.38333317641489      0.25632878350391
  H   -0.60217843722942      2.11390339056772     -0.67726891143719
  H   -0.54094304640103      1.69880001323203      1.04637754823770
