15
Coordinates from ORCA-job run
  C   -0.19879772898520     -0.98281356576119     -0.37802794727952
  C   0.65795811412270      0.28723127242396     -0.13583493248760
  F   0.66058757191591     -2.06683089568294     -0.47207845238528
  H   1.31142386012832      0.34759834364642     -1.01446426978576
  C   -1.10354180420158     -1.21140406431340      0.75962077860252
  N   -1.80593668432395     -1.40311930288451      1.68136823697380
  C   -0.96662813035173     -0.89432726340228     -1.62817097526767
  N   -1.55093045663445     -0.82289242367003     -2.64478124385438
  N   1.49241690923783      0.17069599152021      1.03589322739713
  H   2.04587284735445     -0.67626396326655      1.01574008939358
  H   0.94163255391941      0.18640650201691      1.88654124418584
  C   -0.21392675451454      1.52822128746820     -0.04917932559594
  H   -0.89064189181328      1.46993263236968      0.80849236544509
  H   -0.81086067395207      1.67323058203202     -0.95131025776505
  H   0.43137226809819      2.39633486750349      0.08719146242324
