15
Coordinates from ORCA-job run
  C   -0.62727829735168     -0.76421326698870     -0.08643582969602
  C   0.54337005010618      0.25898598559499     -0.01974257034913
  F   -1.56429495363751     -0.42079097568140      0.87501574480980
  H   1.26333258792415     -0.05018933537295     -0.78598397456759
  C   -1.27886344168233     -0.76498310625100     -1.40413110979639
  N   -1.76213018654126     -0.73307282962028     -2.47432202599813
  C   -0.12460699625186     -2.11294600836967      0.22022050566327
  N   0.34246192340903     -3.16005316457964      0.47509686450088
  N   1.21165150074509      0.24569697372694      1.26110471112585
  H   0.55834381570726      0.44327709258302      2.00915720686683
  H   1.66770961294837     -0.63910675601453      1.44709695343010
  C   0.03103451202630      1.65910893556193     -0.32895860217617
  H   -0.41511127535011      1.72221908385469     -1.32287772380066
  H   0.87121897263821      2.35082985041891     -0.27336914407139
  H   -0.71583782468984      1.96423752113768      0.40712899405877
