15
Coordinates from ORCA-job run
  C   -0.29156352708846     -1.02205467193981     -0.32923682198724
  C   0.62110433458110      0.18944959063614     -0.08753921730063
  F   0.50264823532432     -2.15930432679622     -0.35234379546550
  H   1.30250850296286      0.20443165058891     -0.95361803426762
  C   -1.28249339963840     -1.16193471526409      0.74939448005997
  N   -2.09645354449826     -1.24388037533838      1.59141975377739
  C   -0.97536862829089     -0.91617823021049     -1.62935005942156
  N   -1.49261661968168     -0.79422082187540     -2.67656275287263
  N   1.28129960869562     -0.04592089642306      1.18240443128803
  H   1.72859288161275      0.80076835484577      1.50897899079068
  H   1.98471844603488     -0.76806901674941      1.09633408719913
  C   -0.17842409564887      1.48057266341318     -0.03803052635391
  H   -0.75019012946331      1.63905623824859     -0.95408621586834
  H   -0.85903429677999      1.47069722008518      0.81594808633687
  H   0.50327223187832      2.32658733677909      0.07728759408536
