15
Coordinates from ORCA-job run
  C   -0.26381728446632     -1.00416614065184     -0.39582488436466
  C   0.61196210255178      0.21934889611587     -0.08862294568667
  F   0.56876830739302     -2.10671134465735     -0.52273604612993
  H   1.26839131945072      0.32317499092714     -0.96776942051654
  C   -1.21897907865692     -1.25965201856269      0.69385365353053
  N   -2.01247769180201     -1.44269463577058      1.53965489456980
  C   -0.98694391544621     -0.82961331063300     -1.66690341684467
  N   -1.53621464899780     -0.65310965277273     -2.68967787215480
  N   1.31496777276633     -0.08341544041015      1.14378688187592
  H   2.03898308775734     -0.77271768131740      0.98704277234200
  H   1.74416426983407      0.75294618819635      1.51825541279646
  C   -0.23101123793602      1.47266408999657      0.07699303348648
  H   -0.83620388656667      1.67483273104243     -0.80837699129935
  H   -0.88376812022362      1.37556658787307      0.94702090032556
  H   0.42317900434231      2.33354674062431      0.23430402806986
