15
Coordinates from ORCA-job run
  C   -0.23453683246818     -0.87682352357119     -0.55957382747634
  C   0.63142531287061      0.25410540844451      0.06502734345830
  F   0.01695807986808     -0.96620997644941     -1.91512581177969
  H   1.66427162933413     -0.03291275393364     -0.16420778997122
  C   0.10806437329610     -2.16382620526908      0.06826046631096
  N   0.43584351026899     -3.15757937719011      0.60189835987407
  C   -1.66360156702511     -0.59027523772773     -0.35183620625472
  N   -2.78570647585860     -0.30406138252430     -0.15488417006418
  N   0.49062689424140      0.35210664362177      1.49675566893687
  H   0.75953097793021     -0.49419984189785      1.98166472101894
  H   -0.44645924449960      0.62147308750978      1.76969597639474
  C   0.31228283119432      1.58590622533134     -0.59406429693350
  H   1.01846285956969      2.33189414566389     -0.22878725999330
  H   -0.69717855912809      1.91686582265047     -0.33394827243428
  H   0.38901621040606      1.52253696534154     -1.67987490108666
