15
Coordinates from ORCA-job run
  C   -0.24397111513840     -0.99875106601221     -0.33675701756488
  C   0.66664855604190      0.24431218214586     -0.14785537919335
  F   0.57066554407308     -2.12041224846893     -0.38215341381094
  H   1.32151059160632      0.23604727418553     -1.02750897930725
  C   -1.15533831910348     -1.13576478844388      0.80961331677796
  N   -1.84658816721677     -1.18886434022608      1.75775229742005
  C   -1.00518491013222     -0.92941582857347     -1.59179434276432
  N   -1.58100904291885     -0.82939575948326     -2.61087301645945
  N   1.49510066273938      0.14276060859872      1.02897805625345
  H   2.01096600708286     -0.72763780599273      1.04710647775531
  H   0.94561210894744      0.22018702339354      1.87705153503400
  C   -0.14898253442787      1.52549859010523     -0.11832316110324
  H   -0.82808067061191      1.53574699261156      0.73920731362146
  H   0.53519882152399      2.36847667554383     -0.01863887583121
  H   -0.73754753246546      1.65721249061630     -1.02780481082759
