15
Coordinates from ORCA-job run
  C   -0.64632986752556     -0.59468797504675     -0.60533617637863
  C   0.56265470783198      0.31062930812463     -0.23221967030114
  F   -1.30293491516393     -0.07205204441474     -1.70284819920901
  H   1.18163709543154      0.32804007688080     -1.13676204694560
  C   -0.16525114247460     -1.94430871865171     -0.94383960810686
  N   0.28533720464532     -2.99588029536769     -1.21016309297868
  C   -1.58424631679661     -0.67240456754630      0.52669769707723
  N   -2.28998876868006     -0.69179496685479      1.46540160930923
  N   1.35307278915245     -0.21630349882111      0.85239547193280
  H   1.75039492144511     -1.12415112443041      0.64929073571401
  H   0.83261544321874     -0.25512100589828      1.71985089272138
  C   0.08651731056086      1.71778810481512      0.08882012948767
  H   0.95950006995832      2.35705603491678      0.22271390592487
  H   -0.49108469685913      1.73139082576056      1.01756668746032
  H   -0.53289383474444      2.12179984653389     -0.71256833570761
