15
Coordinates from ORCA-job run
  C   -0.59054833715655     -0.66467975163068     -0.57012727001443
  C   0.48383942520618      0.41515365080036     -0.26348381016470
  F   -1.42835478362921     -0.22297213079886     -1.57593652820296
  H   1.00104959370622      0.57131262446145     -1.21723499550368
  C   0.06452834563358     -1.90448875782768     -1.01936756855384
  N   0.60242863095973     -2.87227261402663     -1.41187348490929
  C   -1.38945285121541     -0.94169881146448      0.63528230123495
  N   -2.00956021521104     -1.17241986124716      1.60572431835592
  N   1.45254666943894     -0.01362088023714      0.71593243582065
  H   1.97174176494291     -0.83305308593878      0.42833318168719
  H   1.03249495482564     -0.17462912430085      1.62303194163785
  C   -0.18115234533542      1.70921872402840      0.17571433915317
  H   -0.93669138921365      2.03264743245790     -0.54092894470258
  H   0.58337899521147      2.48165470516369      0.26218838658119
  H   -0.65624845816337      1.58984788056046      1.15374569758056
