15
Coordinates from ORCA-job run
  C   -0.25437745628402     -1.03944035185782     -0.40773089014439
  C   0.62243767745762      0.19701380419532     -0.10819540194768
  F   0.58205064181169     -2.12499961357831     -0.58066611305140
  H   1.28083090031933      0.27761033421157     -0.98364586289519
  C   -1.16165973642357     -1.30716873668074      0.71872107464482
  N   -1.90649143626935     -1.47080978658563      1.61143583642568
  C   -1.03176476701403     -0.85939175384907     -1.64644457912935
  N   -1.61917905880744     -0.66979578486052     -2.64567619289715
  N   1.36212843542260     -0.10609918962980      1.10033311495617
  H   2.33155938963601     -0.31810023310590      0.92123086393011
  H   1.29556353667248      0.63628599918904      1.78100068103178
  C   -0.22131538653205      1.45463030226291      0.02823682931270
  H   -0.81012262675937      1.65385415673887     -0.86857454417395
  H   -0.90254462792082      1.36558029413161      0.87920709554794
  H   0.43388451469092      2.31083055941848      0.20076808838992
