15
Coordinates from ORCA-job run
  C   -0.26102782881978     -1.03615619818639     -0.40243044707958
  C   0.62403907149177      0.19238124172050     -0.09955687893019
  F   0.56780893627161     -2.13267264908483     -0.54759092862638
  H   1.29379200456819      0.26296145899257     -0.96789381548630
  C   -1.19333272849065     -1.28335399991295      0.70805264686684
  N   -1.96031007838121     -1.43220400876985      1.58442979743849
  C   -1.01129836590741     -0.86098665198557     -1.65833718217806
  N   -1.57713268240329     -0.67706563771516     -2.67096789228968
  N   1.33928192815899     -0.10890276826296      1.12410551319279
  H   1.32939383177488      0.66892065943707      1.76746122975294
  H   2.29071904902853     -0.39896741700188      0.95652705381110
  C   -0.20855445436964      1.45822702376154      0.02295705415721
  H   0.45415689216624      2.31408239125504      0.16631805778764
  H   -0.81032370304839      1.64227227714353     -0.86842907291844
  H   -0.87621187203984      1.39046427860935      0.88635486450162
