13

C	-0.445783	0.131054	-1.434668
C	0.0	0.0	0.0
F	-1.81564	0.321163	-1.515095
H	1.091613	0.0	0.0
H	0.046585	0.942052	-1.969404
H	-0.386431	-0.93836	0.402315
N	-0.170997	-1.118561	-2.221832
O	0.57062	-1.019637	-3.198022
O	-0.7348	-2.142717	-1.839048
N	-0.445445	1.129011	0.810567
H	-1.365286	1.438717	0.528134
H	0.20994	1.893228	0.709508
Cl	3.437862	0.0	0.0
