13

C	-0.538399	0.161954	-1.400616
C	0.0	0.0	0.0
F	-1.832602	0.625235	-1.386026
H	1.094599	0.0	0.0
H	0.067695	0.828831	-2.01652
H	-0.305634	0.910152	0.53372
N	-0.546696	-1.169215	-2.10559
O	-1.622223	-1.718555	-2.3049
O	0.559073	-1.599201	-2.40518
N	-0.500897	-1.227118	0.609668
H	-1.264491	-1.044937	1.243345
H	0.25283	-1.663555	1.121581
Cl	3.470158	0.0	0.0
