13

C	-0.561334	0.005955	-1.400819
C	0.0	0.0	0.0
F	-0.47101	-1.216782	-1.98885
H	1.100209	0.0	0.0
H	-1.603611	0.335967	-1.406632
H	-0.340758	-0.944831	0.434113
N	0.160056	0.998144	-2.289187
O	0.648945	0.609946	-3.33851
O	0.146207	2.155562	-1.876478
N	-0.589296	1.104085	0.774216
H	-0.151163	1.958086	0.447629
H	-0.277138	0.984916	1.731595
Cl	3.492013	0.0	0.0
