13

C	-0.444081	0.036048	-1.430992
C	0.0	0.0	0.0
F	-1.812275	0.054969	-1.578731
H	1.102715	0.0	0.0
H	-0.024001	0.895716	-1.952441
H	-0.316959	0.965524	0.410946
N	0.009897	-1.151231	-2.249736
O	0.333578	-0.918123	-3.413126
O	-0.040289	-2.266353	-1.735871
N	-0.626928	-1.059811	0.795504
H	-0.297271	-0.931526	1.745161
H	-0.243691	-1.942432	0.482801
Cl	3.479525	0.0	0.0
