13

C	-0.499338	-0.015428	-1.431593
C	0.0	0.0	0.0
F	-0.051049	-1.104536	-2.110433
H	1.09419	0.0	0.0
H	-1.593269	-0.000288	-1.495674
H	-0.354871	0.917932	0.472648
N	-0.069134	1.227431	-2.17415
O	-0.551011	2.270516	-1.732125
O	0.674742	1.118314	-3.137967
N	-0.449831	-1.167081	0.749783
H	0.12449	-1.957435	0.489949
H	-1.415918	-1.395934	0.544417
Cl	3.471917	0.0	0.0
