17
Coordinates from ORCA-job run
  C   -0.79538118656851      0.18593879072542     -0.25198039041966
  C   0.48914831526632     -0.28240530309148      0.42493783953512
  F   -0.57220188231421      1.46006995471528     -0.76827659535600
  H   0.32766107205090     -1.32676444799658      0.69656528579654
  N   -1.14657647592836     -0.65550007039895     -1.47380062909602
  O   -0.67477743206779     -1.78593915490224     -1.54325973616346
  O   -1.93667115632259     -0.14958197728010     -2.26231474322975
  N   -1.90013268246262      0.11582835132601      0.59713470572514
  H   -2.70025031943913      0.59734685599341      0.20710255037220
  H   -1.63430038811649      0.47835000770464      1.50506016067467
  N   0.58713080152245      0.49403059235372      1.66460877179566
  H   1.01192851454220      1.39355636793597      1.46871384793901
  H   1.18046518503900      0.01035099924928      2.32594984588869
  C   1.70632786902862     -0.15785187251802     -0.48425255468246
  H   1.85328122638670      0.88223517930244     -0.78219991681309
  H   1.61002981058997     -0.76964063498076     -1.38165050635937
  H   2.59531872879352     -0.49002363813802      0.05666206439279
