17
Coordinates from ORCA-job run
  C   -0.83831685922133     -0.04853835373583      0.12615331879529
  C   0.61515969816951      0.25110560871104      0.48775185221725
  F   -1.56649555256408     -0.29264909962078      1.26387095319826
  H   0.56304469319264      1.02967134775072      1.25146708196799
  N   -1.50755758828766      1.27085042259482     -0.39396720890055
  O   -1.16499107020724      2.32296218545556      0.13659824518422
  O   -2.36083041352603      1.15258405303983     -1.26923304951135
  N   -1.01110742102413     -1.10838116967288     -0.76583199020218
  H   -0.38791281597550     -1.02189761030571     -1.55620888994872
  H   -1.96639300909163     -1.15484348219248     -1.09812057936873
  N   1.41814424243370      0.76764672807535     -0.60368704330977
  H   1.58356339669238      0.08686538528026     -1.33242384671790
  H   1.04978135056210      1.62415010061084     -0.99329699631703
  C   1.26817401833984     -0.98966564733491      1.07773634998577
  H   2.25474812514028     -0.72162325595245      1.45735862523236
  H   1.38272405322473     -1.76998677525014      0.32192155216073
  H   0.66726515214243     -1.39725043745321      1.89091162553435
