17
Coordinates from ORCA-job run
  C   -0.79396177023556      0.33885835072994     -0.33649221319965
  C   0.41981469154637     -0.13292272945306      0.47234007370732
  F   -0.41196255027988      1.43798542892014     -1.04862710640266
  H   0.08321667451421     -1.01508686512456      1.02561047949935
  N   -1.13631435704007     -0.75000275359282     -1.34262136599960
  O   -0.85897890121302     -0.56352942157087     -2.51761646094002
  O   -1.62628448251594     -1.76850010042268     -0.85755130454818
  N   -1.97086619182031      0.63407281559038      0.39031023000746
  H   -1.68520205473139      1.09913474314236      1.24577410264823
  H   -2.45792234524141     -0.22354002495799      0.61610139684384
  N   0.66743968486541      0.93128688431923      1.44285010389300
  H   1.17381407167974      1.68728549268562      0.99611344467030
  H   1.23733378734837      0.58315733637444      2.20298534068366
  C   1.60958091405162     -0.49683162121062     -0.40946650261474
  H   1.39461869257611     -1.34641402771168     -1.06194369494426
  H   2.46167463066330     -0.76676115980371      0.21867745338535
  H   1.89399950583246      0.35080765208589     -1.03644397668940
