17
Coordinates from ORCA-job run
  C   -0.72231082220842      0.36012660963671     -0.24820601151800
  C   0.55940253841751     -0.08594870107220      0.44790201097376
  F   -0.51172860731882      1.40950533672600     -1.06849220138596
  H   0.27548679401077     -0.95495056832457      1.06338875362255
  N   -1.15660874492810     -0.80927103610701     -1.16643962240190
  O   -1.56795039135288     -1.79966512762676     -0.56356753562305
  O   -1.04163529479058     -0.68950887568541     -2.37776888214119
  N   -1.74351724387242      0.69980751210850      0.67408123700205
  H   -2.06610287068936     -0.12986206988894      1.15578527460958
  H   -2.52009042521870      1.14006494690378      0.19432047802665
  N   1.03578441709274      1.05515133266405      1.21591264761428
  H   1.83242187070049      0.77589528889273      1.77465237333295
  H   0.30343059906888      1.37871032805624      1.83609765645384
  C   1.62254934607939     -0.51047886699239     -0.55385705964797
  H   1.33887456474365     -1.41466848423426     -1.09567106081952
  H   1.80697432809157      0.29633405746589     -1.26373878372388
  H   2.55501994217429     -0.72224168252235     -0.02539927437419
