17
Coordinates from ORCA-job run
  C   -0.87720132506983     -0.01642296374783     -0.08111906876399
  C   0.54288640867749      0.26694644165324      0.40890721335198
  F   -1.63189892007829     -0.50260888565999      0.96578775259580
  H   0.48129514200716      1.16408332559613      1.03866513744759
  N   -1.60720870275739      1.29985622609105     -0.43574973882698
  O   -0.91049111387598      2.28295391203322     -0.68011475302335
  O   -2.82519993790311      1.23895432484794     -0.52303347906969
  N   -0.93199781951928     -0.82222674079356     -1.21262212078331
  H   -1.74872606379675     -1.40919807569135     -1.26864805693036
  H   -0.05206541729605     -1.25205076373119     -1.44906327874153
  N   1.41536097498460      0.42449431141508     -0.74887750050503
  H   1.18310482138833      1.28520929967974     -1.23055595743407
  H   2.37626233884427      0.49203023919470     -0.43658549900416
  C   1.04255941184098     -0.89772283143764      1.25445200560383
  H   1.05744013926880     -1.82225544785856      0.67404300802954
  H   0.42174913304033     -1.04303114434896      2.13683314024200
  H   2.06313093024472     -0.69001122724201      1.58668119581173
