17
Coordinates from ORCA-job run
  C   -0.70606347882016      0.38652996758773     -0.26576863828992
  C   0.48268215451188     -0.28708239574889      0.44482822397360
  F   -0.29565143687203      1.59437011668131     -0.73621579379576
  H   0.11247371688167     -1.24862785436094      0.81451325973974
  N   -1.07964140537685     -0.47705046333674     -1.45785413228036
  O   -1.58404774630238     -1.55793752879748     -1.15764073680189
  O   -0.82191863707904     -0.07471415043021     -2.58164976437410
  N   -1.91534040508273      0.58850229325389      0.45903671356892
  H   -1.74905890481502      1.19659081231892      1.24970371991532
  H   -2.29463116751850     -0.29703232096674      0.76747088209970
  N   0.94348524716785      0.48512158537953      1.58715792892538
  H   0.24171956531216      0.54275566629888      2.31361659773269
  H   1.19958381408205      1.42244919145921      1.30058658031682
  C   1.64343622040177     -0.52495104275951     -0.51149266045541
  H   1.96851288785678      0.41382500675328     -0.96539937727163
  H   2.47616889844404     -0.94712927606871      0.05091087452710
  H   1.37829067720851     -1.21661960726352     -1.31280367753020
