17
Coordinates from ORCA-job run
  C   -0.86551239541478      0.01225457675776     -0.08942392936314
  C   0.48796796814398      0.32185611920641      0.52129530259327
  F   -1.76419413855347     -0.29680418410804      0.92667552795181
  H   0.31186062221443      1.09897452562960      1.26864034688144
  N   -1.43148344976710      1.29788432519950     -0.69412416783718
  O   -1.87876634014085      1.25358865485410     -1.83504787409890
  O   -1.44238040215019      2.26641389664393      0.05132151886700
  N   -0.80240766779027     -0.97141985978184     -1.09102162427713
  H   -0.75360062071670     -1.89034452886749     -0.67174323799732
  H   -1.59277639967952     -0.90742768109611     -1.71957761384056
  N   1.28246387661489      0.90232598053016     -0.54946142069019
  H   1.53240393246120      0.18332190480942     -1.21763893065655
  H   2.12750770883321      1.31816761336528     -0.18072588874533
  C   1.07601457531919     -0.91695331030626      1.19294377159420
  H   1.31976784400143     -1.68066940769579      0.44920685434543
  H   2.00340359472342     -0.64972706495569      1.70453228577069
  H   0.39173129190113     -1.34044156018496      1.93214907950246
