17
Coordinates from ORCA-job run
  C   -0.97925074511127      0.09519225382131      0.17443491552662
  C   0.46369608559489      0.23034039874121      0.66466372140772
  F   -1.79288713609913      0.86088282033692      0.93978528254178
  H   0.33795962239395      0.23907957372213      1.75233533485174
  N   -1.07726219255592      0.70401132624826     -1.24297784564080
  O   -0.29017043906291      0.21492033786642     -2.05465735101285
  O   -1.92979312437505      1.54409248896430     -1.47883512939555
  N   -1.47771223806656     -1.22864822078071      0.19157656538119
  H   -2.47053383612130     -1.23186401724884     -0.01269381421786
  H   -0.98737275997555     -1.81304354506383     -0.47215534437905
  N   0.94320065556033      1.54736323995782      0.26291812657284
  H   1.56531073373297      1.92799669221835      0.96208388577422
  H   1.45013231074451      1.48454551354597     -0.61201316189707
  C   1.37903626093799     -0.93259700356260      0.29419066642561
  H   1.49655354814520     -1.00548347485098     -0.78813217354979
  H   1.00577802190582     -1.88170081066639      0.68422417277527
  H   2.36331523235203     -0.75708757324935      0.73425214883597
