17
Coordinates from ORCA-job run
  C   -0.90551882442613      0.01966044509310      0.08502079432549
  C   0.55367697123161      0.25097617994201      0.50815024022807
  F   -1.65845512766055     -0.08033089535474      1.23235028210906
  H   0.51656411316588      1.07131357936648      1.23072235217815
  N   -1.38191075677185      1.32407511877185     -0.57074648258617
  O   -1.51369592734709      2.27961431825311      0.18218685154474
  O   -1.52096515263237      1.34607423314711     -1.79254557104260
  N   -1.16605741015459     -1.04745497742859     -0.78479269531881
  H   -1.44546557994921     -0.73965756433215     -1.70431891180612
  H   -0.41501104601415     -1.71747059415203     -0.82957598530048
  N   1.43229656689682      0.65082643879508     -0.57355467822742
  H   1.42957372447979     -0.03234306024833     -1.32078768696835
  H   1.17780975211314      1.55081282150599     -0.96002939605293
  C   1.10710138914441     -0.98859553693730      1.19809571854652
  H   0.43893394737868     -1.34211438965293      1.98358038467038
  H   1.27384578008196     -1.80326393770588      0.48560689187773
  H   2.07727758046364     -0.74212217906279      1.62963789182274
