17
Coordinates from ORCA-job run
  C   -0.87920925574498      0.06033504289693     -0.01208928123514
  C   0.59676775424418      0.23826348941450      0.34611839935491
  F   -1.58287532919276     -0.29816381976372      1.11807778527576
  H   0.66730504557393      1.17251132146162      0.91854174365868
  N   -1.51732530631067      1.41719009181928     -0.38879113070731
  O   -0.75950925260437      2.30932896835186     -0.76455251728819
  O   -2.73840401386369      1.47153456460322     -0.36079356413051
  N   -1.09933085195465     -0.79614264304956     -1.08585185708883
  H   -1.96469695781121     -1.30979570387178     -1.03539823632854
  H   -0.28367989955254     -1.32180213345488     -1.35745931436192
  N   1.38022416968074      0.24524224787565     -0.88334556006113
  H   1.18492663750467      1.09322272984383     -1.40243000015975
  H   2.36608885263194      0.24043048121540     -0.65241556515001
  C   1.06035427793876     -0.91591373836003      1.22599049008581
  H   0.50522463658836     -0.94971057643258      2.16182265931905
  H   0.94456363453050     -1.87085218749913      0.70959912364175
  H   2.11957585834182     -0.78567813505062      1.46297682517538
