17
Coordinates from ORCA-job run
  C   -0.86877259331212      0.05151642193685     -0.02429480288783
  C   0.54300277408780      0.34251884909887      0.44765338015222
  F   -1.69614092425275     -0.10703505434614      1.08319223183110
  H   0.46521821459698      1.19633059429539      1.12470009334389
  N   -1.41961532967162      1.30256930862774     -0.71020390412840
  O   -1.32289704067730      2.33744787158011     -0.06708065870206
  O   -1.96073426982073      1.17360526605211     -1.80303034037096
  N   -0.93472502533502     -1.02568494275413     -0.92392377026838
  H   -0.89119620301653     -1.90153537098671     -0.42036449066290
  H   -1.77152647271820     -0.98107085121320     -1.49101452426963
  N   1.27511150719329      0.77260127684265     -0.73279809563750
  H   2.16610871425788      1.17452252137955     -0.47291993175385
  H   1.43540134788896     -0.01933646364777     -1.34354197442949
  C   1.12426730114846     -0.85635473601534      1.19362653160508
  H   0.48390916027228     -1.16710799756374      2.02271138186643
  H   2.10260056020128     -0.59278892252938      1.60175778275797
  H   1.26898827915734     -1.70119777075686      0.51453109155431
