17
Coordinates from ORCA-job run
  C   -0.85680606901918      0.27346256815426     -0.22169624101939
  C   0.46485797386882     -0.17362858204596      0.41344374568868
  F   -0.69814540064294      1.56289409940806     -0.63782053258358
  H   0.30729580627012     -1.20956904742325      0.72909182631503
  N   -1.08735445213505     -0.57333785354993     -1.46484428278658
  O   -1.37814148840873     -1.74799501200171     -1.24519203300303
  O   -0.91932666374105     -0.05698386980795     -2.55912295522850
  N   -2.01722679048582      0.17754807613147      0.58140035449133
  H   -2.34840226416854     -0.77851642229595      0.59069597365250
  H   -1.75399876801778      0.45594829418563      1.52107891982474
  N   0.60298979523393      0.64137001661432      1.61863637291180
  H   1.26643053725020      0.21529247185911      2.25273260272303
  H   0.95591290071356      1.55850891716481      1.37000559124351
  C   1.63840737830917     -0.10055527025049     -0.55762670831487
  H   1.51855058798517     -0.78430240787109     -1.40133606862686
  H   1.74532455645477      0.91202793676131     -0.95221959718343
  H   2.56063236053336     -0.37116391503265     -0.03822696810440
