17
Coordinates from ORCA-job run
  C   -0.89423515876136      0.26095088564934      0.18638957579763
  C   0.55586450889726      0.10720315756818      0.68580036098267
  F   -1.40605302181381      1.46517518451160      0.58355634219003
  H   0.43715519184992     -0.19354988887767      1.73282252423771
  N   -0.84434440379602      0.38189835445520     -1.36027620484665
  O   -0.36611993376624      1.41272675915983     -1.82448451694566
  O   -1.21757713309166     -0.59389224535763     -2.00689390763337
  N   -1.74243036986410     -0.76099706469014      0.62577876931429
  H   -2.64365482924916     -0.72917507819297      0.16640958747105
  H   -1.33318272822053     -1.67333451164300      0.49112188798751
  N   1.33385899653422      1.32863489052875      0.66904767894840
  H   1.42012612397158      1.66980397183653     -0.28152326693006
  H   0.85659486267450      2.04707907955061      1.19937526593339
  C   1.30587792350448     -0.98087651047598     -0.07277943480538
  H   0.77441162580081     -1.93463509117457     -0.09663691731463
  H   2.27115535586922     -1.13448915437804      0.40908655848944
  H   1.49155298946088     -0.67452273847005     -1.10579430287636
