17
Coordinates from ORCA-job run
  C   -0.76838297550539      0.28617799593562     -0.20321920797675
  C   0.57368110392090     -0.06076004479346      0.43388782545683
  F   -0.71255823599477      1.43945589493851     -0.89977153589023
  H   0.41803064549998     -1.02336947074755      0.94741768052262
  N   -1.06167007328350     -0.82016810380343     -1.24643281624351
  O   -0.98689796570866     -0.55160141633299     -2.43687027612088
  O   -1.32593490311015     -1.91789259126857     -0.75752746121470
  N   -1.80837304477832      0.38173605610701      0.75512526843353
  H   -2.01250151238834     -0.53261057343693      1.13819587673713
  H   -2.64339907598979      0.76953572962387      0.33157196354709
  N   0.90885271513010      1.04040117098839      1.32424406047630
  H   1.75242674630216      0.81566394532155      1.83662617957499
  H   0.15653328425696      1.18671513122977      1.98608254624801
  C   1.66457416373471     -0.22501888259185     -0.61348303914295
  H   1.72799713690283      0.67351172411845     -1.22793806543439
  H   2.62678251650692     -0.36942887579029     -0.11651193403859
  H   1.49183947450436     -1.09234768949809     -1.25339706493451
