17
Coordinates from ORCA-job run
  C   -0.64047841753881      0.40873977094835     -0.37493597393429
  C   0.44013209756356     -0.23165233321930      0.51546423467279
  F   -0.05162608125704      1.36386964057478     -1.14336009591143
  H   -0.07079167857967     -0.98713854013449      1.12093735195695
  N   -1.17594436201613     -0.67067167322304     -1.29930777183814
  O   -1.84213804110265     -1.53448795751313     -0.73143790164905
  O   -0.88242729517499     -0.63092902584534     -2.48392494640481
  N   -1.78425227386290      0.99080165672220      0.24268600479787
  H   -2.29577756343568      0.29480859438044      0.76904727467822
  H   -1.50327830808100      1.75347762818814      0.84429604808199
  N   1.04402710912934      0.73341119982567      1.42007501970374
  H   0.37638267861428      1.09562535718837      2.08839559991076
  H   1.44088650157074      1.50606580332641      0.89860701408241
  C   1.52683512908980     -0.89926540929003     -0.31629417440964
  H   2.29294234517978     -1.28289289086228      0.35741460763245
  H   1.98817365640456     -0.18053222840073     -0.99717304263563
  H   1.13733450349680     -1.72822959266602     -0.90948924873419
