17
Coordinates from ORCA-job run
  C   -0.71532864251335      0.43304655383786     -0.39931439886657
  C   0.37801281204322     -0.15520382104395      0.49989469498765
  F   -0.13232680935750      1.37849705797994     -1.19137173230318
  H   -0.11896786800659     -0.91018776738723      1.11677315808440
  N   -1.21219277720818     -0.67506394758414     -1.31573639713212
  O   -0.87636147453450     -0.65206476868952     -2.49010497944120
  O   -1.88195857685094     -1.54482820181804     -0.76124974152985
  N   -1.84304569369026      0.99107780118286      0.24670737307677
  H   -2.47497618686503      0.25346636530473      0.53021055175944
  H   -1.50437184729851      1.48375491485953      1.06663848013518
  N   0.77896594475674      0.94180477416842      1.37875991184058
  H   1.25927737292273      0.57808518107594      2.19166231822873
  H   1.42064950690907      1.55331470128602      0.88699058694456
  C   1.51061590785036     -0.79732557176142     -0.29403611303360
  H   1.17040566198127     -1.65694134772513     -0.87642231539320
  H   1.95301715441509     -0.07371248069533     -0.98191344841163
  H   2.28658551544638     -1.14571944299052      0.39151205105403
