17
Coordinates from ORCA-job run
  C   -0.78844164392614      0.17242945511787     -0.28046559761925
  C   0.48095019565775     -0.21181309924652      0.47316078591891
  F   -0.50724771881533      1.29375678790623     -1.05760860142148
  H   0.26860407188815     -1.16351992965190      0.96282680510669
  N   -1.20442885381537     -0.88884872094242     -1.29413693926278
  O   -1.97854139209745     -0.51777631139923     -2.16857377309676
  O   -0.79688723875230     -2.03297471041139     -1.12158791978434
  N   -1.88073571147398      0.34477880789352      0.56979210378867
  H   -2.66110443766412      0.77664074926871      0.09173010606381
  H   -1.58084054602880      0.87382624355357      1.38004946915314
  N   0.64202696507778      0.80415595981245      1.51747085070880
  H   1.10385779606721      1.61914124259011      1.12944164053709
  H   1.22677492000837      0.44276357752310      2.25968798181552
  C   1.68620352763328     -0.35320961489627     -0.44943537817441
  H   1.54161673943872     -1.13866875409340     -1.19176712539312
  H   1.88163898755113      0.58792866791276     -0.96729123878222
  H   2.56655433925110     -0.60861035093720      0.14470683044172
