17
Coordinates from ORCA-job run
  C   -0.88969079879512      0.20245619459043      0.21292883300953
  C   0.56856410233988      0.12881040916317      0.68768647268867
  F   -1.49963495912080      1.25536977544116      0.82637808419206
  H   0.45561074620902     -0.02396967889739      1.76718448992330
  N   -0.88646972503481      0.57384679919135     -1.29189427389936
  O   -0.88066325064693      1.75971254749921     -1.60057908572978
  O   -0.82589771616271     -0.37845975684907     -2.06959119660154
  N   -1.63993492192501     -0.96101538857742      0.47745325853632
  H   -2.62541483821603     -0.78234216521371      0.32153257742298
  H   -1.34292991715501     -1.72065919910964     -0.11942095194502
  N   1.31627488405327      1.35440636598480      0.48861854548388
  H   0.78734318038985      2.15306617981820      0.81619024618708
  H   1.52395669133026      1.50096179267602     -0.49194029216087
  C   1.33054781697675     -1.04758679327776      0.09927302606596
  H   1.41456172833020     -0.96807776465846     -0.98716767188286
  H   2.33584295990711     -1.04681124059697      0.52138361846769
  H   0.85893401752008     -2.00070807718393      0.34296432024196
