17
Coordinates from ORCA-job run
  C   -0.82883500604232      0.00475237142672      0.14286159144236
  C   0.66576249269241      0.24177909444573      0.40613887328751
  F   -1.47717246313218     -0.29613707510218      1.29815663053584
  H   0.72127272960986      1.12847652065765      1.04838589660256
  N   -1.41580828719232      1.37912789099330     -0.28830804775397
  O   -1.78876280585360      2.14523018756574      0.58921599336890
  O   -1.38361019542856      1.61542384682408     -1.49729705464603
  N   -1.08634645323583     -1.00674997174109     -0.80356702544329
  H   -0.80897805203508     -0.70076625637930     -1.72577982216804
  H   -2.07410242519137     -1.23219847360059     -0.81394860297747
  N   1.44678195954054      0.49682023667051     -0.78959955371955
  H   1.06363774321303      1.24295260101678     -1.35578059070202
  H   1.52950880247944     -0.34152791812700     -1.35069780690672
  C   1.24695156476051     -0.95033440381496      1.15104031914446
  H   2.30289873875781     -0.75763048472298      1.34427992652893
  H   0.73508024524474     -1.11418998918626      2.09869548475287
  H   1.15372141181293     -1.85602817692618      0.54820378865364
