17
Coordinates from ORCA-job run
  C   -0.94240972811707      0.08953221093221      0.00188139545722
  C   0.44024634995095      0.23038425625831      0.63499801261814
  F   -1.78771090251635      1.00650377698768      0.59341119394470
  H   0.22169851258017      0.10717070924393      1.70400515142616
  N   -0.97204135441843      0.47634434648178     -1.47540783430601
  O   -2.08770128424278      0.50403299239724     -1.98188494408525
  O   0.08682984320851      0.69885254349474     -2.05359964793282
  N   -1.45206304795826     -1.22223080160531      0.04616578526875
  H   -2.40605904848662     -1.23397445689717     -0.29604124964724
  H   -1.42104708068931     -1.58641045514065      0.98974088713501
  N   0.90567034948121      1.59901582337248      0.46284016594090
  H   1.49729958402525      1.86382277466507      1.23796418227992
  H   1.43783217841001      1.67866150192513     -0.39342357870434
  C   1.42664709624576     -0.85602116572393      0.21054632797012
  H   1.66422598234752     -0.76098656948157     -0.84890731389102
  H   1.03812141236648     -1.86036633287121      0.38401160008932
  H   2.34946113781297     -0.73633115403872      0.78369986643640
