17
Coordinates from ORCA-job run
  C   -0.85721652381662      0.11823312165521      0.01626665447745
  C   0.53385724780154      0.13720787440023      0.66218153128032
  F   -1.56136565579972      1.23555111606276      0.48797445750626
  H   0.31861836724423     -0.12222574855532      1.70864979377511
  N   -0.85691720035627      0.36832014245086     -1.49093828521534
  O   0.13884531014935      0.87784518623569     -1.99681009605811
  O   -1.89512350719257      0.09096144411668     -2.08167888225377
  N   -1.53585221717226     -1.08519942088014      0.22139572530384
  H   -1.57298770498415     -1.32340989126960      1.20253179443638
  H   -2.46056090932295     -1.06862533628655     -0.18865247973093
  N   1.19818106477213      1.42580598602966      0.68816923422391
  H   0.58509208204292      2.12562579572931      1.08677583978980
  H   1.41634626068652      1.70751970036253     -0.25891847955849
  C   1.45771263503166     -0.92895180509011      0.08940652479757
  H   1.76550693445766     -0.66804543626246     -0.92410559547698
  H   2.35146717951593     -0.98302919491646      0.71191013313586
  H   0.97439663694260     -1.90558353378228      0.06584212956712
