17
Coordinates from ORCA-job run
  C   -0.88856012728048      0.20511213441135      0.21933401588232
  C   0.57305063623478      0.12902103134101      0.68371303085136
  F   -1.49246144885144      1.25912881152793      0.83700634805531
  H   0.46685436211437     -0.01833447758883      1.76470091333192
  N   -0.89426595857081      0.57834665203532     -1.28576553074884
  O   -0.89108860226243      1.76422404316333     -1.59383972608765
  O   -0.83790505661697     -0.37354697842079     -2.06423830344638
  N   -1.63839630238603     -0.95694395066755      0.48812149144248
  H   -2.62433604067638     -0.77943132561953      0.33398178888880
  H   -1.34237576563320     -1.71834872866363     -0.10693496370495
  N   1.32304993541741      1.35114168397137      0.47406125774777
  H   1.52887536705599      1.49037459834835     -0.50792281145891
  H   0.79794333982488      2.15388653588057      0.79768444770274
  C   1.32734605801650     -1.05229769156393      0.09518099950894
  H   2.33690921570992     -1.04926946699039      0.50694643883230
  H   1.39976197732420     -0.97985211676889     -0.99256814200885
  H   0.85759841057968     -2.00321075439570      0.35053874521165
