17
Coordinates from ORCA-job run
  C   -0.91091668808879      0.23707802878399      0.11705202301629
  C   0.50821082700144      0.16005922820123      0.71356880066572
  F   -1.48914650587821      1.43519063648968      0.42962095332171
  H   0.32967519228254     -0.08605697409765      1.76623500484315
  N   -0.76517687874379      0.29288619116067     -1.42645145848050
  O   -0.31448026666535      1.32776978168744     -1.90885505113744
  O   -1.03777343446278     -0.73235043450005     -2.04657676323878
  N   -1.75132212455863     -0.79664722997061      0.54859544727384
  H   -2.63531710929210     -0.79114083295376      0.05521399877192
  H   -1.31771905460898     -1.70123259706668      0.43884104852982
  N   1.24710984008993      1.40526912271779      0.67506049718201
  H   1.38571006602033      1.69642895192689     -0.28593033653964
  H   0.71428861204061      2.13504925499738      1.13193842298143
  C   1.33900214045036     -0.94240663180871      0.06927139569348
  H   0.84525347287059     -1.91640487510666      0.08176147406861
  H   2.27988812223850     -1.02536375591393      0.61294730797039
  H   1.57271378930434     -0.69712786454702     -0.97029276492201
