14

C	-0.268022	0.054628	-1.451039
C	0.0	0.0	0.0
Br	-2.188237	0.214043	-2.001648
H	1.096851	0.0	0.0
H	0.228906	0.886469	-1.943482
H	-0.396489	-0.92109	0.43047
N	0.226759	-1.174735	-2.164623
O	0.826912	-0.991251	-3.22111
O	-0.014008	-2.266628	-1.661788
C	-0.456514	1.24877	0.732915
H	-1.543683	1.384867	0.739174
H	0.002522	2.133796	0.282081
H	-0.103518	1.203717	1.7661
F	2.602084	0.0	0.0
