14

C	-0.267009	0.066081	-1.451068
C	0.0	0.0	0.0
Br	-2.188797	0.230859	-2.001377
H	1.096867	0.0	0.0
H	0.231378	0.900563	-1.938406
H	-0.396659	-0.924603	0.423022
N	0.227246	-1.159242	-2.170642
O	-0.023861	-2.253275	-1.678826
O	0.837773	-0.969947	-3.220635
C	-0.455608	1.24265	0.74377
H	-1.542816	1.378074	0.752437
H	-0.100757	1.189315	1.775865
H	0.002098	2.131711	0.299369
F	2.601031	0.0	0.0
