14

C	-0.418795	0.00436	-1.434437
C	0.0	0.0	0.0
Br	0.049812	1.647614	-2.356366
H	1.093215	0.0	0.0
H	0.032037	-0.807955	-2.000739
H	-0.38496	0.898245	0.491912
N	-1.909954	-0.189131	-1.583172
O	-2.27667	-1.237543	-2.119026
O	-2.659117	0.650206	-1.094929
C	-0.478506	-1.266422	0.703566
H	-1.567929	-1.332977	0.813661
H	-0.028785	-1.29745	1.698752
H	-0.130621	-2.15593	0.169618
F	2.642702	0.0	0.0
