14

C	-0.390363	-0.03663	-1.450345
C	0.0	0.0	0.0
Br	0.138967	1.538523	-2.454238
H	1.09304	0.0	0.0
H	0.071875	-0.883631	-1.95067
H	-0.319423	-0.968442	0.411832
N	-1.877565	-0.240479	-1.622537
O	-2.233276	-1.414896	-1.746563
O	-2.639517	0.716424	-1.529492
C	-0.560466	1.151735	0.815355
H	-0.23654	2.107076	0.397274
H	-1.65387	1.16182	0.885672
H	-0.148495	1.087942	1.826075
F	2.637248	0.0	0.0
