16
Coordinates from ORCA-job run
  C   -0.92286823531569     -0.30919346350034      0.03016966360683
  C   0.57194387644971     -0.25194348936769     -0.31505808869455
  F   -1.16319979560565     -1.67578403510647      0.29634796676245
  H   0.72016999840641     -0.91798120427713     -1.16773144278767
  N   -1.70066246490380      0.20100512651603     -1.02126097023242
  H   -2.69216515599773      0.17139268024534     -0.82530958670761
  H   -1.49001844881059     -0.23881780962077     -1.90762159418009
  C   -1.24332873744137      0.40554947058168      1.27912944460725
  N   -1.51789185571393      0.93806276801404      2.28853609377474
  C   1.47970347602068     -0.60752565426975      0.84195224384096
  H   1.36854571665412      0.11205898633426      1.65281966594086
  H   2.52063652171361     -0.60764450604516      0.51370137708417
  H   1.22794338706693     -1.60402583611534      1.20589651795849
  N   0.87588509408306      1.12145782935502     -0.82876121464576
  O   1.01408681313452      1.24081562217041     -2.04394477465406
  O   0.95121981025972      2.02157351508588      0.00213469832643
