16
Coordinates from ORCA-job run
  C   -0.97272935913198     -0.25572227974931     -0.14240185743112
  C   0.55140731600265     -0.37204122524432     -0.29697211181611
  F   -1.50410022905584     -0.51863411495275     -1.42139601688338
  H   0.77259384640283     -1.38490401927523     -0.63450088637960
  N   -1.39436604294549      0.97060848615862      0.39834624099934
  H   -1.05173037423470      1.74776068085737     -0.15225586218192
  H   -2.40003065715162      1.00681253990957      0.50093734055110
  C   -1.43051022200249     -1.35830814053288      0.72774729471191
  N   -1.77097363973989     -2.24187783609442      1.42163416074928
  C   1.32328156577298     -0.00110038042212      0.95263515359521
  H   1.12418956130210      1.03258426837618      1.23021486988702
  H   2.39290956086258     -0.13769451117563      0.78211780418288
  H   1.01972946142224     -0.64847672301166      1.77740671291852
  N   0.99219019106168      0.49972274454568     -1.43701658508838
  O   0.71768163364076      1.69797156798732     -1.36880592743123
  O   1.62845738779418     -0.03670105737644     -2.33669033038354
