16
Coordinates from ORCA-job run
  C   -0.95168043227076     -0.35817259119543      0.13379862154079
  C   0.50362847761009     -0.32144983499956     -0.36543473223905
  F   -1.16063213259905     -1.73415489045345      0.36034397229300
  H   0.53313810468813     -0.98113402262053     -1.23676677807631
  N   -1.88801962537981      0.13572375369160     -0.78862595697696
  H   -2.34006237423763      1.00210034205303     -0.55609997748581
  H   -1.62024746269630      0.06248608201953     -1.76035858628121
  C   -1.14165494552924      0.29812023223783      1.44129792558926
  N   -1.36089473949113      0.77211665142847      2.49020307391861
  C   1.55500901192569     -0.68906280220681      0.65863038762851
  H   1.53104717714904      0.00170877858889      1.50562595236453
  H   2.54495496860344     -0.66553917901298      0.19779647919876
  H   1.36791112345374     -1.69942998181836      1.02743096286908
  N   0.75855580774697      1.05223955401981     -0.90190087267705
  O   1.07427542380238      1.14313429251865     -2.08386247687155
  O   0.59567161722445      1.98231361574930     -0.12107799479458
