15

C	0.0	0.0	0.0
C	-0.322368	-0.001641	-1.528217
Cl	1.792474	0.0	0.0
H	-1.407127	0.124644	-1.575992
C	-0.650285	1.090199	0.745385
N	-0.629036	2.022374	1.48363
C	-0.458349	-1.270285	0.577311
N	-0.53747	-2.32797	1.09432
N	0.096027	-1.19513	-2.160768
H	-0.321164	-1.261289	-3.07889
H	1.102904	-1.219974	-2.260843
N	0.267079	1.254746	-2.167579
O	-0.132884	2.334049	-1.739415
O	1.044868	1.11158	-3.113533
H	-2.183631	0.0	0.0
