15

C	0.0	0.0	0.0
C	-0.220536	-0.181568	-1.596448
Cl	1.786339	0.0	0.0
H	0.497536	0.503165	-2.044476
C	-0.528625	1.314564	0.358964
N	-0.589395	2.468202	0.61303
C	-0.500361	-1.027542	0.89824
N	-0.566207	-1.85484	1.740021
N	-1.494571	-0.050395	-2.195594
H	-2.168204	-0.147195	-1.399211
H	-1.584891	0.893915	-2.552651
N	0.312146	-1.550676	-1.974304
O	1.16219	-1.589329	-2.863256
O	-0.19024	-2.525503	-1.424023
H	-2.232128	0.0	0.0
