15

C	0.0	0.0	0.0
C	-0.388755	-0.018497	-1.525671
Cl	1.786521	0.0	0.0
H	0.543009	-0.052106	-2.097194
C	-0.4328	1.254779	0.62625
N	-0.502014	2.284876	1.197332
C	-0.512715	-1.099366	0.818186
N	-0.556751	-2.000713	1.582484
N	-1.130892	1.106478	-1.944948
H	-1.323891	1.03112	-2.936529
H	-2.000866	1.07361	-1.407938
N	-1.001494	-1.373407	-1.906081
O	-1.948977	-1.373046	-2.687099
O	-0.386915	-2.369356	-1.532971
H	-2.1443	0.0	0.0
