15

C	0.0	0.0	0.0
C	-0.316701	0.109559	-1.548147
Cl	1.790291	0.0	0.0
H	-1.361875	0.396257	-1.631395
C	-0.373024	1.207462	0.750058
N	-0.519394	2.147691	1.446994
C	-0.913861	-1.09655	0.456316
N	-0.901357	-2.230666	0.85111
N	-0.092114	-1.091058	-2.282576
H	0.844184	-1.436471	-2.11558
H	-0.757645	-1.771235	-1.945207
N	0.446014	1.242934	-2.164067
O	1.349287	0.993763	-2.965503
O	0.09174	2.371389	-1.825984
H	-2.077157	0.0	0.0
