15

C	0.0	0.0	0.0
C	-0.374102	-0.013858	-1.566215
Cl	1.779657	0.0	0.0
H	0.581264	0.011419	-2.091954
C	-0.543317	1.234729	0.566428
N	-0.576573	2.333921	1.008486
C	-0.463225	-1.133402	0.79468
N	-0.549066	-2.064683	1.516202
N	-1.194748	1.014205	-2.097266
H	-2.013181	1.070171	-1.489594
H	-0.684577	1.889867	-2.055302
N	-0.916944	-1.375018	-1.934522
O	-2.004663	-1.465784	-2.484806
O	-0.156253	-2.310881	-1.686474
H	-2.087035	0.0	0.0
