12
Coordinates from ORCA-job run
  C   -0.14261888315055     -0.00781950102886      0.00443574120026
  C   1.01600114489271      0.44313216158762     -0.54684982878718
  H   1.04261543335871      0.78196061820837     -1.57403541633685
  N   -0.26299173264994     -0.34593629990082      1.33079207997062
  H   0.59647438856343     -0.47972447426412      1.84355725692461
  H   -0.98681912705644     -1.00714252665796      1.55967713680006
  C   -1.41304947114119     -0.07676940102155     -0.78778536747641
  H   -1.25574945812139      0.25362388006272     -1.81375093066952
  H   -1.79428485540194     -1.10280326684416     -0.81302304265904
  H   -2.17969101906051      0.55200864164991     -0.32721466046256
  C   2.21032136515014      0.49116537236379      0.22052862816218
  N   3.16979221461696      0.49930479584507      0.90366840333383
