12
Coordinates from ORCA-job run
  C   -0.14212957743363     -0.00759214297248     -0.00713313272877
  C   1.07280097421396      0.27285616373255     -0.55023461341097
  H   1.20193851557405      0.30941342044300     -1.62374507677612
  N   -0.39043733921262      0.03762321398192      1.34318286586618
  H   0.41546015372972      0.05012282394872      1.95136049225765
  H   -1.15097319360459     -0.53058842570130      1.67803737556537
  C   -1.33722406494622     -0.29276035341949     -0.86522577364010
  H   -1.74775556091708     -1.28149450479044     -0.63679079814790
  H   -2.12124075656047      0.44516192981906     -0.67597446715988
  H   -1.07772303155444     -0.26668116698345     -1.92275148588313
  C   2.19314046664289      0.53300819519268      0.28363671471840
  N   3.08514341406842      0.73193084674923      1.02663789933928
