12
Coordinates from ORCA-job run
  C   -0.12899350676449     -0.06209746550636     -0.00634039278900
  C   1.06578315887798      0.27706287054485     -0.56018545591724
  H   1.17940529595056      0.33422263076747     -1.63451455532407
  N   -0.30478462332733     -0.25832744256847      1.34278974926472
  H   -1.23637333960210     -0.11279420387341      1.69601770339551
  H   0.42317914245054      0.09331589233247      1.94785806727489
  C   -1.33245887971461     -0.34839945732106     -0.85256854499352
  H   -1.11017131430458     -0.22028263223289     -1.91112509690311
  H   -1.67577398857121     -1.37253639935735     -0.68487140453916
  H   -2.15429549087523      0.32604777128684     -0.59125940020981
  C   2.19004047154808      0.55690023213830      0.26184970021614
  N   3.08444307433239      0.78588820378961      0.99334963052467
