12
Coordinates from ORCA-job run
  C   -0.08467567374748     -0.22214093528479      0.27753005173181
  C   1.25356753340391      0.00626503657077      0.23219872639764
  H   1.92705446663016     -0.49513549990755      0.92151653006964
  N   -0.65473085176870     -1.02978515166963      1.24031781269074
  H   -0.02764604121750     -1.65151419752151      1.72715545749996
  H   -1.52658179552341     -1.46482635904053      0.98432949186168
  C   -1.06578814624090      0.44543987387583     -0.63779575440254
  H   -1.61409973192994     -0.30407211768573     -1.21773785769639
  H   -0.57026724529738      1.12142449611216     -1.33262015783394
  H   -1.79341467574447      1.01181371824478     -0.05069101361546
  C   1.83411739796898      0.91711683678308     -0.68988193987098
  N   2.32246476346671      1.66641429952313     -1.45532134683216
