12
Coordinates from ORCA-job run
  C   -0.14186877782411      0.01093302161878     -0.01328905476167
  C   1.11317127441827      0.08278788073689     -0.53223835948421
  H   1.27612638897089     -0.00682677522683     -1.59808399369544
  N   -0.41935997742297      0.22634026172951      1.31554798868945
  H   0.36580189964885      0.20182967918112      1.95008836101362
  H   -1.25075561482569     -0.21413507219007      1.67411006779071
  C   -1.34022099302270     -0.21368471087330     -0.88470677401384
  H   -2.03612744118066      0.62412458157965     -0.79231892147912
  H   -1.05332598844290     -0.32090071811771     -1.92984625831275
  H   -1.87007433666190     -1.12188966415597     -0.58036623562547
  C   2.23362176938560      0.28527315231922      0.31725939916485
  N   3.12201179695732      0.44514836339871      1.07384378071387
