12
Coordinates from ORCA-job run
  C   -0.13350571796574     -0.04733568777054     -0.01360985388998
  C   1.07713163349398      0.28477846525754     -0.53681462550910
  H   1.17873785757339      0.52049440878039     -1.58782544386355
  N   -0.30325671782299     -0.46070059652570      1.28562731899336
  H   0.46162486171000     -0.28521855253969      1.92092978404951
  H   -1.21501214466159     -0.31357035135586      1.68634463594433
  C   -1.37078693160883     -0.08088385330750     -0.85873307634307
  H   -1.79875417423913     -1.08678937272813     -0.86084282845860
  H   -1.15460459490896      0.21191730399148     -1.88531984165039
  H   -2.12708057512328      0.60229926097039     -0.45913780299506
  C   2.23370576051893      0.31871813746434      0.28752629424734
  N   3.15280074303422      0.33729083776327      1.02385543947523
