12
Coordinates from ORCA-job run
  C   -0.13337084105907     -0.04826710295354     -0.01532818892850
  C   1.09472926596531      0.26533528479605     -0.50830980822237
  H   1.23858131127692      0.42930832084966     -1.56793003930464
  N   -0.35430986049580     -0.37521002009019      1.30123008259494
  H   0.38038313344066     -0.14217305761076      1.95352343703679
  H   -1.28308470332536     -0.20819586199876      1.65223616765989
  C   -1.33151436777799     -0.16015006512731     -0.90861136123357
  H   -1.74351275277219     -1.17141797439184     -0.85874545244518
  H   -2.11497799267562      0.53524515967358     -0.59113751017094
  H   -1.07432995446183      0.06449317587639     -1.94291794809122
  C   2.21581673501885      0.36759121502228      0.35820128272596
  N   3.10559002686611      0.44544092595445      1.12578933837884
