12
Coordinates from ORCA-job run
  C   -0.09336316716895     -0.16810024995237      0.31049056870553
  C   1.25700656754175     -0.13152812241811      0.16815441616622
  H   1.90812230967770     -0.51207913395580      0.95012913226459
  N   -0.69590435960027     -0.75682201178631      1.40356496571746
  H   -0.10780533175080     -0.90564131312254      2.20895755739649
  H   -1.61019858460128     -0.40518181299779      1.63896639990059
  C   -1.04607055246991      0.33024716272800     -0.73349894847657
  H   -0.51999702899776      0.72346662908993     -1.60172399126688
  H   -1.67646282299873      1.12545768404152     -0.32271922238391
  H   -1.70174759760574     -0.48317010345765     -1.05504717504472
  C   1.88100517740939      0.37874068246537     -1.00104200904687
  N   2.40441539056462      0.80561058936574     -1.96523169393194
