12
Coordinates from ORCA-job run
  C   -0.08552312092925     -0.14671414204780      0.32306528093170
  C   1.25117567040955      0.07716268275219      0.23291393922172
  H   1.90418025284920     -0.11626124298962      1.07938788557848
  N   -0.65802108281940     -0.69810146922080      1.45086642741668
  H   -0.10057338895444     -0.67311872666356      2.29057958859989
  H   -1.62527554079021     -0.46485309921805      1.60823555643921
  C   -1.03916576303034      0.08877236337350     -0.80867885822252
  H   -1.55005348296378     -0.84393736880666     -1.06209489472155
  H   -1.80107441986361      0.81908781115731     -0.51755618795952
  H   -0.52657007241980      0.46250209793745     -1.69352249740316
  C   1.86044163049413      0.54943044930788     -0.95978378948941
  N   2.37045931801795      0.94703064441817     -1.94341245039152
