12
Coordinates from ORCA-job run
  C   -0.07097628046786     -0.21440485647234      0.28700211624234
  C   1.26245829036546      0.02100563722917      0.17870875291904
  H   1.95560089407918     -0.35713086321333      0.92490555321396
  N   -0.59329581207053     -1.00336260664184      1.29113129307480
  H   0.00515948651814     -1.16844897765072      2.08555214209589
  H   -1.54907957486053     -0.81158058726287      1.54510011765488
  C   -1.07726185831177      0.27036294954075     -0.71225063551393
  H   -0.60538586185926      0.83223038385804     -1.51651693478013
  H   -1.81358740179215      0.91767516627317     -0.22502129326999
  H   -1.61280704970382     -0.58051094681068     -1.14139964025106
  C   1.81680190796907      0.74472081458157     -0.91011146544001
  N   2.28237326013409      1.34844388656908     -1.80710000594578
