12
Coordinates from ORCA-job run
  C   -0.16688888176863      0.15246008889926      0.28638891251115
  C   1.18194005908545      0.27158926310280      0.39408230345426
  H   1.63122665405097      0.70906542090508      1.28092721466782
  N   -1.02189706507410      0.65455938462964      1.24579677726297
  H   -0.61234435671848      0.86271192243673      2.14319996575272
  H   -1.91908169893554      0.20131481012615      1.31238259887926
  C   -0.84981490305217     -0.43658392200211     -0.91040725659832
  H   -0.13267977609712     -0.76474659633528     -1.66070194920362
  H   -1.51732625496481      0.30428154985785     -1.35831830720422
  H   -1.45723796398360     -1.29765925782291     -0.61400479717323
  C   2.06395011765139     -0.15067238007153     -0.63568375272342
  N   2.80115406980666     -0.50432028372568     -1.48266170962538
