12
Coordinates from ORCA-job run
  C   -0.08396221272851     -0.22203548539394      0.27737984337268
  C   1.26260133777778     -0.12936803253856      0.12461070379845
  H   1.93595782955202     -0.62426814137862      0.81872211428927
  N   -0.65441427715664     -1.00656268201273      1.25836213124069
  H   -0.04929206211781     -1.28678676725998      2.01440540813330
  H   -1.57260219299929     -0.72725999621028      1.56399186633924
  C   -1.06545607177688      0.42971222599851     -0.64885122937162
  H   -1.70948864222447     -0.32959042503791     -1.10012398148911
  H   -1.70489893281470      1.12472126974827     -0.09508846411911
  H   -0.56331784603355      0.98264668856159     -1.44092426347709
  C   1.85435984794065      0.59282242171256     -0.94549073467348
  N   2.35051322258141      1.19496892381109     -1.82699339404323
