12
Coordinates from ORCA-job run
  C   -0.11065373332753     -0.10274223680159      0.33246460221259
  C   1.11617499879344      0.47753556403976      0.39040339786223
  H   1.66251373678861      0.52958546237200      1.32791049529732
  N   -0.74915657741839     -0.57303543643539      1.46141010229803
  H   -1.41743915945746     -1.31146217702196      1.31093301869013
  H   -0.17061140308511     -0.71711797166372      2.27435373483164
  C   -0.91824315253194     -0.19910770227378     -0.92632987967321
  H   -1.13058167637563     -1.24714902064981     -1.16099975581875
  H   -1.87431383461307      0.31384907695167     -0.79324067654019
  H   -0.39559073067413      0.24274570085894     -1.77297291532464
  C   1.73384481853390      1.05565054785961     -0.75025761061496
  N   2.25305671336731      1.53124819276426     -1.69367451322017
