12
Coordinates from ORCA-job run
  C   -0.13709278928920     -0.03846839802938     -0.00931377249276
  C   1.12399261172831      0.02402857082895     -0.51475555951049
  H   1.29757887198802     -0.06637610501157     -1.57876329364055
  N   -0.40805111820261     -0.03965925572395      1.33762697404502
  H   -1.31695112670411      0.29533219450149      1.61175756629616
  H   0.34093893437951      0.24782723052550      1.95069392660885
  C   -1.33090259423249     -0.21140852603865     -0.89870664479352
  H   -2.02678742504064      0.62447511426840     -0.77431051035681
  H   -1.03792879786699     -0.25787638450608     -1.94672938710188
  H   -1.86399105879654     -1.12984497183335     -0.63951291347364
  C   2.23882763835983      0.19892942811057      0.34821352842789
  N   3.12036685367689      0.35404110290809      1.11380008599174
