12
Coordinates from ORCA-job run
  C   -0.14094030093749      0.00937194905761     -0.02179637597472
  C   1.14479631885329      0.07217850979522     -0.46055250265945
  H   1.37619157838487     -0.04835447559461     -1.51047017000899
  N   -0.50514322165859      0.26273573018129      1.27884916542023
  H   -1.35710129385093     -0.17025266842734      1.59577857598762
  H   0.23665485517958      0.26282105208428      1.96406385588780
  C   -1.27887893113974     -0.24869943764838     -0.96212917117340
  H   -0.92411837231006     -0.38256694467560     -1.98321507899906
  H   -1.82369047461507     -1.15124348256083     -0.66722883059096
  H   -1.98294972814187      0.58716719719304     -0.93991652155072
  C   2.20826541058498      0.30822416169062      0.45135316314025
  N   3.04791415965102      0.49761840890470      1.25526389052142
