12
Coordinates from ORCA-job run
  C   -0.08375099088914     -0.13471288823772      0.32904192832117
  C   1.26209576864583     -0.10653783205725      0.14673734664879
  H   1.93300464992027     -0.51303209645219      0.89824945423904
  N   -0.65207713568804     -0.59865614387157      1.49759046014257
  H   -1.58872630423518     -0.95980556703940      1.41421768804837
  H   -0.05950915388701     -1.16094180505547      2.08872945467704
  C   -1.06166827587322      0.41653235484290     -0.66391001561907
  H   -1.66061866289821      1.20255926039305     -0.19666040730193
  H   -1.74499460110299     -0.37002946116652     -0.99990807002239
  H   -0.55780481637353      0.82863946262965     -1.53655341704167
  C   1.85701230463459      0.46471889654452     -1.00940232610485
  N   2.35603721774664      0.93126581947002     -1.96813209598706
