12
Coordinates from ORCA-job run
  C   -0.13830010543619     -0.03178760233241     -0.01778905330330
  C   1.15176428408208     -0.02149063466276     -0.44811166714393
  H   1.38225359543955     -0.09672326157321     -1.50251850815384
  N   -0.48782916659364     -0.05094471870606      1.31105387517537
  H   -1.39230886182354      0.32684102420827      1.54085500843056
  H   0.23789502503137      0.18465475753331      1.97245969285313
  C   -1.28479205188976     -0.12344893049131     -0.97869151589749
  H   -0.93387227953626     -0.15495650895520     -2.00933350092375
  H   -1.87446651752110     -1.02173286744877     -0.77782367986595
  H   -1.94717750365924      0.74133243520227     -0.86894019124374
  C   2.22204399931290      0.07760335934562      0.48066296813637
  N   3.06478958259383      0.17065294788023      1.29817657193657
