12
Coordinates from ORCA-job run
  C   -0.13841913606629     -0.03057043163560     -0.01772972956903
  C   1.12892080709397      0.09121886902839     -0.49606667436048
  H   1.30915016129854      0.22546988358914     -1.55425096758809
  N   -0.42199304963656     -0.31100168138228      1.29716007084454
  H   0.33139356885649     -0.19328424935125      1.95873803285754
  H   -1.32008583814914     -0.00728654763550      1.63573109528103
  C   -1.32907039274486      0.03653941382892     -0.92547212689622
  H   -2.00070573528005      0.84483699330294     -0.61911704713131
  H   -1.02823412785793      0.21667209069835     -1.95661007460937
  H   -1.89141979722810     -0.89953649780215     -0.87916295135898
  C   2.24052200450091      0.03635364501899      0.38668663511569
  N   3.11894153521302     -0.00841148765995      1.17009373741469
