12
Coordinates from ORCA-job run
  C   -0.07455492597977     -0.18178835420199      0.30782297279555
  C   1.26247950926482      0.01895145140472      0.17695430597562
  H   1.94955707812969     -0.28933777315812      0.95993519459966
  N   -0.60899410588637     -0.85220140071918      1.38899142776046
  H   -1.56086393022228     -0.61791883203291      1.62099250523805
  H   -0.01242544841707     -0.94137830014516      2.19689472862946
  C   -1.07318908088968      0.21023888528204     -0.73872976495975
  H   -1.80294463133327      0.91244025020683     -0.32312839726607
  H   -0.59269182011349      0.68082955656337     -1.59483317606239
  H   -1.61749397838095     -0.67418450716140     -1.08001704116309
  C   1.82818419680573      0.61649094799043     -0.98045320685549
  N   2.30293713702264      1.11685807597134     -1.93442954869202
