12
Coordinates from ORCA-job run
  C   -0.09911886108056     -0.13236533416144      0.32555430339650
  C   1.25347912867547     -0.04659824311979      0.23280082313915
  H   1.88465093229716     -0.29018834175611      1.08273120911208
  N   -0.72388727909019     -0.60476755870260      1.46106805245917
  H   -0.16816270295398     -0.62444606246011      2.30212383853072
  H   -1.66479208957834     -0.27852308608839      1.61152773247587
  C   -1.02529326461410      0.18254944379182     -0.80995283950938
  H   -1.63824426649745     -0.69256525797967     -1.04070418108071
  H   -1.69948050089504      0.99973066948891     -0.53415131424084
  H   -0.47802648366473      0.47588727398765     -1.70410481690943
  C   1.90539560186892      0.34132907745482     -0.96761513501805
  N   2.45047978553283      0.66895741954491     -1.95827767235507
