12
Coordinates from ORCA-job run
  C   -0.14145463743783      0.00797890091924     -0.01636602004724
  C   1.12655733212646      0.07773184830170     -0.50316350962334
  H   1.31904987311930     -0.04387995680430     -1.56073668826386
  N   -0.45828803674339      0.26193982624155      1.29620630875871
  H   0.30791475371433      0.27042871781139      1.95367745941684
  H   -1.29719417994852     -0.17136912323304      1.64580202779598
  C   -1.31204810029120     -0.25831534696748     -0.91357149326734
  H   -0.99365318759937     -0.39807678108838     -1.94577412267394
  H   -1.84351183835548     -1.16036538721616     -0.59402056574808
  H   -2.01705965182523      0.57597411455477     -0.87097882501033
  C   2.22166218705229      0.32140086985942      0.36823441821490
  N   3.08802548618866      0.51755231762129      1.14169101044771
