12
Coordinates from ORCA-job run
  C   -0.06669200222026     -0.21849575996420      0.28474637559818
  C   1.26512331238191      0.01581361531272      0.15720501605330
  H   1.96990130069859     -0.37434996441633      0.88612499261206
  N   -0.57370868005238     -1.02106209546099      1.28648721802260
  H   -1.52302036059792     -0.82615995214007      1.56162443685616
  H   0.03818907139813     -1.19571768787980      2.06870537789598
  C   -1.08897336142759      0.28126714433380     -0.69062518434464
  H   -0.62912389372705      0.84930066862766     -1.49755970911323
  H   -1.81389786705563      0.92631219916926     -0.18384828619870
  H   -1.63511103608379     -0.56339262094216     -1.11850775535782
  C   1.80235100038789      0.75488296404356     -0.93003437419708
  N   2.25396251629812      1.37160148931655     -1.82531810782680
