12
Coordinates from ORCA-job run
  C   -0.13656089919822     -0.04177953810057     -0.01248414995299
  C   1.14274358423287      0.00724187413068     -0.47127189289177
  H   1.35773245368056     -0.12142738939382     -1.52373481486490
  N   -0.45904389509469      0.00752527309943      1.32281830921680
  H   -1.37835351535929      0.35256331129596      1.54589713722484
  H   0.26415009795057      0.33117160246590      1.94879633567881
  C   -1.29470847047744     -0.25297760665084     -0.94011076237237
  H   -0.96062641354326     -0.34685237586212     -1.97261076167796
  H   -1.99127853199362      0.58977826107318     -0.88038788158737
  H   -1.84166808904387     -1.15769904758602     -0.66189532304809
  C   2.22283986634431      0.22123928854681      0.42642742407427
  N   3.07377381250208      0.41021634698140      1.21855638020071
