16

C	-0.29039	-0.058748	-1.487057
C	0.0	0.0	0.0
Br	-2.240487	-0.294125	-1.857627
H	1.096816	0.0	0.0
H	-0.092827	0.915291	-1.933894
N	0.43931	-1.161026	-2.045895
H	1.389465	-1.123825	-1.673635
H	0.488046	-1.065443	-3.052107
C	-0.511309	-1.164074	0.81331
H	-0.043786	-1.161538	1.797352
H	-0.236385	-2.08193	0.29194
H	-1.594412	-1.127905	0.931855
N	-0.439066	1.311999	0.55924
O	-0.93815	1.323805	1.684803
O	-0.245618	2.318418	-0.122099
Cl	3.282489	0.0	0.0
