16

C	-0.48153	-0.039779	-1.441641
C	0.0	0.0	0.0
Br	0.030658	1.703343	-2.335775
H	1.089806	0.0	0.0
H	0.159427	-0.748673	-1.966181
N	-1.846027	-0.374657	-1.614953
H	-2.085679	-0.40932	-2.596668
H	-2.426029	0.306823	-1.142009
C	-0.463685	-1.225676	0.778886
H	-0.099101	-2.12099	0.271674
H	-1.550387	-1.275084	0.849213
H	-0.015259	-1.199366	1.774661
N	-0.517446	1.202467	0.715861
O	0.242943	1.822332	1.447875
O	-1.719079	1.465785	0.570876
Cl	3.38042	0.0	0.0
