16

C	-0.289516	-0.057195	-1.487161
C	0.0	0.0	0.0
Br	-2.241487	-0.288057	-1.855767
H	1.096821	0.0	0.0
H	-0.088818	0.9161	-1.934557
N	0.435171	-1.162833	-2.046599
H	0.483514	-1.067897	-3.052754
H	1.385823	-1.127521	-1.676025
C	-0.510893	-1.165984	0.811543
H	-1.593509	-1.12706	0.934787
H	-0.03931	-1.168579	1.7936
H	-0.24117	-2.082782	0.285454
N	-0.438673	1.311342	0.563081
O	-0.263547	2.317278	-0.12242
O	-0.91638	1.321915	1.697079
Cl	3.2799	0.0	0.0
