16

C	-0.515524	0.02035	-1.429799
C	0.0	0.0	0.0
Br	-0.145189	-1.803539	-2.280359
H	1.092017	0.0	0.0
H	-1.604788	0.05315	-1.46453
N	0.056026	1.099197	-2.118436
H	-0.245717	1.161144	-3.080566
H	1.069517	1.092999	-2.048584
C	-0.544966	-1.103143	0.885043
H	-1.635278	-1.147787	0.83987
H	-0.122298	-2.057896	0.576829
H	-0.237334	-0.915699	1.916433
N	-0.467703	1.314585	0.571899
O	-1.689429	1.45751	0.686759
O	0.366894	2.152081	0.888929
Cl	3.34908	0.0	0.0
