16

C	-0.498422	-0.015744	-1.450856
C	0.0	0.0	0.0
Br	-0.012881	1.681642	-2.31163
H	1.090235	0.0	0.0
H	0.110896	-0.762535	-1.965168
N	-1.891273	-0.280232	-1.707168
H	-2.449108	0.283911	-1.076475
H	-2.081876	-1.257949	-1.523221
C	-0.475107	-1.229529	0.760142
H	-0.03197	-1.227816	1.758255
H	-1.562483	-1.262409	0.847712
H	-0.116996	-2.125486	0.246473
N	-0.509426	1.20511	0.716518
O	-1.740408	1.351176	0.744499
O	0.288822	1.966253	1.24742
Cl	3.383692	0.0	0.0
