14

C	-0.588801	0.026699	-1.388712
C	0.0	0.0	0.0
Br	0.041373	1.605467	-2.337808
H	1.088406	0.0	0.0
H	-0.356744	-0.886953	0.527498
H	-0.346123	0.891335	0.528805
N	-0.161684	-1.207787	-2.190183
O	0.214899	-2.176679	-1.541791
O	-0.334861	-1.186328	-3.403385
C	-2.109304	0.006657	-1.419285
H	-2.494782	0.862413	-0.863993
H	-2.475761	0.04672	-2.444488
H	-2.460102	-0.913912	-0.94218
Br	3.685997	0.0	0.0
