17

C	-0.702376	0.115277	-1.345999
C	0.0	0.0	0.0
Cl	-0.225935	-1.250886	-2.377869
H	1.087985	0.0	0.0
N	-2.118521	0.129052	-1.223201
H	-2.535072	0.115434	-2.146079
H	-2.371791	1.01016	-0.788722
N	-0.194155	1.348146	-2.155997
O	0.989375	1.623541	-2.094258
O	-1.03842	1.91716	-2.84667
N	-0.339576	-1.234206	0.625513
H	0.400374	-1.469316	1.27189
H	-1.234366	-1.210793	1.095124
N	-0.40565	1.178866	0.83625
O	-0.772008	2.217963	0.266686
O	-0.308152	1.071049	2.056655
F	2.499777	0.0	0.0
