17

C	-0.568232	-0.040961	-1.4085
C	0.0	0.0	0.0
Cl	0.295268	-1.317258	-2.312548
H	1.087341	0.0	0.0
N	-1.958419	-0.317076	-1.469409
H	-2.2551	-0.337297	-2.437834
H	-2.429823	0.447336	-0.996792
N	-0.210089	1.251741	-2.196018
O	0.761045	1.896451	-1.841809
O	-0.936339	1.501011	-3.157109
N	-0.370533	-1.161622	0.760369
H	-1.10503	-1.689902	0.309044
H	0.463336	-1.72131	0.877191
N	-0.519287	1.209885	0.716192
O	-0.09542	1.410985	1.844132
O	-1.345375	1.945359	0.146366
F	2.523133	0.0	0.0
