17

C	-0.663771	-0.050349	-1.37014
C	0.0	0.0	0.0
Cl	0.072637	-1.484566	-2.252782
H	1.094732	0.0	0.0
N	-2.057188	-0.126285	-1.250559
H	-2.512233	-0.197097	-2.150648
H	-2.258837	-0.928063	-0.663807
N	-0.29537	1.103317	-2.298396
O	-1.193178	1.5145	-3.032236
O	0.864673	1.472184	-2.30007
N	-0.422656	-1.183382	0.736955
H	-0.816191	-0.869446	1.616913
H	0.433831	-1.678544	0.962271
N	-0.461755	1.228302	0.696348
O	-0.684788	1.16796	1.909898
O	-0.547147	2.263937	0.038662
F	2.501385	0.0	0.0
