17

C	-0.646765	-0.072302	-1.373975
C	0.0	0.0	0.0
Cl	-0.020121	-1.498306	-2.231352
H	1.103127	0.0	0.0
N	-2.064703	-0.148785	-1.326267
H	-2.398748	0.743574	-0.97741
H	-2.423854	-0.266765	-2.265748
N	-0.177686	1.106463	-2.282639
O	0.942265	1.554467	-2.116955
O	-0.981633	1.461512	-3.144719
N	-0.326954	-1.163723	0.757125
H	0.394219	-1.300389	1.450922
H	-1.240995	-1.121165	1.186838
N	-0.45673	1.250917	0.683326
O	-0.287086	1.320335	1.898968
O	-0.956815	2.165637	0.009305
F	2.497426	0.0	0.0
