17

C	-0.192482	0.277221	-1.507852
C	0.0	0.0	0.0
Cl	-1.738219	1.082773	-1.895824
H	1.103212	0.0	0.0
N	0.904509	0.972854	-2.101057
H	1.738851	0.637501	-1.582361
H	0.799618	1.945977	-1.838653
N	-0.225449	-1.130313	-2.143174
O	0.875136	-1.646704	-2.267309
O	-1.299018	-1.640096	-2.433495
N	-0.593357	-1.191618	0.47177
H	-1.5638	-1.055557	0.725154
H	-0.083007	-1.523204	1.278239
N	-0.395361	1.229973	0.770468
O	-1.099625	1.082501	1.773617
O	0.032954	2.317116	0.38523
F	2.577113	0.0	0.0
