17

C	-0.195259	0.110217	-1.508148
C	0.0	0.0	0.0
Cl	0.482266	1.629624	-2.09674
H	1.097853	0.0	0.0
N	0.514266	-0.972834	-2.141417
H	1.475666	-0.833093	-1.80575
H	0.1914	-1.806943	-1.653621
N	-1.660977	0.01175	-1.952356
O	-2.146745	0.826632	-2.720759
O	-2.253973	-0.961606	-1.484159
N	-0.359575	-1.277079	0.539386
H	0.227313	-1.455394	1.343279
H	-1.339495	-1.354504	0.777577
N	-0.612869	1.113033	0.77639
O	-1.418546	1.863836	0.216767
O	-0.318764	1.175224	1.970413
F	2.557603	0.0	0.0
