17

C	-0.575784	-0.05331	-1.404639
C	0.0	0.0	0.0
Cl	0.296492	-1.321244	-2.310976
H	1.095806	0.0	0.0
N	-1.963601	-0.347016	-1.454119
H	-2.441075	0.419631	-0.989354
H	-2.264987	-0.379959	-2.420746
N	-0.240545	1.242009	-2.198778
O	-0.987184	1.489337	-3.14554
O	0.734919	1.890934	-1.862628
N	-0.360177	-1.160622	0.768009
H	-1.097091	-1.692776	0.324345
H	0.476025	-1.717933	0.879762
N	-0.526911	1.208352	0.711436
O	-1.354995	1.93907	0.136262
O	-0.106048	1.415964	1.840051
F	2.5199	0.0	0.0
