17

C	-0.170795	0.40115	-1.486531
C	0.0	0.0	0.0
Cl	-1.670534	1.372152	-1.847237
H	1.105924	0.0	0.0
N	0.980011	1.043463	-1.892983
H	1.107082	1.067778	-2.893396
H	1.808334	0.717753	-1.344861
N	-0.426711	-0.967126	-2.253193
O	0.588022	-1.503187	-2.682762
O	-1.560441	-1.416787	-2.334365
N	-0.571765	-1.241287	0.360067
H	-0.042633	-1.621689	1.133926
H	-1.536412	-1.122997	0.643036
N	-0.464478	1.156612	0.848122
O	-1.483907	0.989695	1.524867
O	0.193421	2.189246	0.820724
F	2.629819	0.0	0.0
