17

C	-0.598409	0.076064	-1.387054
C	0.0	0.0	0.0
Cl	-2.463666	0.16337	-1.188888
H	1.10385	0.0	0.0
N	-0.08876	1.05534	-2.231001
H	-0.666181	1.206487	-3.045299
H	0.138559	1.897037	-1.721469
N	-0.365593	-1.243979	-2.142079
O	0.544073	-1.962411	-1.764081
O	-1.035601	-1.399947	-3.159886
N	-0.462091	-1.156611	0.691945
H	0.317177	-1.515201	1.228126
H	-1.222983	-0.929735	1.317427
N	-0.337642	1.268182	0.736074
O	-0.796888	1.181182	1.875036
O	-0.079676	2.34857	0.195387
F	2.491122	0.0	0.0
