17

C	-0.544994	0.144142	-1.412902
C	0.0	0.0	0.0
Cl	0.373104	1.276151	-2.414413
H	1.095281	0.0	0.0
N	-0.566589	-1.117865	-2.034234
H	-0.856976	-1.818532	-1.361962
H	-1.067575	-1.114661	-2.911039
N	-2.027895	0.68479	-1.355444
O	-2.673574	0.305002	-0.378352
O	-2.494564	1.286141	-2.314816
N	-0.384791	-1.242653	0.606425
H	0.407963	-1.566963	1.146131
H	-1.18022	-1.118064	1.219724
N	-0.380516	1.171348	0.833711
O	-0.506639	2.263832	0.281637
O	-0.484532	0.995471	2.048947
F	2.499035	0.0	0.0
