17

C	-0.590471	-0.050775	-1.399244
C	0.0	0.0	0.0
Cl	0.278157	-1.304699	-2.32496
H	1.104736	0.0	0.0
N	-1.976671	-0.351684	-1.428812
H	-2.453443	0.414309	-0.966537
H	-2.290877	-0.392286	-2.389717
N	-0.273577	1.255181	-2.18664
O	-1.09212	1.571385	-3.048201
O	0.765805	1.840824	-1.930087
N	-0.351682	-1.165331	0.765211
H	0.496805	-1.700016	0.899601
H	-1.055325	-1.724551	0.303052
N	-0.528369	1.197121	0.719933
O	-1.345409	1.937859	0.147304
O	-0.119052	1.390137	1.854368
F	2.518637	0.0	0.0
