17

C	-0.673613	-0.083095	-1.360704
C	0.0	0.0	0.0
Cl	0.185993	-1.412078	-2.287866
H	1.095748	0.0	0.0
N	-2.052036	-0.305154	-1.224449
H	-2.504555	-0.412589	-2.121647
H	-2.150456	-1.140073	-0.657473
N	-0.442919	1.128018	-2.259467
O	0.679439	1.600512	-2.28425
O	-1.398682	1.486234	-2.943754
N	-0.355083	-1.204302	0.740881
H	-0.837789	-0.924039	1.587676
H	0.530706	-1.603239	1.03568
N	-0.485104	1.205207	0.721498
O	-0.729872	2.22122	0.070601
O	-0.567256	1.145616	1.952684
F	2.497541	0.0	0.0
