17

C	-0.13736	0.316782	-1.530809
C	0.0	0.0	0.0
Cl	-1.652639	1.151093	-1.976694
H	1.103383	0.0	0.0
N	0.992789	0.994863	-2.065251
H	0.888126	1.970198	-1.809675
H	1.805613	0.648546	-1.511002
N	-0.186112	-1.084999	-2.173861
O	-1.272874	-1.63895	-2.313546
O	0.904854	-1.588314	-2.410238
N	-0.557817	-1.179611	0.541416
H	0.088743	-1.944281	0.414433
H	-1.4728	-1.410782	0.180105
N	-0.48334	1.209139	0.728386
O	-1.416967	1.094326	1.520091
O	0.07363	2.27635	0.46148
F	2.603108	0.0	0.0
