18

C	0.0	0.0	0.0
C	-0.256227	0.019444	-1.5782
Br	1.944076	0.0	0.0
H	0.496325	-0.637111	-2.002473
C	-0.283812	1.196498	0.913245
H	0.186271	0.996197	1.877042
H	-1.35227	1.334292	1.045062
H	0.151603	2.099146	0.487086
N	-0.586999	-1.238887	0.528306
O	-0.641406	-1.36162	1.771032
O	-0.566542	-2.225917	-0.257335
N	0.083548	1.389677	-2.107139
O	1.058535	1.504606	-2.84693
O	-0.687396	2.303012	-1.814852
N	-1.508058	-0.312158	-2.198864
H	-1.614599	-1.307437	-2.03244
H	-2.232148	0.124723	-1.628984
H	-2.135714	0.0	0.0
