18

C	0.0	0.0	0.0
C	-0.223087	-0.09222	-1.54715
Br	1.952728	0.0	0.0
H	0.489938	-0.822746	-1.912088
C	-0.236598	1.226729	0.897822
H	0.267684	2.091674	0.472668
H	0.214051	0.986102	1.863565
H	-1.291132	1.44091	1.033117
N	-0.468782	-1.248661	0.627005
O	-0.569473	-1.27005	1.867067
O	-0.407494	-2.272489	-0.078366
N	0.273755	1.209052	-2.207012
O	0.962341	1.068216	-3.219343
O	-0.168668	2.292331	-1.820345
N	-1.482132	-0.412205	-2.117237
H	-2.207397	0.195488	-1.767466
H	-1.39416	-0.414093	-3.126892
H	-1.975722	0.0	0.0
