18

C	0.0	0.0	0.0
C	-0.312766	-0.105316	-1.54626
Br	1.955574	0.0	0.0
H	0.561902	-0.55189	-2.018036
C	-0.253192	1.328716	0.734425
H	-1.314846	1.553806	0.806533
H	0.256863	2.141033	0.217063
H	0.170621	1.224542	1.732757
N	-0.623345	-1.113843	0.716204
O	-0.640133	-1.041353	1.968542
O	-0.606219	-2.233598	0.107973
N	-0.299466	1.311067	-2.111935
O	0.684206	1.629777	-2.785827
O	-1.25939	2.039012	-1.890411
N	-1.536304	-0.722492	-2.004263
H	-1.75923	-1.441682	-1.322665
H	-1.305703	-1.207249	-2.87119
H	-1.937203	0.0	0.0
