18

C	0.0	0.0	0.0
C	-0.253392	0.047267	-1.576803
Br	1.944737	0.0	0.0
H	0.489956	-0.614754	-2.00849
C	-0.282108	1.181122	0.935732
H	-1.351048	1.31086	1.077901
H	0.194816	0.96578	1.892966
H	0.145085	2.09276	0.520865
N	-0.597092	-1.242393	0.505554
O	-0.579146	-2.218357	-0.296657
O	-0.644785	-1.386983	1.747582
N	0.102969	1.419393	-2.08711
O	-0.655462	2.339186	-1.779288
O	1.07559	1.532131	-2.830806
N	-1.508453	-0.261794	-2.204539
H	-2.231923	0.196575	-1.652525
H	-1.635596	-1.254207	-2.028295
H	-2.114089	0.0	0.0
