18

C	0.0	0.0	0.0
C	-0.741288	-0.001123	-1.300622
Br	1.93321	0.0	0.0
H	-1.882763	-0.234521	-0.860782
C	-0.476589	1.176075	0.827311
H	-0.056179	1.121516	1.830123
H	-0.179315	2.096595	0.329137
H	-1.572612	1.106066	0.864801
N	-0.395219	-1.261302	0.82715
O	-1.162674	-2.075675	0.335998
O	0.053605	-1.309294	1.969561
N	-0.273997	-0.997928	-2.255455
O	0.359076	-1.978489	-1.843881
O	-0.562486	-0.830043	-3.455348
N	-0.806029	1.313087	-1.901439
H	-1.756283	1.643645	-1.749203
H	-0.693142	1.182824	-2.900701
H	-2.988175	0.0	0.0
