18

C	0.0	0.0	0.0
C	-0.506176	-0.217123	-1.432097
Br	2.002915	0.0	0.0
H	-0.111517	0.659527	-1.965835
N	-0.549977	1.142267	0.575745
H	-0.240768	1.305364	1.52261
H	-0.467465	1.959123	-0.010264
N	-0.324135	-1.150781	0.954699
O	-0.223456	-0.902068	2.150142
O	-0.638138	-2.231608	0.472362
C	-2.033855	-0.184656	-1.485524
H	-2.495579	-0.968097	-0.885818
H	-2.347118	-0.33048	-2.523233
H	-2.467741	0.745413	-1.124856
N	0.112704	-1.38018	-2.059543
H	-0.405017	-2.204558	-1.780747
H	0.011326	-1.278856	-3.062218
Cl	-5.198774	0.0	0.0
