18

C	0.0	0.0	0.0
C	-0.456854	-0.005464	-1.47061
Br	1.937933	0.0	0.0
H	0.01854	0.903079	-1.856272
N	-0.498556	1.117715	0.699716
H	-0.202261	1.083796	1.667783
H	-1.515712	1.118087	0.661838
N	-0.367251	-1.318728	0.752079
O	-0.779458	-2.277787	0.109531
O	-0.223367	-1.286803	1.969676
C	-1.965766	0.129128	-1.634877
H	-2.527906	-0.667497	-1.149584
H	-2.184688	0.093264	-2.706377
H	-2.372623	1.06318	-1.248349
N	0.127582	-1.125652	-2.206557
H	-0.464547	-1.935133	-2.07803
H	0.109224	-0.886285	-3.190068
Cl	-4.845246	0.0	0.0
