18

C	0.0	0.0	0.0
C	-0.499199	-0.30081	-1.433381
Br	1.951892	0.0	0.0
H	-0.377166	0.665654	-1.942092
N	-0.516511	1.177677	0.590595
H	-0.579567	1.91262	-0.101715
H	-1.429492	1.012086	1.00218
N	-0.365031	-1.179397	0.917464
O	-0.877626	-0.930067	2.00132
O	-0.104201	-2.30005	0.4908
C	-1.978724	-0.671692	-1.413153
H	-2.111551	-1.679828	-1.014638
H	-2.358297	-0.677468	-2.438824
H	-2.639868	-0.017597	-0.843255
N	0.338334	-1.247019	-2.166627
H	0.228772	-2.160417	-1.740628
H	-0.035911	-1.307636	-3.107699
Cl	-4.986932	0.0	0.0
