18

C	0.0	0.0	0.0
C	-0.426561	-0.046523	-1.48649
Br	2.013448	0.0	0.0
H	0.391639	-0.541362	-2.013654
N	-0.597886	0.994987	0.75656
H	-0.480802	0.808416	1.745499
H	-1.60423	0.999184	0.560022
N	-0.227914	-1.441097	0.605124
O	-0.84197	-1.481844	1.666606
O	0.237057	-2.39348	0.003561
C	-0.568091	1.380033	-2.026803
H	0.319855	1.986623	-1.825334
H	-1.440241	1.869346	-1.589847
H	-0.717031	1.328794	-3.109644
N	-1.587265	-0.902852	-1.649832
H	-1.834275	-0.919651	-2.632556
H	-2.408252	-0.555175	-1.145438
Cl	-4.108324	0.0	0.0
