18

C	0.0	0.0	0.0
C	-0.39225	0.124029	-1.5229
Br	1.953675	0.0	0.0
H	0.393247	-0.402507	-2.069645
N	-0.566086	0.880425	0.943517
H	-1.560067	0.656283	1.04714
H	-0.478113	1.831586	0.608917
N	-0.340341	-1.438086	0.443701
O	-0.005904	-2.330749	-0.329039
O	-0.906336	-1.591903	1.515801
C	-0.385502	1.598591	-1.913804
H	0.509673	2.124285	-1.57322
H	-1.274218	2.088887	-1.507602
H	-0.444356	1.666254	-3.000583
N	-1.645056	-0.454386	-1.920357
H	-2.447333	-0.111396	-1.386935
H	-1.624045	-1.460083	-1.80992
Cl	-4.118261	0.0	0.0
