18

C	0.0	0.0	0.0
C	-0.43139	-0.00292	-1.489366
Br	2.013719	0.0	0.0
H	0.395698	-0.46269	-2.032877
N	-0.602474	0.958894	0.795429
H	-0.546145	0.689999	1.771073
H	-1.597042	1.007314	0.554151
N	-0.218089	-1.465021	0.554197
O	0.25869	-2.39219	-0.075796
O	-0.833058	-1.549629	1.612292
C	-0.602521	1.437449	-1.981685
H	0.27274	2.0549	-1.758551
H	-1.486408	1.892744	-1.532252
H	-0.751732	1.417565	-3.065598
N	-1.569978	-0.877465	-1.678888
H	-1.735059	-0.99823	-2.670435
H	-2.427186	-0.531401	-1.243239
Cl	-4.06299	0.0	0.0
