17

C	0.0	0.0	0.0
C	-0.255911	-0.066456	-1.532959
F	1.361115	0.0	0.0
H	0.221549	-1.029211	-1.761689
N	-0.325331	1.392494	0.599577
O	-0.725564	2.282951	-0.138478
O	-0.117192	1.483635	1.808617
N	-0.602571	-1.033005	0.708703
H	-1.610843	-0.980263	0.512801
H	-0.470131	-0.880431	1.702734
C	0.581881	0.944996	-2.199487
N	1.214575	1.715243	-2.819775
C	-1.635814	-0.063598	-2.179373
H	-2.180814	0.851375	-1.966608
H	-1.481777	-0.170395	-3.2576
H	-2.244918	-0.890725	-1.825753
Br	-4.028592	0.0	0.0
