17

C	0.0	0.0	0.0
C	-0.321127	0.335996	-1.474662
F	1.364564	0.0	0.0
H	0.015968	-0.580152	-1.97709
N	-0.300075	1.192818	0.952873
O	-0.535481	2.292783	0.468568
O	-0.209875	0.930657	2.149768
N	-0.575049	-1.18659	0.443583
H	-1.587913	-1.129687	0.303829
H	-0.399026	-1.295259	1.436902
C	0.577645	1.398175	-1.945223
N	1.263449	2.232123	-2.406081
C	-1.74859	0.635845	-1.91091
H	-2.154046	1.496184	-1.386334
H	-1.735454	0.840157	-2.984821
H	-2.420902	-0.1935	-1.71668
Br	-4.35938	0.0	0.0
