14

C	-0.46319	0.004462	-1.465033
C	0.0	0.0	0.0
F	0.043459	-1.12899	-2.066334
H	1.101423	0.0	0.0
C	-1.936489	-0.053617	-1.555272
N	-3.106613	-0.071334	-1.648623
C	0.014921	1.18878	-2.199064
N	0.353445	2.130927	-2.812097
N	-0.535015	-1.220961	0.613248
H	0.159842	-1.945664	0.459144
H	-0.592606	-1.08348	1.61591
C	-0.510906	1.192066	0.666669
N	-0.931607	2.138181	1.221842
Cl	3.234328	0.0	0.0
