14

C	-0.49029	-0.024121	-1.45799
C	0.0	0.0	0.0
F	-0.130489	1.137243	-2.103953
H	1.095992	0.0	0.0
C	0.076836	-1.180223	-2.172877
N	0.472728	-2.114715	-2.763567
C	-1.964976	-0.130881	-1.489992
N	-3.138211	-0.185502	-1.487198
N	-0.445028	-1.231794	0.63081
H	-1.242999	-1.089389	1.236132
H	0.324018	-1.623489	1.16145
C	-0.491882	1.216668	0.649851
N	-0.924051	2.154904	1.210847
Cl	3.208123	0.0	0.0
