14

C	-0.498713	-0.153264	-1.438734
C	0.0	0.0	0.0
F	-1.892816	-0.191093	-1.432987
H	1.09524	0.0	0.0
C	-0.094623	0.972768	-2.297484
N	0.181558	1.867545	-3.00632
C	-0.028236	-1.422797	-2.01602
N	0.302358	-2.426425	-2.527496
N	-0.430016	-1.162802	0.755727
H	-1.298464	-1.000293	1.246338
H	0.298395	-1.409124	1.413403
C	-0.494103	1.273165	0.539556
N	-0.955291	2.24881	1.005678
Cl	3.188088	0.0	0.0
