14

C	-0.503816	-0.078939	-1.442792
C	0.0	0.0	0.0
F	-1.897322	-0.112558	-1.433935
H	1.095189	0.0	0.0
C	-0.098802	1.088034	-2.244896
N	0.184021	2.00964	-2.915192
C	-0.03602	-1.31809	-2.084272
N	0.330249	-2.304067	-2.605127
N	-0.431722	-1.198037	0.698765
H	-1.288539	-1.051087	1.212799
H	0.303748	-1.485647	1.3316
C	-0.487849	1.245667	0.604702
N	-0.903339	2.208277	1.135537
Cl	3.187857	0.0	0.0
