14

C	-0.491233	0.31933	-1.413357
C	0.0	0.0	0.0
F	-1.885499	0.297491	-1.427606
H	1.105613	0.0	0.0
C	-0.068819	1.656833	-1.862638
N	0.214466	2.736232	-2.227881
C	-0.028682	-0.704577	-2.364569
N	0.277048	-1.495411	-3.176428
N	-0.432806	-1.342663	0.341762
H	-1.30692	-1.343654	0.849215
H	0.288943	-1.783105	0.898045
C	-0.487562	1.034522	0.920568
N	-0.914456	1.81001	1.694074
Cl	3.183877	0.0	0.0
