14

C	-0.492129	-0.056779	-1.456505
C	0.0	0.0	0.0
F	-0.135279	1.091451	-2.128098
H	1.094708	0.0	0.0
C	0.076374	-1.227048	-2.145739
N	0.498283	-2.171186	-2.701388
C	-1.96714	-0.167824	-1.48399
N	-3.138786	-0.251785	-1.474336
N	-0.440682	-1.218761	0.659856
H	-1.243032	-1.066579	1.254984
H	0.326625	-1.587215	1.206995
C	-0.492707	1.229912	0.624179
N	-0.917489	2.180673	1.1692
Cl	3.196327	0.0	0.0
