14

C	-0.476324	-0.034119	-1.462684
C	0.0	0.0	0.0
F	-0.118467	1.12807	-2.108952
H	1.095246	0.0	0.0
C	0.105495	-1.188648	-2.167651
N	0.509825	-2.119742	-2.757751
C	-1.950111	-0.152501	-1.507344
N	-3.121338	-0.246159	-1.503416
N	-0.442509	-1.229073	0.635514
H	-1.28819	-1.099148	1.178061
H	0.299235	-1.576596	1.231895
C	-0.496248	1.223104	0.63667
N	-0.92903	2.169659	1.182865
Cl	3.199166	0.0	0.0
