13
Coordinates from ORCA-job run
  C   -0.60602446978560     -0.23457060062449      0.29079686528010
  C   0.64782688145328     -0.23937753924328     -0.62762773513068
  Cl  -1.05136137999842     -1.99303608586589      0.52638840084965
  H   0.34877389644792     -0.72281288547908     -1.56689808137471
  N   -1.61754975575216      0.54724270794707     -0.31374865578667
  H   -2.40230741015078      0.70465849927849      0.30591281285458
  H   -1.94289440327925      0.13547107290030     -1.18059467510049
  C   -0.26808400421340      0.30894362741897      1.60718347447186
  N   -0.00075724278057      0.75631477971229      2.66023289932639
  C   1.74977506058000     -1.00772292970952     -0.04422450310553
  N   2.64411593144232     -1.61566037254144      0.41297260063479
  C   1.07177694052333      1.13471484001793     -0.91306833581384
  N   1.42770995551332      2.22683488618864     -1.15632506710544
