18
Coordinates from ORCA-job run
  C   -0.81361106439966     -0.24402165459704      0.00900694572390
  C   0.58703337975453     -0.06958319833124     -0.59551393008335
  H   -1.28142196886260     -1.08295480190474     -0.53551323223720
  H   0.48837778807111      0.30102614330528     -1.61738940031862
  C   -1.65106207852065      1.00230127934826     -0.24855860178511
  H   -1.22431330314112      1.86402775076922      0.26751544747031
  H   -1.72517093404502      1.21918885839318     -1.31678127724594
  H   -2.66557367752375      0.85592828295959      0.13221898041356
  N   -0.72950355348275     -0.47038990857261      1.44700340510897
  H   -0.21795890151295     -1.32593064596914      1.62939374302321
  H   -1.66423017256762     -0.58032095769386      1.82240705566803
  N   1.20308404604614     -1.42666241295810     -0.77285423216528
  O   1.41953381262241     -2.08487352860432      0.24587590627118
  O   1.44220062112050     -1.80222974800668     -1.91872139257249
  C   1.53527001958262      0.79448692487189      0.21519041899563
  H   1.67588746674557      0.38079905110838      1.21090660870601
  H   2.50009554684208      0.87074012720875     -0.29183414666349
  H   1.12136297327118      1.79846843867317      0.31764770169068
