18
Coordinates from ORCA-job run
  C   -0.71307069072826      0.22935504747453      0.07713623259831
  C   0.70499448189940     -0.31682405553338     -0.12184362266441
  H   -0.68273209691885      1.30481460395781     -0.15190822001789
  H   0.73598173886894     -1.35649362085164      0.20792492508077
  C   -1.18029755016263      0.03840353776648      1.51174491127163
  H   -1.21197091085188     -1.02673394926539      1.75570420649673
  H   -2.18383302561340      0.45351315555931      1.64035104219265
  H   -0.52354005125967      0.53941622368329      2.22441139047952
  N   -1.58785066952937     -0.52305553123837     -0.82459547538411
  H   -2.54153576384525     -0.48094471794336     -0.48636548606862
  H   -1.58199995283966     -0.10746454293383     -1.74811267901371
  N   1.61399763616913      0.42132432198820      0.80708742691631
  O   1.77726664766635      1.62157912895768      0.58826541447387
  O   2.11329125371142     -0.20443930842399      1.74167113613716
  C   1.21943179532137     -0.16941048108405     -1.54111024916106
  H   2.26334367781698     -0.48304858321591     -1.61026245455801
  H   0.63051763062748     -0.80847698602655     -2.20001082210193
  H   1.14700584966793      0.86848575712918     -1.87108767667722
