18
Coordinates from ORCA-job run
  C   -0.78256705100876     -0.33246532290290     -0.02406427693657
  C   0.61308146597618     -0.14354623749042     -0.63144479099799
  H   -1.22923644319763     -1.17374425139025     -0.56043654954871
  H   0.51250082118744      0.03024707788285     -1.70768871191543
  C   -1.65420718206207      0.90343609124874     -0.23442643989816
  H   -2.67392666671167      0.69575993932208      0.09871876194164
  H   -1.28209258259817      1.75222666505319      0.34582269678871
  H   -1.69491420719297      1.20080152561793     -1.28647541074236
  N   -0.63315692061143     -0.73888346484394      1.37064833789550
  H   -0.62490738476845      0.06818681215016      1.98256138674658
  H   -1.40469878752309     -1.32864642745471      1.65226679041508
  N   1.30210751635984     -1.48262269162159     -0.54383069763568
  O   2.33297777042618     -1.57763877501003      0.11342019132471
  O   0.75999233077452     -2.40500739425391     -1.14973729143037
  C   1.45377454160178      0.92973069058513      0.02346601340490
  H   1.56751408030832      0.73220829645709      1.08893861264312
  H   0.98687147596007      1.90583286348282     -0.12233336986757
  H   2.45088722307991      0.96212460316776     -0.41540525218741
