18
Coordinates from ORCA-job run
  C   -0.87391055697126     -0.27341697625243      0.04979762771579
  C   0.48788503155678     -0.12265757361989     -0.67614977155736
  H   -1.42114375524820     -1.04716224667161     -0.50248202917990
  H   0.29946996538183      0.16041560841102     -1.71426851177226
  C   -1.66342043068493      1.02538114834895     -0.03833414517962
  H   -1.19006627847721      1.81608933059927      0.55061477254738
  H   -2.66344780250322      0.86315077146799      0.36562734037338
  H   -1.75183347885944      1.37235014674354     -1.07041197713477
  N   -0.80838138169677     -0.69860394685344      1.43642952402046
  H   -0.40169191833617      0.02642301978246      2.01476369532941
  H   -0.24733970927151     -1.53504179482224      1.54463575909365
  N   1.06623209363534     -1.49941074318512     -0.77683712364247
  O   1.76660714913411     -1.89722364510884      0.15612097878377
  O   0.74204984474093     -2.17093153246656     -1.75502657191210
  C   1.47543179909978      0.81514498546812     -0.01580201836551
  H   2.43361543991855      0.79494551206444     -0.53824958802249
  H   1.09438664226821      1.83727696389256     -0.05054191234815
  H   1.65555734631318      0.53227097220179      1.02011395125078
