14

C	0.0	0.0	0.0
C	-0.522382	-0.234519	-1.420527
Br	1.961832	0.0	0.0
H	-1.62324	-0.222429	-1.337596
H	-0.19862	0.599196	-2.051234
C	-0.477645	1.344046	0.533129
H	-0.113127	2.13897	-0.122667
H	-1.571323	1.325319	0.543206
H	-0.090979	1.511371	1.539552
C	-0.37977	-1.102449	0.885236
N	-0.614066	-2.006745	1.59837
C	-0.063497	-1.486466	-2.011036
N	0.309076	-2.484679	-2.50428
Cl	-3.610792	0.0	0.0
