14

C	0.0	0.0	0.0
C	-0.513936	-0.230218	-1.424312
Br	1.962086	0.0	0.0
H	-1.615056	-0.213773	-1.351188
H	-0.179635	0.602727	-2.050848
C	-0.469529	1.346867	0.533278
H	-0.096203	2.139015	-0.121113
H	-0.081279	1.510095	1.539924
H	-1.563008	1.337724	0.542779
C	-0.383838	-1.103265	0.88166
N	-0.612995	-2.010953	1.59219
C	-0.053098	-1.482514	-2.013198
N	0.323329	-2.479826	-2.505408
Cl	-3.593143	0.0	0.0
