14

C	0.0	0.0	0.0
C	-0.554364	0.251668	-1.407439
Br	1.962751	0.0	0.0
H	-1.654248	0.215128	-1.295892
H	-0.23771	-0.540746	-2.090623
C	-0.491634	1.038965	0.99777
H	-0.148987	2.029737	0.691272
H	-0.106596	0.820537	1.995191
H	-1.585147	0.998674	0.997697
C	-0.366985	-1.355484	0.417915
N	-0.583068	-2.458041	0.762377
C	-0.141204	1.544667	-1.939947
N	0.190682	2.581799	-2.379104
Cl	-3.654987	0.0	0.0
