14

C	0.0	0.0	0.0
C	-0.313551	-0.170136	-1.520292
Br	1.965214	0.0	0.0
H	-0.216342	0.821074	-1.974462
H	0.481453	-0.787604	-1.945009
C	-0.54259	1.277482	0.605063
H	-1.636035	1.213243	0.542979
H	-0.173659	2.134638	0.035427
H	-0.229256	1.373729	1.645553
C	-0.377587	-1.19084	0.759782
N	-0.583213	-2.161374	1.390865
C	-1.540132	-0.8081	-2.007831
N	-2.252973	-1.445133	-2.692067
Cl	-3.599834	0.0	0.0
