14

C	0.0	0.0	0.0
C	-0.257009	-0.445816	-1.469609
Br	1.965362	0.0	0.0
H	0.309224	-1.368994	-1.621325
H	0.227942	0.314066	-2.091033
C	-0.520719	1.380902	0.339781
H	-0.189036	1.678685	1.336071
H	-1.614585	1.32354	0.308206
H	-0.149378	2.100253	-0.394249
C	-0.400921	-1.021305	0.964173
N	-0.612749	-1.873762	1.745071
C	-1.574641	-0.692788	-2.067843
N	-2.334948	-1.038862	-2.896562
Cl	-3.553469	0.0	0.0
