14

C	0.0	0.0	0.0
C	-0.251058	-0.479103	-1.463019
Br	1.965237	0.0	0.0
H	0.342677	0.191873	-2.091648
H	0.208802	-1.467373	-1.555609
C	-0.509079	1.394544	0.294828
H	-1.602985	1.345189	0.257979
H	-0.181062	1.720273	1.283619
H	-0.127264	2.08748	-0.459199
C	-0.414274	-0.999434	0.982601
N	-0.619409	-1.840554	1.777502
C	-1.561429	-0.567597	-2.120139
N	-2.325114	-0.768807	-2.992351
Cl	-3.528809	0.0	0.0
