14

C	0.0	0.0	0.0
C	-0.551113	0.192161	-1.418485
Br	1.96303	0.0	0.0
H	-0.235489	-0.631008	-2.06541
H	-1.651693	0.163422	-1.307409
C	-0.490935	1.082627	0.950522
H	-0.13992	2.058159	0.60675
H	-0.114189	0.902494	1.95863
H	-1.585081	1.047447	0.945939
C	-0.370549	-1.335037	0.475859
N	-0.58951	-2.419527	0.872255
C	-0.133436	1.459775	-2.006297
N	0.193812	2.477505	-2.491848
Cl	-3.652122	0.0	0.0
