17
Coordinates from ORCA-job run
  C   -0.97211914889169      0.26685822244159      0.22752017646313
  C   0.38947093817336     -0.26826913218478     -0.25751413915829
  Br  -1.06411327329499      0.50262138196848      2.14430885495452
  H   0.24846257489060     -0.38607397667184     -1.33924933393627
  N   -1.18797071787781      1.62299620497263     -0.48361850779814
  O   -1.05585968486672      2.65508213579459      0.15006238910835
  O   -1.40347032751635      1.50952186194038     -1.68460027630080
  C   -2.06168844087664     -0.61024948003701     -0.17895305628027
  N   -2.90966692462325     -1.35709638459463     -0.50444297706129
  C   0.69529034443897     -1.63602194423938      0.34471084037228
  H   -0.12387836719136     -2.34252128394931      0.19328908682323
  H   0.89711323994983     -1.55951145271989      1.41450780835591
  H   1.58462351654247     -2.04638118670636     -0.13907790449875
  C   1.51662119541881      0.73011724774678     -0.01491078030872
  H   1.36070980183898      1.67160981438772     -0.54521883063769
  H   1.63215134851248      0.94687228672787      1.04896813628325
  H   2.45332392537332      0.30044568512316     -0.37678148638045
