17
Coordinates from ORCA-job run
  C   -0.92927628070085      0.34382262294008      0.53852571696213
  C   0.47858334282132     -0.28448814561484      0.43504838319523
  Br  -1.08210375335369      1.51523089211983      2.07682728180628
  H   0.63591052318069     -0.74051187816451      1.41957220836486
  N   -1.19272249017874      1.15041400205234     -0.74530679799128
  O   -1.67472440908655      0.50161799529874     -1.66818810956391
  O   -0.82979466595508      2.31492812637094     -0.77426464971317
  C   -1.96982511733913     -0.66828756833904      0.65470733631293
  N   -2.77507435549079     -1.51405347051247      0.79163197832008
  C   1.56877695239112      0.75597624397917      0.19028464948981
  H   1.52068067594669      1.58514573870347      0.89616778818893
  H   1.51001012157955      1.16200241438585     -0.82195253271906
  H   2.54208717299297      0.27227839692276      0.29860906883044
  C   0.52692401431086     -1.38780708031919     -0.62366033436284
  H   0.37891142362965     -0.98763393858909     -1.62825193392331
  H   -0.22120652528381     -2.16256573459519     -0.44909679507378
  H   1.51284337053580     -1.85706861663884     -0.59065325812333
