17
Coordinates from ORCA-job run
  C   -0.97524564135306      0.26092312685151      0.22119604062040
  C   0.39262907166765     -0.26317454719789     -0.25766646767340
  Br  -1.08937477494653      0.46281070424948      2.14044330609211
  H   0.26433124359583     -0.36335252136838     -1.34273845633274
  N   -1.18516275482042      1.62936055091585     -0.46852663494464
  O   -1.38566534161643      1.53684350737653     -1.67383863314057
  O   -1.06219449206718      2.65008977921815      0.18496271228782
  C   -2.05862952440849     -0.61041988418925     -0.21323469147965
  N   -2.90196572124265     -1.35246932600158     -0.56102210482431
  C   0.69486209423564     -1.64045757893125      0.32467280337362
  H   -0.12195634883048     -2.34518509837824      0.15411621631776
  H   1.58911583283183     -2.04154015186525     -0.15767289226669
  H   0.88673221424867     -1.58135524156717      1.39732148592290
  C   1.51533203293200      0.73272177256564      0.01439756405802
  H   2.45612198682303      0.31109372789240     -0.34622417583537
  H   1.36301752890327      1.68382559745224     -0.49946432003351
  H   1.62005259404732      0.92928558297722      1.08327824785827
