17
Coordinates from ORCA-job run
  C   -0.96504215567020      0.22990246027351      0.40554574950330
  C   0.52303932158407     -0.14329971077629      0.38464387721140
  Br  -1.84466310520272     -0.33372158202449      2.04504992442347
  H   0.93809463889602      0.27026654924822      1.30981331962370
  N   -1.05696643873859      1.76338593122654      0.35207481795502
  O   -0.52766726076981      2.35681831319238      1.27873023591355
  O   -1.58780119750095      2.25423070560769     -0.63601430283239
  C   -1.68858316356158     -0.32933475857997     -0.72591380731618
  N   -2.22516385057130     -0.83900012311327     -1.63986011450301
  C   1.20465468505168      0.51696812920122     -0.81621209811111
  H   2.25457475322525      0.21722834658074     -0.83704207216835
  H   0.74648420630073      0.20019169308385     -1.75712476213240
  H   1.17682059181652      1.60692473039209     -0.76414117787670
  C   0.71543544143408     -1.65643985263721      0.35856621673589
  H   0.23654401510939     -2.14636597420353      1.20689767601162
  H   0.31673431043890     -2.08649382708655     -0.56394902111199
  H   1.78350520815853     -1.88126103038494      0.39893553867415
