17
Coordinates from ORCA-job run
  C   -0.92791213220782      0.27452398515217      0.36233318828480
  C   0.34778913701421     -0.28217637941465     -0.29944179112081
  Br  -0.72372085467751      0.61546405421934      2.25390335838414
  H   0.04074037585235     -0.46364984506175     -1.33697157851223
  N   -1.26812282432318      1.58895442890166     -0.37929203001291
  O   -1.06690174530040      2.65497765130162      0.17437273852004
  O   -1.65235872900178      1.40817216213995     -1.52886566667878
  C   -2.05721465406656     -0.62661308489751      0.17725910713627
  N   -2.93798639156677     -1.39067613799669      0.02553781790625
  C   0.76291328192136     -1.61081217901483      0.32449298201953
  H   1.13404707322517     -1.47011369411400      1.34109155351705
  H   -0.06158588548708     -2.32684176996844      0.34965505217176
  H   1.56698639943859     -2.04765192405154     -0.27212125260912
  C   1.48494319205983      0.73417767066137     -0.29490819698951
  H   2.35959792433684      0.28811709487646     -0.77342424855748
  H   1.23455243429533      1.64117035905898     -0.84878264000831
  H   1.76223339848743      1.01497760820787      0.72316160654931
