17
Coordinates from ORCA-job run
  C   -0.93847490918425      0.34088173363810      0.52346721453604
  C   0.47183937747667     -0.28544366244450      0.44286416009040
  Br  -1.11979741957211      1.50515064413287      2.06425673815800
  H   0.61331434144981     -0.74168262415133      1.42966301997597
  N   -1.17928688343813      1.15332590295839     -0.76107997528838
  O   -1.64150302966033      0.50824526824549     -1.69658693350598
  O   -0.81846155231328      2.31877598811509     -0.77722620954393
  C   -1.98010597426130     -0.67243190943720      0.61609745082585
  N   -2.79145297675197     -1.51576101659290      0.73033563693095
  C   1.56372433019902      0.75736407969860      0.21667090641341
  H   2.53629419651998      0.27814517578959      0.34867945223704
  H   1.49705821842713      1.59022196581531      0.91646929348738
  H   1.52567502480287      1.15754657320986     -0.79888214306079
  C   0.53953364272103     -1.38811258895718     -0.61542445361088
  H   0.40062799906491     -0.98850707812179     -1.62158334692848
  H   1.52794140132417     -1.85128074385280     -0.57112681774870
  H   -0.20592578680422     -2.16743770804560     -0.44959399296791
