17
Coordinates from ORCA-job run
  C   -0.96738295515628      0.26627949121074      0.25196657658003
  C   0.38203545703072     -0.26662715511872     -0.26836852070539
  Br  -1.01552689867377      0.48661937070416      2.17187487928954
  H   0.21573782688686     -0.37811973149562     -1.34718028635535
  N   -1.19676881905599      1.62814215042966     -0.44335737672567
  O   -1.04507592087506      2.65485805438591      0.19465832386545
  O   -1.44235412857715      1.52462417526475     -1.63941611916286
  C   -2.06645638841972     -0.60691626375012     -0.13696764137013
  N   -2.91388373049480     -1.36075546757343     -0.44741788837895
  C   0.70182150151858     -1.63795435197564      0.31851549902072
  H   0.93407707256575     -1.56643628872820      1.38245326530665
  H   -0.12257524328743     -2.34236212528492      0.18737936879450
  H   1.57623894966531     -2.04766497829734     -0.19218168060247
  C   1.51540161476717      0.72972212977076     -0.04653769868868
  H   2.44335386467453      0.29965705699772     -0.42972394828096
  H   1.34947959521844      1.67324037340040     -0.57006120905846
  H   1.65387820221284      0.94269356005988      1.01536445647204
