17
Coordinates from ORCA-job run
  C   -0.93790552363325      0.34752134900304      0.52066759470371
  C   0.46785816109809     -0.28935793247975      0.44382269726814
  Br  -1.11512627906112      1.51466592822643      2.05956392048673
  H   0.60139150720889     -0.75061224495799      1.42943238247987
  N   -1.16986647291182      1.16037162515235     -0.76527556645863
  O   -0.79583621801368      2.32156507786054     -0.78316636928180
  O   -1.64007593635998      0.51926905206635     -1.69952996924382
  C   -1.98677694771929     -0.65852298038257      0.61184941582460
  N   -2.79979105309610     -1.49986630263188      0.72909095572085
  C   1.56963333388798      0.74480284584767      0.22608884792840
  H   1.50840397182011      1.57472160985342      0.92981291958918
  H   2.53741660830490      0.25616045267330      0.35876529351295
  H   1.53832531831433      1.15031093221839     -0.78751802819422
  C   0.53088177045340     -1.38837353317298     -0.61860845140359
  H   0.40528846111815     -0.98263835204371     -1.62411029269383
  H   1.51331535142223     -1.86350617946763     -0.56826907731875
  H   -0.22513605283279     -2.15951134776497     -0.46261627291977
