13
Coordinates from ORCA-job run
  C   -0.33654643587421      0.01419314875029     -0.01562284776800
  C   0.97278930469609     -0.29422411117187     -0.20387209790908
  C   -0.90525372521501      0.78977895084039      1.11750455055101
  H   -1.59121517929061      0.15641139138719      1.68775297511109
  H   -0.12276115740633      1.16090147920674      1.77990652619287
  H   -1.48066935327075      1.62920342024825      0.72652105650187
  N   -1.31428459801682     -0.41339291608515     -1.03257468804587
  O   -2.27385117656041      0.33783577779777     -1.20270814682825
  O   -1.11364890235158     -1.47735981339657     -1.61166120738270
  C   1.49942615918575     -1.00294318416647     -1.33029429240979
  N   2.01050281408037     -1.56109479861024     -2.23106195042894
  C   1.93389404984994      0.14546196534691      0.76295240690127
  N   2.72361820017358      0.51522868985274      1.55315771551452
