13
Coordinates from ORCA-job run
  C   -0.33066787488531      0.04044462505246      0.02122076118369
  C   0.92901865575832     -0.31874749304719     -0.32982827125309
  C   -0.74385896158077      0.73270052048927      1.26840846106958
  H   -1.30902465099476      1.63173100463547      1.01353694693224
  H   0.11843588903441      1.00422322051991      1.87952002637135
  H   -1.40520924542073      0.08091922940301      1.84518110024363
  N   -1.42761572748356     -0.25475187701340     -0.92148363388646
  O   -2.30460118177330      0.60291656318870     -1.00252064089786
  O   -1.38333186842414     -1.31627380726707     -1.53743106374723
  C   1.28929211973322     -0.96198476158453     -1.55679039762778
  N   1.67459402259708     -1.45379699588707     -2.55419872883453
  C   2.01162083452828     -0.01998971621630      0.56136287403194
  N   2.88134798891124      0.23060948772675      1.31302256641451
