13
Coordinates from ORCA-job run
  C   -0.33341542780286     -0.00114921721378      0.01584508317449
  C   0.97199690185328     -0.27271821188337     -0.23486225424146
  C   -0.87750936372012      0.81359454405474      1.13103441068762
  H   -1.66099006521196      0.25604272963633      1.65145276337567
  H   -1.33514825966632      1.72067638531759      0.72936623539589
  H   -0.09470326843091      1.08398405300847      1.83930447056869
  N   -1.34011740348035     -0.50369264896098     -0.93522550792178
  O   -2.22783671641191      0.29314817378181     -1.23187391735868
  O   -1.22071082162666     -1.65624470445812     -1.34176857465787
  C   1.43774521089143     -1.02047531387880     -1.36416216856128
  N   1.89408834419202     -1.62468159506921     -2.26533067867146
  C   1.97977231528265      0.24032130474571      0.64337724937802
  N   2.80682855413169      0.67119450091963      1.36184288883214
