13
Coordinates from ORCA-job run
  C   -0.33397976090076     -0.02479601524971      0.00822944795823
  C   0.99854141743830     -0.24561821627618     -0.11660487544895
  C   -1.02034523394270      1.29128790429946      0.04307558189725
  H   -0.32489594337491      2.10147238004487     -0.17345882016191
  H   -1.46665554209717      1.44561070922118      1.02781627016577
  H   -1.83182162637966      1.30510556763688     -0.68973565989822
  N   -1.21530220570228     -1.19189922016790      0.17734449579041
  O   -1.01197906106168     -2.17233208590621     -0.53456654701915
  O   -2.09879340368966     -1.06749689630838      1.02299944620358
  C   1.61218742952876     -1.53875480376514     -0.09115078389623
  N   2.19248582193687     -2.56221756481363     -0.05574057306331
  C   1.88723692432673      0.86964013478580     -0.25231687657205
  N   2.61232118391814      1.78999810649896     -0.36489110595541
