13
Coordinates from ORCA-job run
  C   -0.31679480747704     -0.02395591585241      0.02072642968996
  C   1.01364679455201     -0.24053273205468     -0.13068389440738
  C   -1.03197627770593      1.27532712272243     -0.04244766885805
  H   -1.88033680044078      1.18999344485429     -0.72575183598139
  H   -1.42992840541858      1.52161796244021      0.94463833587881
  H   -0.37310713739688      2.07448408108313     -0.37742501857499
  N   -1.17251217868031     -1.18293066479676      0.32166820336794
  O   -1.96038502843818     -1.02576454854662      1.25084600079528
  O   -1.05176165166502     -2.18220567304567     -0.38183700459171
  C   1.87660250248807      0.87402764605853     -0.38523284498546
  N   2.54575473530619      1.82164062180285     -0.57799107748632
  C   1.62268170933209     -1.52998637414758     -0.01065732702063
  N   2.15711654554435     -2.57271497051770      0.09514770217395
