13
Coordinates from ORCA-job run
  C   -0.33292040990126     -0.02841419293725      0.01487661221232
  C   0.99858420167566     -0.23174314948449     -0.14571213016994
  C   -1.03194726668471      1.27852874343434      0.10100221522487
  H   -1.85934181413224      1.30269538780634     -0.61367552785571
  H   -1.45818142610384      1.40118863191933      1.09899447493133
  H   -0.35039396037691      2.10231201125452     -0.10829056141605
  N   -1.19865408558993     -1.20896808493108      0.17120558984438
  O   -1.00188843664787     -2.16726787230689     -0.57196736606102
  O   -2.06399229376630     -1.11715676277029      1.03949263585187
  C   1.62527427144958     -1.51864197422117     -0.16848663612476
  N   2.21470156451347     -2.53747777916897     -0.17205044023840
  C   1.87262447051569      0.89645192277662     -0.27031048792121
  N   2.58513518504867      1.82749311862901     -0.37507837827768
