13
Coordinates from ORCA-job run
  C   -0.30947507609684      0.08708124833136     -0.05034283355511
  C   0.98422890296259     -0.30486309420129     -0.15621360419764
  C   -0.91894406829030      0.90817907311203      1.02465281873433
  H   -1.59806096989464      0.28805090752190      1.61677460145494
  H   -0.15766565359908      1.33643863667884      1.67679796323165
  H   -1.50688282222835      1.71608842552993      0.58002039241994
  N   -1.24496469126175     -0.35863828127162     -1.09075141306235
  O   -0.97366615380065     -0.06690605767008     -2.25230654591491
  O   -2.23062545014310     -0.97264771507308     -0.69216489436348
  C   1.46393848854581     -1.15458439135666     -1.20152528985769
  N   1.87966202674217     -1.88618007283778     -2.02420368482954
  C   1.92323889010655      0.06077228089486      0.86194507770539
  N   2.68921657695761      0.34820904034159      1.70831741223447
