13
Coordinates from ORCA-job run
  C   -0.32566140709076     -0.02354281641481      0.07341530818693
  C   1.00110175208130     -0.24238133797140     -0.10565257277253
  C   -1.01839243674562      1.28973436405429      0.09185914923376
  H   -1.62902539405382      1.37345322709789      0.99506237683427
  H   -0.30235318453315      2.11046208502071      0.06371571244675
  H   -1.68968183522317      1.36220228285016     -0.76661611480984
  N   -1.20637867296301     -1.19379039389766      0.22143768338283
  O   -0.82517981404786     -2.11029903650329      0.94526961065858
  O   -2.26870942991763     -1.13620158398936     -0.39425806265133
  C   1.60836435151637     -1.53711283697553     -0.16746209855407
  N   2.17664262076209     -2.56421601965277     -0.25451894038336
  C   1.88062533179869      0.87479483874354     -0.28127715964028
  N   2.59864811841656      1.79689722763823     -0.42097489193169
