13
Coordinates from ORCA-job run
  C   -0.33366837368561     -0.02413488809973      0.01684654026566
  C   0.99360163145044     -0.24675165374500     -0.15223171865529
  C   -1.01241917829951      1.29334234482429      0.10466648625789
  H   -0.32011867571933      2.10626346266854     -0.11142546462304
  H   -1.84498461795613      1.32873516734938     -0.60331634741104
  H   -1.42890852562813      1.42484414976862      1.10568856238513
  N   -1.21511656780814     -1.19104994477272      0.18274121619485
  O   -2.07318962999554     -1.08410981359950      1.05653155268963
  O   -1.03799992494720     -2.15406562278155     -0.55937172586189
  C   1.60262555877987     -1.54201697667919     -0.17675486838169
  N   2.17990404369030     -2.56771204131301     -0.18304441373447
  C   1.88274153240250      0.86873571531353     -0.28493667146413
  N   2.60853272771649      1.78892010106635     -0.39439314766162
