13
Coordinates from ORCA-job run
  C   -0.30886983470839     -0.00217940056626      0.11926240727378
  C   1.03403764945637     -0.05260622321769     -0.06114833142036
  C   -1.31198203661511      0.61839275021559     -0.78185631687999
  H   -1.99109702586745     -0.15030804164023     -1.15633465201170
  H   -1.91140516686482      1.34308849576496     -0.22294170551902
  H   -0.83022441578978      1.12066747754874     -1.61996625264252
  N   -0.86683504520162     -0.66228563416484      1.31066028736776
  O   -1.84065740695678     -1.38304776042185      1.10297762148434
  O   -0.33426960333619     -0.43519405284106      2.39389158971344
  C   1.93886824496716     -0.71339525102885      0.82952306515918
  N   2.73140265130292     -1.25832156012892      1.50794835711799
  C   1.61291808295542      0.54183052009718     -1.22919133383896
  N   2.07911390665828      1.03135868038324     -2.19282473580394
