13
Coordinates from ORCA-job run
  C   -0.32482857317562     -0.01926691360688      0.07997231330239
  C   0.99601035906259     -0.25312691033026     -0.12189227120810
  C   -1.00533485477459      1.30029930319298      0.08987244308796
  H   -1.59650646246278      1.40464952784736      1.00373004068826
  H   -0.28264316764173      2.11356407510895      0.03232401886076
  H   -1.69410806672978      1.36427817878841     -0.75511696734001
  N   -1.21204138978869     -1.17898189051628      0.26562383349437
  O   -0.82371176621979     -2.08723424088424      0.99627340734785
  O   -2.28611694709207     -1.12247945415097     -0.32958604619066
  C   1.59186879108476     -1.55380268657560     -0.17032805879428
  N   2.15175566146654     -2.58637433244778     -0.24642322746563
  C   1.88164778679308      0.85263874538301     -0.33582965616320
  N   2.60500862947807      1.76483659819130     -0.50961982961971
