13
Coordinates from ORCA-job run
  C   -0.33509917526712     -0.01571324222944      0.01217567901406
  C   0.98777605792819     -0.25208942619594     -0.17036183816074
  C   -0.97439658789671      1.29223445736125      0.30397829077891
  H   -1.38788459560943      1.28303229684343      1.31505654609485
  H   -0.25962209748141      2.10894585937777      0.20899533473681
  H   -1.80614452875944      1.45521036132845     -0.38762080456741
  N   -1.25499082682186     -1.16294737472655     -0.02830128044630
  O   -1.10151453978635     -1.99010951936011     -0.92390007447665
  O   -2.11579286134790     -1.17982657767459      0.84913945048115
  C   1.91403759231899      0.83898057916306     -0.10832844685313
  N   2.67508546226977      1.73603713353432     -0.07574747779557
  C   1.55569604091782     -1.54513160558328     -0.40382974509968
  N   2.10285005953546     -2.57062294183838     -0.59025563370628
