13
Coordinates from ORCA-job run
  C   -0.31164459369650     -0.04039778244234      0.06790266224585
  C   1.03935172826999     -0.04748456098470     -0.02041694805152
  C   -1.29084123366371      0.43167917566289     -0.94063601319954
  H   -1.80968794524405      1.31660458505165     -0.56402488665486
  H   -2.03754059057834     -0.34926271969955     -1.11216478837557
  H   -0.80191091634346      0.67059078364416     -1.88369741949221
  N   -0.90942814564604     -0.52872050512480      1.31813569013284
  O   -0.68028977780309     -1.69454392411515      1.62927027959631
  O   -1.61527244797202      0.27740822065725      1.91732414030175
  C   1.88508756755726     -0.50225980634825      1.04096767337947
  N   2.61631266875316     -0.85337689293475      1.89358165292912
  C   1.68646964905050      0.45665661064471     -1.19220349023862
  N   2.22939403731630      0.86110681598889     -2.15503855257302
