13
Coordinates from ORCA-job run
  C   -0.32080110075795     -0.02008338732686      0.09429346457969
  C   0.98680113132698     -0.25674064960146     -0.17802258059719
  C   -0.98308686749451      1.30422914242664      0.20502877637624
  H   -1.53535369405309      1.36448489308566      1.14683424942522
  H   -1.70487581207540      1.42097586595961     -0.60628838565136
  H   -0.25362924604616      2.11233665734046      0.16265514113960
  N   -1.21466106858993     -1.17868577927454      0.25422679689176
  O   -2.31226331790420     -1.07728450458484     -0.28994133253584
  O   -0.80771908240858     -2.13015050378026      0.91645599286555
  C   1.56190362187366     -1.55917041754475     -0.32614472209873
  N   2.10278867113887     -2.59232947057689     -0.48588824576586
  C   1.87663272094354      0.84968358322191     -0.36945736985932
  N   2.60326404404677      1.76273457065532     -0.52375178476974
