13
Coordinates from ORCA-job run
  C   -0.31848902173275     -0.02859840825313      0.06294803151204
  C   1.01559267190367     -0.21398990623854     -0.09084589615260
  C   -1.05946676371387      1.25653227966020      0.00801210670412
  H   -0.38503164306709      2.09689442915320     -0.15161424653149
  H   -1.59949704025282      1.40548247673912      0.94788737878419
  H   -1.79875973544002      1.21859489627504     -0.79365081792646
  N   -1.16107764961165     -1.21759637207854      0.28500765073775
  O   -2.18010559575670     -1.27788633975040     -0.39864913833855
  O   -0.79563748017885     -2.02149319658747      1.13895073001401
  C   1.85276576555627      0.92048522765715     -0.34907254517247
  N   2.52368213832667      1.86452150683138     -0.55566418094681
  C   1.65972572060231     -1.49165365038751     -0.05138864230384
  N   2.24629863336483     -2.51229294302052     -0.05092043037989
