13
Coordinates from ORCA-job run
  C   0.66036351240449     -0.51743697671207      0.27215165779417
  C   -0.51128799255118      0.26786917181151     -0.31682737231256
  F   0.37592936686842     -1.86252840585799     -0.00254047926801
  H   -0.56038346028888      0.12180620614709     -1.39820292640724
  H   0.66881870569633     -0.41104635082931      1.35731636415391
  N   1.86884878010964     -0.06253883182898     -0.28149482943539
  H   1.93406498488221     -0.26171759928948     -1.27109365205728
  H   2.67437506291185     -0.43895428895197      0.19774813224011
  C   -0.43343863668210      1.68110049073620      0.02481359802845
  N   -0.37752135479568      2.82093767794389      0.29973511683607
  N   -1.79483891261787     -0.30539969083141      0.23716973384418
  O   -2.59359033290214     -0.75409868490885     -0.57495892320294
  O   -1.91133972303511     -0.27899271742864      1.45618357978653
