13
Coordinates from ORCA-job run
  C   0.96374426027507     -0.04866205199291     -0.15003426608662
  C   -0.53571737048026      0.19754023218273     -0.43159049998136
  F   1.33417151500642      0.99144911654678      0.70814369820690
  H   -0.93036958872049     -0.62648912158873     -1.02895882788118
  H   1.51240310937696      0.11239654572293     -1.08146646233821
  N   1.24916508091368     -1.30342447064115      0.38105652495473
  H   0.53154823014375     -1.78706141443728      0.89096521579991
  H   1.91361453151067     -1.87581017789941     -0.10302221781666
  C   -0.75725272390581      1.47378749444468     -1.09576205645195
  N   -0.90363604035594      2.47157155247568     -1.69627745793410
  N   -1.28663876274789      0.15593674877521      0.88009463784946
  O   -1.64089962847619      1.21088410341848      1.38303277606203
  O   -1.45013261253996     -0.97111855700700      1.34481893561705
