18

C	-0.182725	-0.061109	-1.520161
C	0.0	0.0	0.0
Br	-2.063867	0.115369	-2.118616
H	1.116872	0.0	0.0
C	0.645819	1.013335	-2.2069
H	0.24467	2.00689	-2.029474
H	0.656266	0.78904	-3.27513
H	1.650885	0.938805	-1.778393
N	0.317266	-1.347494	-1.9781
H	1.268459	-1.403851	-1.605525
H	-0.22685	-2.103305	-1.57582
N	-0.509326	-1.228934	0.668406
O	-1.714839	-1.471464	0.590569
O	0.316168	-1.947905	1.229754
N	-0.540903	1.153466	0.733045
O	-0.489648	2.251882	0.183193
O	-0.942361	0.963184	1.881112
F	2.533677	0.0	0.0
