18

C	-0.395982	-0.075142	-1.473679
C	0.0	0.0	0.0
Br	0.204348	1.740842	-2.245425
H	1.085413	0.0	0.0
C	0.509423	-1.072527	-2.178325
H	0.19581	-2.083198	-1.913087
H	1.529022	-0.901283	-1.821649
H	0.442822	-0.941439	-3.26068
N	-1.768255	-0.317466	-1.685743
H	-2.330494	0.394872	-1.238433
H	-1.981227	-0.370447	-2.674034
N	-0.503963	-1.224099	0.696376
O	0.114687	-2.26357	0.488461
O	-1.499902	-1.126784	1.416134
N	-0.583083	1.134633	0.760416
O	-1.582165	1.71069	0.323993
O	-0.035906	1.400326	1.825582
F	2.522483	0.0	0.0
