17

C	0.0	0.0	0.0
C	-0.467273	0.039523	-1.452498
F	1.416863	0.0	0.0
H	-1.564161	-0.023813	-1.336624
N	-0.496215	1.067967	0.790403
H	-1.447819	0.769547	1.061118
H	-0.642705	1.846514	0.148369
C	-0.330417	-1.281282	0.646153
N	-0.412466	-2.311727	1.20317
C	0.082621	-1.115694	-2.277399
H	-0.232317	-2.08021	-1.869885
H	1.176852	-1.091393	-2.300736
H	-0.283026	-1.052083	-3.307102
N	-0.12571	1.361294	-1.981015
H	0.848614	1.379173	-2.258825
H	-0.692904	1.546052	-2.799087
H	-3.14761	0.0	0.0
