17

C	0.0	0.0	0.0
C	-0.41259	-0.275579	-1.468918
F	1.399033	0.0	0.0
H	0.494804	-0.722183	-1.894037
N	-0.537827	1.204495	0.527655
H	-1.564851	1.085037	0.426917
H	-0.341771	1.236591	1.524223
C	-0.292714	-1.193105	0.859779
N	-0.385785	-2.046043	1.662664
C	-0.708367	1.021865	-2.225093
H	0.099311	1.750785	-2.113869
H	-1.641484	1.456125	-1.867197
H	-0.822669	0.78426	-3.28944
N	-1.464095	-1.280777	-1.518489
H	-1.740574	-1.408567	-2.487384
H	-2.282992	-0.891604	-1.004344
H	-3.214169	0.0	0.0
