17

C	0.0	0.0	0.0
C	-0.385652	0.072131	-1.517417
F	1.387016	0.0	0.0
H	0.483689	-0.396465	-1.994565
N	-0.562221	1.037577	0.786514
H	-1.586003	0.946292	0.627627
H	-0.40249	0.835346	1.769861
C	-0.31071	-1.375943	0.507901
N	-0.456793	-2.459576	0.93894
C	-0.462417	1.525354	-1.96794
H	-1.361113	1.995354	-1.565864
H	0.409824	2.095046	-1.635519
H	-0.522317	1.540804	-3.058663
N	-1.570468	-0.6427	-1.947044
H	-2.350714	-0.37939	-1.30841
H	-1.424878	-1.637609	-1.798115
H	-3.234443	0.0	0.0
