17

C	0.0	0.0	0.0
C	-0.594004	-0.0055	-1.395069
F	1.408125	0.0	0.0
H	-1.68681	0.038379	-1.179807
N	-0.451632	1.127497	0.715468
H	-0.471534	1.920332	0.088027
H	0.124753	1.296036	1.527493
C	-0.327648	-1.24529	0.742194
N	-0.438372	-2.249725	1.339499
C	-0.245569	-1.271301	-2.165201
H	-0.614896	-1.186861	-3.191326
H	0.8381	-1.43368	-2.197228
H	-0.719141	-2.144496	-1.71012
N	-0.173839	1.237285	-2.048619
H	0.733036	1.10315	-2.484069
H	-0.843684	1.465431	-2.772995
H	-3.451022	0.0	0.0
