18
Coordinates from ORCA-job run
  C   -0.57440285650971      0.26675628572332      0.43615505932676
  C   0.72450078689201     -0.18066878959235     -0.26346134005796
  Cl  -1.21267613460881     -1.04116836989594      1.48389803034960
  H   1.14889494446191      0.72332007817484     -0.70814147629599
  N   -0.17659685648266      1.35243646710708      1.32296187766033
  H   -0.91712530969782      1.52875223524095      1.99248368509430
  H   -0.05091478568943      2.19543445015663      0.77033088056838
  C   -1.67080369046495      0.63965515985838     -0.55263313771552
  H   -1.30077076196061      1.40089036245985     -1.24555681857059
  H   -2.52486755581494      1.04067203403111     -0.00395210972155
  H   -2.00878653642692     -0.22006311359966     -1.13245454398091
  N   0.39001828250828     -1.03254565725843     -1.44977799336841
  O   0.14829516265190     -2.22051956305436     -1.25158184786873
  O   0.34849845632392     -0.46841865343470     -2.54420757388199
  C   1.73324308604107     -0.87415793026836      0.62426468169157
  H   1.37238480263647     -1.85705342222356      0.91902377338091
  H   2.68006616441032     -0.99045400470791      0.09244536259285
  H   1.89104280172996     -0.26286756871688      1.51220349079694
