18
Coordinates from ORCA-job run
  C   -0.87946049561761      0.08440970286464      0.06929225879185
  C   0.32132752517944     -0.80918907541685     -0.28654329022431
  Cl  -2.09062449534136     -0.25748588737917     -1.22717964428169
  H   -0.06812915108971     -1.81005027178352     -0.47169339618223
  N   -1.45321676230166     -0.41850351757876      1.30552370423505
  H   -2.40985186897085     -0.09545543629997      1.39022669233123
  H   -0.92295782260200     -0.04153513094463      2.08430193874991
  C   -0.61589772780908      1.58285548180145      0.04174380392339
  H   -1.54301663578068      2.10758033659316      0.28096280950000
  H   0.13837075630160      1.83417701042956      0.78790592030249
  H   -0.28029449363936      1.92153204891165     -0.93927542654432
  N   1.22214213718654     -0.99475572251266      0.90278617436773
  O   1.79191199936522     -2.07724230290386      0.98840843124399
  O   1.37899651158682     -0.04803604359708      1.67537580130058
  C   1.19069681537228     -0.32810130228438     -1.43511875728185
  H   1.69847048005001      0.60267710517459     -1.17654350470476
  H   1.94242615844116     -1.08469999676763     -1.66602543987796
  H   0.57910706966925     -0.16617699830656     -2.32314807564908
