18
Coordinates from ORCA-job run
  C   -0.51463776565236      0.38082796678436      0.42615676713161
  C   0.67970915326822     -0.22454174220419     -0.33807551480539
  Cl  -0.73985243270205     -0.44100297226065      2.00408417369436
  H   0.87287303263282      0.45380695708966     -1.17333685961970
  N   -0.12200677655794      1.75181083310366      0.72507049158890
  H   -0.22175463219201      2.31033725681393     -0.11754601171964
  H   -0.74595637834535      2.13514183333272      1.42619667638370
  C   -1.82225130284983      0.26045659812701     -0.34500613122629
  H   -1.70851710707602      0.70525249857395     -1.33784143766126
  H   -2.13230693843210     -0.77826572852652     -0.46493923052719
  H   -2.60614983366673      0.79247181868867      0.19700553277116
  N   0.25705572125241     -1.49658120623582     -1.00748161787471
  O   -0.07475027566756     -1.41747963928031     -2.19110745608488
  O   0.23740832601374     -2.52046931016621     -0.32914038517755
  C   1.93073844273259     -0.44283949206142      0.48293088782609
  H   2.76604894708677     -0.69988602896475     -0.17206938737257
  H   1.78385867361030     -1.24855912352833      1.19873867682076
  H   2.16049114654511      0.47951948071424      1.01536082585262
