18
Coordinates from ORCA-job run
  C   -0.80316003209894      0.15703807217601      0.16053370590200
  C   0.39875007001747     -0.59802825573445     -0.42131551630089
  Cl  -2.20857825211761     -1.06262605873899      0.11338147393868
  H   0.14869538047124     -0.90357001953522     -1.43750995641774
  N   -0.55027777929944      0.65837594339066      1.45658102321613
  H   -1.35085522716064      1.16175497538619      1.81610137333903
  H   -0.28225815359910     -0.07631033555102      2.09890393204834
  C   -1.22026043914956      1.28658476202148     -0.76724941236314
  H   -1.39904076956069      0.91909498878332     -1.77809221347268
  H   -2.14809265571691      1.73183900250213     -0.40261564224678
  H   -0.44948082507414      2.05850429569155     -0.78063134883904
  N   0.62906319642065     -1.89702804684832      0.29514649782400
  O   0.78445194592846     -1.85152946424105      1.51550691008993
  O   0.69265291212286     -2.91139935799184     -0.39128645318404
  C   1.69933263979988      0.18747080875079     -0.37209786402342
  H   2.50801878527688     -0.41732490216654     -0.78880014055205
  H   1.93897267189673      0.46188866543991      0.65370996247316
  H   1.61506653184286      1.09626492666537     -0.96826633143150
