18
Coordinates from ORCA-job run
  C   -0.88890955697993      0.09521676201025     -0.03280713600295
  C   0.36563300317070     -0.77687085163764     -0.27678105662421
  Cl  -1.80703007544284      0.14555433466474     -1.59639502136199
  H   0.03769636935515     -1.81820324786680     -0.23957239797655
  N   -1.73198265589079     -0.57837838449713      0.91934532483036
  H   -1.18524615093749     -0.89867485882974      1.71016159350867
  H   -2.46676822948451      0.03910418502672      1.24323128015822
  C   -0.55039352248756      1.53817076327559      0.32200363441697
  H   -1.47544333858923      2.11559171452392      0.37502115567401
  H   0.10045207726305      2.00786381431045     -0.41654029916092
  H   -0.06480521046674      1.57833900808442      1.29992210572175
  N   1.24735374087317     -0.60417544366728      0.93564445319771
  O   2.19217872248251      0.17607643580693      0.85785256409566
  O   0.93259467748215     -1.23252679958045      1.94892558500633
  C   1.16952852755343     -0.49122586626131     -1.52791959979677
  H   1.39318893127481      0.56890899752228     -1.63514577272706
  H   2.11483193763540     -1.03418941118985     -1.48668237580990
  H   0.61512075318869     -0.82858115169510     -2.40126403714929
