18
Coordinates from ORCA-job run
  C   -0.89364051816286      0.09696841676421      0.12907939662329
  C   0.37068455873921     -0.60983323313763     -0.41658804040551
  Cl  -2.22489148632470     -1.12548113100272     -0.00837091564050
  H   0.18695563130313     -0.90700106423627     -1.44977175602105
  N   -0.85139412808593      0.55080973177284      1.48571738584177
  H   -0.43652518795208     -0.14105244057721      2.09664489401222
  H   -0.35002429110755      1.42606629433042      1.56004976599677
  C   -1.26075599002929      1.26202010803046     -0.77658449248474
  H   -0.50596849710089      2.05074337337812     -0.71837871478665
  H   -2.21455463055783      1.67063565664759     -0.44277199976304
  H   -1.35817688308678      0.93841866563761     -1.81339040919875
  N   0.60591310984501     -1.90734962369563      0.29521718893159
  O   0.62156145867985     -2.93057020890196     -0.38151893266966
  O   0.79562597185248     -1.85435982232406      1.51136887916895
  C   1.63681641953136      0.21937381407010     -0.28781588354176
  H   1.56494154820292      1.12764560078911     -0.88698826791962
  H   2.49363296190530     -0.35263814084808     -0.65047439747242
  H   1.81779995234866      0.48560400330310      0.75357629932910
