18
Coordinates from ORCA-job run
  C   -0.87224571712512      0.06102660839702      0.21597571360551
  C   0.29948071590185     -0.69943386154182     -0.43201311606110
  Cl  -2.35769989297109     -0.98725012300337      0.03455674506464
  H   -0.06930349505067     -1.16690484111690     -1.34474227802871
  N   -0.64435386312457      0.26180510192493      1.61060121653564
  H   0.32975266697914      0.35675837647088      1.85793957745692
  H   -1.19735956324382      1.02068091838744      1.98237759805940
  C   -1.17224927248721      1.33483881648768     -0.56700013666476
  H   -1.33236874468316      1.13227331740021     -1.62827119726938
  H   -0.35299298257171      2.04712378075383     -0.44905843352364
  H   -2.08373353855508      1.78739018808028     -0.17087954871000
  N   0.70133076986319     -1.84864645666614      0.44742703087234
  O   1.47974342086083     -1.59678576664117      1.36766698653918
  O   0.23531773255708     -2.95287227492216      0.18596183574636
  C   1.52424262224907      0.15631823285243     -0.71554899706976
  H   1.32385288495764      0.82029045015777     -1.55680871559226
  H   2.36731063484441     -0.48263947282700     -0.98346359606293
  H   1.82027562159923      0.75402700580610      0.14627931510258
