18
Coordinates from ORCA-job run
  C   -0.65668578309114      0.25080360900473      0.45931240653365
  C   0.63267363975370     -0.15417600796405     -0.30189930092067
  Cl  -1.30062198613543     -1.17603120203900      1.33881927422617
  H   1.01578625006228      0.77260770323141     -0.73726530312896
  N   -0.39598784366059      1.26680763950988      1.45510377784366
  H   -0.08016327578098      2.12107799177695      1.00953221390227
  H   0.29208780955413      0.96255457864129      2.13191390128964
  C   -1.73510896121492      0.76163503267870     -0.47969312697368
  H   -1.34849163201237      1.58751066509948     -1.08399287987859
  H   -2.56988312720636      1.11493408033953      0.12497220648276
  H   -2.08609631610075     -0.01820082690161     -1.15376493175197
  N   0.29188126758920     -0.98979985458359     -1.50103397152018
  O   0.11504198749866     -0.38677631592481     -2.56046630796409
  O   0.18802002246578     -2.20384221316341     -1.34487525734087
  C   1.70243079740011     -0.85065919560283      0.51271225216253
  H   2.58499420254396     -1.02153815730349     -0.10709576229539
  H   1.34637053277652     -1.80908898918693      0.88304503888881
  H   2.00375241555820     -0.22681853761224      1.35567577044490
