18
Coordinates from ORCA-job run
  C   -0.53386593546651      0.42667508673412      0.34153483435926
  C   0.53589701633051     -0.35440506428320     -0.44700104232601
  Cl  -0.51380129998488     -0.16357327767591      2.08590422237028
  H   0.37914535242679     -0.08766251419712     -1.49463040926087
  N   -0.20016506072447      1.81020620134105      0.24218980604148
  H   0.63815630526610      2.02919021331882      0.76568346692080
  H   -0.95508842244708      2.37904459189464      0.60612793606261
  C   -1.94389859233406      0.20815861591168     -0.17612085146813
  H   -2.63660597139555      0.82297240954758      0.40303521916704
  H   -2.25135839665547     -0.83034055766781     -0.08538904885941
  H   -1.99276129248092      0.50480287492975     -1.22593583089020
  N   0.25043151210815     -1.82869589532819     -0.39581183599216
  O   -0.60794630404736     -2.24639813443928     -1.17407686867181
  O   0.88079895595292     -2.51474373593311      0.40362629477905
  C   1.96673477175837     -0.08691969624313     -0.02923936252724
  H   2.23460890534743      0.93891078852060     -0.28563777068302
  H   2.10668031322253     -0.25680973137715      1.03726184501905
  H   2.64203814312351     -0.75141217505336     -0.56952060404072
