18
Coordinates from ORCA-job run
  C   -0.88287861325538      0.06391915395473      0.03845010733576
  C   0.34937984914846     -0.79285108033362     -0.29955462411688
  Cl  -2.03762808314601     -0.26067420670339     -1.31232752141552
  H   -0.01094532490196     -1.79492962886562     -0.53118983581962
  N   -1.49050600470611     -0.49039831265202      1.23614814681474
  H   -0.99849329194241     -0.12689178443806      2.04578004596837
  H   -2.45696590837670     -0.19174622115046      1.29465452928385
  C   -0.65120756770307      1.56758341994969      0.06856416020599
  H   -1.59774717868913      2.06480707022068      0.28981172918238
  H   0.06932328765805      1.80983074073520      0.85020960684874
  H   -0.28719405539688      1.94498333973651     -0.88788462686787
  N   1.20940072099642     -0.99853698211032      0.91603523978081
  O   1.79720429324751     -2.07220453139285      0.98946110197443
  O   1.31896141201903     -0.07352291973006      1.72225434483075
  C   1.24989148823110     -0.25671096684824     -1.39892572015773
  H   0.66713010112562     -0.07730342569911     -2.30287827426568
  H   1.72825448019389      0.67482928138791     -1.09163112247876
  H   2.02502039549755     -0.99018294606097     -1.62697728710377
