14
Coordinates from ORCA-job run
  C   0.52064740982068      0.15331777368876     -0.15723094732240
  C   -0.74226699974581      0.16390010537052      0.68883521643958
  Br  2.10591844663991      0.53755962746013      0.88708472342947
  H   -1.58063885034791      0.06704130758564     -0.02686243334498
  H   -0.83468561218259      1.13738329994052      1.16827117625872
  N   0.68146974216779     -1.08461380393995     -0.81640856643461
  H   1.54886543900531     -1.12223846702480     -1.33609593844620
  H   -0.08785252265439     -1.23617283883344     -1.46024241912621
  N   0.40756263219376      1.34848994162411     -1.15624960239445
  O   0.69303150157688      1.11184796218601     -2.32578255097487
  O   0.03368959956884      2.42349571433163     -0.70604718064567
  N   -0.66284970634794     -0.87361486069481      1.69394009901533
  H   -0.60353439993364     -1.78259088031912      1.25507431176830
  H   -1.47835667976091     -0.84480488137521      2.29071411177797
