14
Coordinates from ORCA-job run
  C   0.65285974080615      0.06456670920823     -0.08376302552258
  C   -0.44756134078890     -0.64973651905023      0.68841517288177
  Br  1.82763544506770      1.01366557621152      1.11933266757528
  H   0.06769946687973     -1.28827722965129      1.40762168100276
  H   -0.97468162948469     -1.30276554445437     -0.01888828754505
  N   1.41395169156196     -0.84833501875851     -0.85770933693159
  H   0.82176814343438     -1.34793272420478     -1.51168207863304
  H   2.17506386458354     -0.39211906101430     -1.34511453279851
  N   -0.01299573465441      1.11819577946537     -1.01582263877617
  O   0.64882314831835      2.07033912507582     -1.40106267028402
  O   -1.13891423875968      0.81793499654943     -1.41506162751099
  N   -1.30696237435768      0.29662596348503      1.36925875254936
  H   -2.11639498254283      0.51115355976672      0.80498224871492
  H   -1.61129120006366     -0.06531561262860      2.26049367527786
