14
Coordinates from ORCA-job run
  C   0.36801990808416      0.20792937151302     -0.35808400682883
  C   -0.71520460267325      0.11324592802491      0.70659748500369
  Br  2.10143400631989      0.69910839929287      0.60556423111375
  H   -0.71728981245505      1.02654938739315      1.30415399005392
  H   -1.66700597309628      0.04865408546616      0.17271394320825
  N   0.42821279876744     -0.93798045943107     -1.12582867392920
  H   0.39644629792806     -1.75486996898757     -0.52759852012262
  H   1.17890714096184     -0.94855325127733     -1.80099581913285
  N   0.15986432821600      1.39918178913401     -1.27515089131949
  O   -0.59184722172446      2.28423818093490     -0.88137097500211
  O   0.76666744567021      1.37870937104140     -2.33783527041227
  N   -0.50241395640923     -1.12242005741000      1.45238448440630
  H   -1.37057362986817     -1.42999800796358      1.86896432209679
  H   0.16578327027881     -0.96579476773087      2.19648570086471
