14
Coordinates from ORCA-job run
  C   0.38818769772046      0.19219741590726     -0.34477089892682
  C   -0.71410380763344      0.14081148019370      0.70302556389987
  Br  2.14274150758035      0.49630058174936      0.66220829090421
  H   -1.66043458598674      0.17906000492930      0.15696253179900
  H   -0.64926402775791      1.02349665074144      1.34163930938132
  N   0.36685085069270     -0.91939664586550     -1.16171252363422
  H   0.25793518931502     -1.75707676041768     -0.60275624215363
  H   1.12147683395757     -0.96116577786598     -1.83113372932905
  N   0.29337254272833      1.43616208038643     -1.20864431515954
  O   -0.38741036220032      2.36264190033728     -0.78270173405301
  O   0.90958066717734      1.41118530858878     -2.26578201471582
  N   -0.61450592481025     -1.14043641000965      1.39386445286867
  H   -1.50972549157792     -1.39012421497075      1.79157744174036
  H   0.05729891079480     -1.07365561370399      2.14822386737863
