14
Coordinates from ORCA-job run
  C   0.60802250782347      0.12843304487383     -0.19594687101898
  C   -0.18648683355737     -0.02131354592223      1.08709205390256
  Br  2.41928249475860      0.86958295972333      0.27129330840167
  H   -0.18084216032356      0.93111080909029      1.61415775799146
  H   0.33868658839955     -0.75882250599212      1.71284168609665
  N   0.64450774601924     -1.06004177315312     -0.93524394034812
  H   0.96586050505591     -0.90816550088559     -1.88265901353567
  H   1.20716293420915     -1.76046449221812     -0.47080802103645
  N   -0.02064181559090      1.22044311167391     -1.05863476345573
  O   -0.42725901243748      2.21290923417248     -0.47722828084186
  O   -0.03199954420794      1.02797056610097     -2.26925795194145
  N   -1.54638961830690     -0.35877277661895      0.71113017492567
  H   -1.60910879348532     -1.32207261164185      0.41356920970583
  H   -2.18179499835645     -0.20079651920285      1.48069465115441
