14
Coordinates from ORCA-job run
  C   0.42646361719033      0.25778996014240     -0.24159656257056
  C   -0.89607114133310      0.01247637126040      0.47004456280780
  Br  1.73658985642876      0.94507323401159      1.16672843030870
  H   -1.63891927745928     -0.16240242252492     -0.31274470173333
  H   -1.18301836197430      0.90900242221735      1.02244941811757
  N   0.84465741025366     -0.85952692799671     -0.93676408106870
  H   0.74317388477826     -1.68381688756611     -0.35674159448942
  H   1.75244975361891     -0.76633307754305     -1.36887082134877
  N   0.34375377717528      1.42826353803770     -1.20448387458166
  O   -0.59334464707655      2.20588412659625     -1.06139366648763
  O   1.22672783120132      1.49961581751405     -2.04897589523164
  N   -0.75479450949684     -1.19859069632271      1.27126733936291
  H   -1.66179398743612     -1.61465290300439      1.43303704655762
  H   -0.34787420587032     -0.97178255482185      2.17004440035712
