14
Coordinates from ORCA-job run
  C   0.71991673096697      0.19251894758142     -0.14678508312769
  C   -0.11063878356562     -0.07933267000628      1.12262019241444
  Br  2.41512568691569      0.99820162272525      0.40081886328819
  H   -0.17006916888785      0.83923334751172      1.70779773742339
  H   0.44715592092669     -0.81454244676513      1.71074313719025
  N   0.98650843536959     -0.89758208594481     -1.01211520303979
  H   1.36464434228074     -1.68694853243020     -0.50745151814280
  H   0.18567495849569     -1.14470134462242     -1.57558530448897
  N   -0.07498076038139      1.23378487108018     -0.93722395235356
  O   -0.24887699766468      2.31806993621301     -0.39828038726242
  O   -0.57164267823212      0.86883419130798     -1.99955720095413
  N   -1.44648078345488     -0.56926432891481      0.87568886434444
  H   -1.45117082006483     -1.39563136575269      0.29400803181592
  H   -2.04416608270400      0.13535985801679      0.46532182289272
