14
Coordinates from ORCA-job run
  C   0.67870190233474      0.23494579828317     -0.13491103851909
  C   -0.25295493322971     -0.17296269860023      1.00215513289055
  Br  2.29319495189813      1.02460978355153      0.61954251267299
  H   0.31520687649354     -0.88543593367684      1.60478764964478
  H   -0.48848853398017      0.69689119164804      1.62079912583846
  N   0.96225113363845     -0.80200657082305     -1.04163631377610
  H   0.30560663843936     -1.56143435912452     -0.90983883182359
  H   1.92504730069138     -1.08966945562038     -1.07714703700300
  N   0.02391501295157      1.40470944750452     -0.93434768686274
  O   0.56354197044113      1.73132747597018     -1.97651011904996
  O   -0.99554226148420      1.90264557208892     -0.45609476865390
  N   -1.40415742941782     -0.86077378607055      0.43242153165420
  H   -2.08225619156251     -0.17784979939395      0.11878041677597
  H   -1.84506643721391     -1.44499666573678      1.12999942621144
