14
Coordinates from ORCA-job run
  C   0.64303551803127      0.12572351717579     -0.17809109291223
  C   -0.48490814378837     -0.61552386541411      0.53666340944294
  Br  1.81281392527643      0.93652155199171      1.13478037547305
  H   -0.01565146814031     -1.39592993714859      1.15326792544905
  H   -1.06650566794603     -1.10656192687496     -0.24838437647287
  N   1.44354944701310     -0.63785428288403     -1.08840765668120
  H   2.00707431556847     -1.31188917753858     -0.58736558168961
  H   0.83953817888514     -1.10970518346893     -1.75216151091286
  N   -0.03422208505084      1.20571013917858     -1.02861626113304
  O   -0.70850747717950      0.72292850058289     -1.93620007343714
  O   0.10736942614123      2.38797152556435     -0.77936656402251
  N   -1.34720816152777      0.31345308947658      1.23854340785159
  H   -0.94290381071383      0.58415768485723      2.12508872154564
  H   -2.25347399656904     -0.09900163549796      1.41024927749918
