14
Coordinates from ORCA-job run
  C   0.52593782172492      0.11176776160526     -0.24874099551918
  C   -0.43220124905864     -0.62257859346647      0.68350062422344
  Br  1.64304681755531      1.38358645309165      0.79885952036893
  H   0.19523592422867     -1.29547167492256      1.27579723742169
  H   -1.05309096380275     -1.24330428544859      0.02406856515023
  N   1.26278875823549     -0.79153285647754     -1.03910246528687
  H   1.81876437031262     -1.40935150292540     -0.46253058671180
  H   1.85906757992209     -0.30020296095488     -1.69405375297720
  N   -0.23176724922605      0.98755803689207     -1.24254269182295
  O   -1.43711604498367      1.13508957551837     -1.06865784044612
  O   0.42512107547343      1.45899140447708     -2.16105013006538
  N   -1.16328338064300      0.24458690878941      1.57871212722301
  H   -1.41211783280720     -0.24745839035587      2.42412697585182
  H   -2.00038562693119      0.58732012417751      1.13161341259038
