14
Coordinates from ORCA-job run
  C   0.50484556203539      0.03788807211979     -0.30756107246661
  C   -0.42079271158977     -0.53380581166593      0.76131025506365
  Br  1.86074194865057      1.22384782025258      0.53902813344214
  H   0.18975456108168     -1.24402767231481      1.32693696246814
  H   -1.17392381446618     -1.11087717479192      0.20859514296246
  N   1.04886938650919     -0.98238999261991     -1.11160242239149
  H   1.62101704652213     -0.59645873264573     -1.85292008276453
  H   1.59280722162934     -1.63082643105043     -0.55766033830528
  N   -0.25603937945040      0.94443376463801     -1.27099527475393
  O   -1.41204483858171      1.23858496815795     -0.98440314353053
  O   0.34416253065236      1.28904945503624     -2.28014977804866
  N   -0.95133852904378      0.45602777553990      1.67068559903014
  H   -1.15709100185679      0.03964685338952      2.56685252800562
  H   -1.79096798209198      0.86790710595476      1.29188349128892
