14
Coordinates from ORCA-job run
  C   0.53945590264493      0.08579905953920     -0.23139474995371
  C   -0.49596577023163     -0.63278086336286      0.62778646081932
  Br  1.73357853495909      1.17536939371973      0.92946024616139
  H   0.06176302963436     -1.39165651449500      1.18482212341951
  H   -1.14642961828913     -1.15639742510584     -0.08464812688860
  N   1.21717971809296     -0.81294773090196     -1.07827904324368
  H   1.70421875138594     -1.51995938027101     -0.54319910335173
  H   1.87001355220243     -0.32481287715837     -1.67958215000013
  N   -0.12358424936482      1.09193610133687     -1.16751458733577
  O   0.59558294810741      1.59362639312171     -2.02117769050394
  O   -1.32314918094066      1.30221470493907     -1.02076890809881
  N   -1.18167940874729      0.23085493566851      1.56061161742686
  H   -1.44916170377745     -0.27744057054525      2.39009692686476
  H   -2.00082250567610      0.63619477351520      1.13378698468453
