14
Coordinates from ORCA-job run
  C   0.48840383315097      0.26508598599124     -0.24566434139129
  C   -0.73911152688955      0.11277010852998      0.68339944710150
  Br  2.06226139606645      0.64955340941498      0.82638288690747
  H   -0.84670682858627      1.02994041880393      1.26699097093269
  H   -1.60793301308909      0.03157240308975      0.01849605707790
  N   0.80128827283716     -0.81652230398768     -1.11743154327041
  H   0.02103723326732     -1.02834289194957     -1.72660428015060
  H   1.09095385442660     -1.62983104547518     -0.59307376527962
  N   0.15761571149874      1.47679148556437     -1.11842948179169
  O   0.27615298847015      2.59130344915216     -0.62895439606514
  O   -0.33225368071971      1.21204108759814     -2.21376852784084
  N   -0.72866416758312     -1.02081803528683      1.57226823079438
  H   -0.69866843675192     -1.89495341239064      1.06553358480359
  H   0.05362436390228     -0.97759065905464      2.21185515817212
