14
Coordinates from ORCA-job run
  C   0.62985322249892      0.14553161660641     -0.20312285040892
  C   -0.43984208040803     -0.59423288279944      0.59718894017898
  Br  1.77429743677002      1.13159785822447      1.00851721719972
  H   0.08472837816304     -1.29097932945638      1.26721919954542
  H   -1.00565500836461     -1.18276498298659     -0.13030126729878
  N   1.45728586981885     -0.64678501213696     -1.06331434544934
  H   0.87059870112471     -1.21222327112082     -1.66669308648861
  H   2.07282328978617     -1.23730918816410     -0.51994895439516
  N   -0.12496060620247      1.10828319366367     -1.12656134504848
  O   -0.78208405942728      0.51184372994529     -1.97713679523759
  O   -0.05006210439672      2.31365924679236     -0.98008201625489
  N   -1.34323213092496      0.34159065742655      1.23594551395597
  H   -0.93248461780519      0.72212138893107      2.07827185019114
  H   -2.21326629063244     -0.11133302492553      1.47901793951055
