14
Coordinates from ORCA-job run
  C   0.67381539859381      0.12363037944641     -0.18042041580828
  C   -0.40180967224752     -0.60566513357619      0.63041321075203
  Br  1.94988914839577      0.95074550890191      1.00128367764840
  H   -0.95657539114757     -1.23202888915963     -0.07859529363650
  H   0.12036125877820     -1.26782173100236      1.32487138531930
  N   1.37898579498121     -0.65516282966937     -1.15682423761373
  H   2.08510429860650     -1.23058183694346     -0.71915711254682
  H   0.72513987554377     -1.23277600371043     -1.67341146959733
  N   -0.06678437786196      1.19706017681022     -0.99170853752990
  O   0.24894628885880      2.37089599620978     -0.93729234418811
  O   -0.96397399078096      0.71415741791319     -1.68465577219098
  N   -1.23618888863243      0.33868980731899      1.34583763682204
  H   -1.46168430363296      0.01431626561422      2.27383277433117
  H   -2.09522543945462      0.51454087184674      0.84382649823870
