14
Coordinates from ORCA-job run
  C   0.44314800110270     -0.01143862421783     -0.28056589912620
  C   -0.44443499114493     -0.50169463492421      0.87522871001978
  Br  1.50068637228632      1.59287044423091      0.34250953361757
  H   -1.11049106117252     -1.24444710497292      0.42691150243862
  H   0.22900586751471     -1.03909560558138      1.55103974033349
  N   1.21926027500500     -1.04689696063724     -0.80464641784256
  H   1.81733293629326     -1.46502202669847     -0.10555179250355
  H   1.75045415814045     -0.76001786611324     -1.61690890373123
  N   -0.37189409842478      0.54009825792757     -1.44545631487798
  O   0.21193897492563      0.65334015743715     -2.51545175806770
  O   -1.54645194013098      0.82098635889623     -1.23218253023548
  N   -1.22082040425324      0.43145561688998      1.64555218057887
  H   -1.85564074828022      0.93515115933412      1.04313622793131
  H   -0.62309334186139      1.09671082842939      2.11638572146519
