14
Coordinates from ORCA-job run
  C   0.69309712988729      0.18179392856074      0.02659343748297
  C   -0.30091293893246     -0.13793432100449      1.14572098905925
  Br  2.25428942686029      1.08009386160863      0.76025818763080
  H   0.20879769118658     -0.83020566949193      1.81885202473976
  H   -0.50840840662618      0.77925237892210      1.69412053879161
  N   1.10117163245465     -0.95949532612460     -0.68765103427897
  H   1.71993271269400     -0.71828312848639     -1.45138745762352
  H   0.29008776159604     -1.43320251103117     -1.06731715514558
  N   0.03582410623792      1.25239589928168     -0.90400776034378
  O   0.25105600105272      1.13966328491525     -2.10629331172419
  O   -0.65122818213461      2.11700599196088     -0.37286941208706
  N   -1.55165187528136     -0.72056116008006      0.71657400327896
  H   -1.45756317263781     -1.64003158621723      0.31174372637273
  H   -2.08449188635707     -0.11049164281343      0.11366322384703
