14
Coordinates from ORCA-job run
  C   0.71889530767873      0.18929280665129     -0.15347487915309
  C   -0.11603048826962     -0.06482058586492      1.11843492081211
  Br  2.42591056967931      0.96166315559983      0.38392514044656
  H   -0.16670114865583      0.86034832293046      1.69457933095688
  H   0.43495906371429     -0.79937263887212      1.71333593841836
  N   0.97047053697975     -0.90581855006280     -1.02104471429818
  H   1.42116307528156     -1.66434005962123     -0.52792599565882
  H   0.13379148057764     -1.20785355805998     -1.50038238553105
  N   -0.06558291723415      1.23768498032455     -0.94534410604040
  O   -0.59788384997012      0.86122613127617     -1.98592096585922
  O   -0.19512053711147      2.33890719638310     -0.42803717102367
  N   -1.45539317944458     -0.54774700221678      0.87930889807974
  H   -2.04334182054218      0.14276889567450      0.43271274444258
  H   -1.46713609268331     -1.40193909414201      0.33983324440817
