11

C	-0.470308	0.012096	-1.458098
C	0.0	0.0	0.0
Br	0.177441	-1.584505	-2.37119
H	1.092586	0.0	0.0
H	-0.016679	0.856396	-1.980597
H	-0.351476	-0.905885	0.499968
C	-1.922871	0.064604	-1.594596
N	-3.093852	0.112911	-1.683189
C	-0.506729	1.178136	0.696527
N	-0.913774	2.135292	1.241756
Br	3.456184	0.0	0.0
