11

C	-0.456024	0.009445	-1.463308
C	0.0	0.0	0.0
Br	0.087105	-1.65061	-2.333525
H	1.092672	0.0	0.0
H	0.064649	0.806378	-1.998155
H	-0.360583	-0.898996	0.505123
C	-1.898307	0.162743	-1.623981
N	-3.060587	0.289529	-1.743107
C	-0.497711	1.18879	0.685104
N	-0.898201	2.153975	1.22102
Br	3.451637	0.0	0.0
