11

C	-0.459955	0.017629	-1.458562
C	0.0	0.0	0.0
Br	-0.01585	-1.647002	-2.371358
H	1.092887	0.0	0.0
H	0.103121	0.793955	-1.980534
H	-0.312528	0.943892	0.462011
C	-1.890996	0.263187	-1.604047
N	-3.041113	0.484361	-1.697141
C	-0.564154	-1.104583	0.762223
N	-1.04456	-1.975704	1.385285
Br	3.45004	0.0	0.0
