14

C	-0.491481	0.015189	-1.419749
C	0.0	0.0	0.0
F	-1.892917	-0.045281	-1.46728
H	1.092683	0.0	0.0
H	-0.110373	-0.852596	-1.958587
C	-0.078152	1.249634	-2.100196
N	0.266031	2.216936	-2.66821
N	-0.361666	-1.30531	0.598842
O	-0.209339	-2.315872	-0.098326
O	-0.682864	-1.329408	1.794697
N	-0.426617	1.12892	0.7537
H	0.275208	1.313891	1.461385
H	-1.311105	0.953371	1.210693
H	2.551406	0.0	0.0
