14

C	-0.540525	-0.021036	-1.430534
C	0.0	0.0	0.0
F	-0.15972	1.14321	-2.074279
H	1.090019	0.0	0.0
H	-1.636816	-0.03902	-1.407443
C	-0.076902	-1.173927	-2.218907
N	0.24271	-2.054127	-2.926407
N	-0.565485	-1.253252	0.615363
O	-1.788036	-1.251922	0.804729
O	0.180416	-2.195295	0.858198
N	-0.424927	1.129718	0.756437
H	0.322966	1.813576	0.739222
H	-1.295072	1.536854	0.440796
H	2.770556	0.0	0.0
