15
Coordinates from ORCA-job run
  C   0.91755531291623      0.20021939084118      0.28715077096000
  C   -0.31299151847355     -0.16185324967093     -0.15232083732364
  C   1.88984686520279     -0.79240326421414      0.64210299866518
  N   2.70528990439454     -1.58608788556189      0.94215411449762
  N   1.38317414060516      1.52885635292040      0.33143471557430
  H   0.65952260064669      2.19317072613663      0.56673140434764
  H   2.18066242844937      1.64550115946670      0.93776131957770
  C   -0.77040698322502     -1.58773740484719     -0.21463132018033
  H   -0.01893815218103     -2.28507370657086      0.15839389267926
  H   -1.68207521852848     -1.72268678000767      0.37705649904880
  H   -1.01730550667862     -1.86943601018601     -1.24431268877202
  C   -1.28747248774707      0.90227320893808     -0.57284603568442
  H   -1.82053293842894      1.33208511185759      0.28487974073401
  H   -2.04282040588827      0.48679783584917     -1.24404382682513
  H   -0.78450804106380      1.71837451504893     -1.09951074729895
