15
Coordinates from ORCA-job run
  C   0.91488552090012      0.18980828427920      0.31324894819051
  C   -0.31477412044539     -0.16692355124876     -0.13415128432062
  C   1.89687745508282     -0.80299004781035      0.63868095122715
  N   2.72327316527011     -1.58756693955145      0.93203789583962
  N   1.38758872620334      1.51091119336335      0.38263666247377
  H   0.64994210539854      2.19950662626170      0.43483525033124
  H   2.06663039801116      1.65239263469203      1.11545303381995
  C   -0.74330686470996     -1.59315086452371     -0.29568060504232
  H   -1.67091036319736     -1.78559620282308      0.25586749647103
  H   0.01053129138501     -2.30259512167435      0.05102347091746
  H   -0.95542416781841     -1.81396650298960     -1.34813593595725
  C   -1.29452530907977      0.91091802620428     -0.51358039498973
  H   -2.20313227483827      0.48248863265311     -0.93877059335689
  H   -1.59727163827612      1.50580696297968      0.35787825653751
  H   -0.87038392388584      1.59995687018794     -1.25234315214143
