15
Coordinates from ORCA-job run
  C   0.83999516241167      0.23458713004115      0.44161166489325
  C   -0.33451608050293     -0.17258886177907     -0.10035426265259
  C   1.79758051129672     -0.72025248524057      0.92041169544254
  N   2.60222371828455     -1.48024971949984      1.32064883738950
  N   1.17518174548920      1.58615326334904      0.66086958230704
  H   2.15055800588306      1.71900516017965      0.88325075369404
  H   0.90296606165856      2.18723896377453     -0.10340110839792
  C   -0.67328024086094     -1.61541315331922     -0.32424081871354
  H   0.10480927850190     -2.28923175641006      0.03764482392650
  H   -1.60940327657004     -1.87083009888760      0.18386021999307
  H   -0.82574897761198     -1.81389035360263     -1.39082326033279
  C   -1.33357846799135      0.85852550078422     -0.54281703681079
  H   -2.34153298539444      0.43877047164577     -0.55475632107857
  H   -1.12386184928098      1.21794717046419     -1.55841403077822
  H   -1.33339260531299      1.72322876850045      0.12650926111845
