15
Coordinates from ORCA-job run
  C   0.86528146525287      0.17586885275817      0.41983308065655
  C   -0.36925329234316     -0.10496938338013     -0.06615788458817
  C   1.03124715960218      0.69047351212187      1.74867070618549
  N   1.19760915966136      1.11292771976769      2.83452993246352
  N   2.06131030671436     -0.08886471681558     -0.27773545075471
  H   2.86586998979575      0.35781466950455      0.13616935946358
  H   2.00066000062255      0.13536455105715     -1.26038785304067
  C   -0.49806902883395     -0.69094483794397     -1.44360034977554
  H   0.32295318951828     -1.38022282525905     -1.65924316713392
  H   -0.49759395287053      0.08701485606171     -2.21776268571902
  H   -1.43685975527317     -1.23962805414888     -1.54314719120607
  C   -1.62978554007715      0.18372868479585      0.69170681554556
  H   -1.43689672893744      0.59568060776553      1.68335092612887
  H   -2.22116317923263     -0.73036476414775      0.81100358706690
  H   -2.25430979359930      0.89712112786284      0.14277017470762
