15
Coordinates from ORCA-job run
  C   0.84930524774760      0.20223018790233      0.43901233215513
  C   -0.36718524572631     -0.10771025622066     -0.07385225526607
  C   0.97423789084886      0.73829696592799      1.76352662934059
  N   1.10654917957252      1.18038751262759      2.84625297079951
  N   2.06541562080156     -0.05323359008053     -0.22651124677375
  H   2.85136082878706      0.41991289928738      0.19375824631219
  H   2.01995834049473      0.14686245166649     -1.21536042888015
  C   -0.44536465308187     -0.71699461821305     -1.44516801126649
  H   -1.39272424278936     -1.24237588057956     -1.58161280050193
  H   0.36722087123695     -1.43172634015562     -1.60620499208244
  H   -0.38287654344102      0.04433296910707     -2.23359029976882
  C   -1.65171532097885      0.15771886347775      0.65128418638871
  H   -2.29190568941878      0.82757920073365      0.06672896659079
  H   -1.49346815141729      0.61006581123984      1.63163070966148
  H   -2.20980813263580     -0.77434617672067      0.79110599329124
