15
Coordinates from ORCA-job run
  C   0.94773887347380      0.20854489735340      0.10365247778702
  C   -0.33962044105639     -0.16654969552187     -0.09729154585368
  C   1.99415451023719     -0.76823360301674      0.19691706406593
  N   2.87274567816944     -1.54689850150411      0.28149232886672
  N   1.37244931909177      1.55195062314474      0.14312022886538
  H   0.72752904245454      2.15229538254321      0.63644801313472
  H   2.30603487357716      1.65911111831734      0.51130206811102
  C   -1.39148595758350      0.89742117523881     -0.23973017848166
  H   -2.28809247606358      0.49708451015268     -0.71766566614458
  H   -1.02695487503075      1.73278415200305     -0.84557910801845
  H   -1.69725797742781      1.30098025767448      0.73419250242688
  C   -0.77285520755397     -1.59959927874651     -0.16162743284287
  H   0.06041348970356     -2.29421438426554     -0.04318442349737
  H   -1.50900395315828     -1.81534020584337      0.62044813479555
  H   -1.25679489883317     -1.80933644752956     -1.12149446321459
