15
Coordinates from ORCA-job run
  C   0.84375730353495      0.22696974648003      0.43772398000950
  C   -0.33433084536678     -0.17215297153432     -0.10266909896608
  C   1.80073582331521     -0.73397640302584      0.90544050827413
  N   2.60467445703092     -1.49981767604860      1.29583839863409
  N   1.18264176753788      1.57593971177540      0.66578822533751
  H   2.15981119489963      1.70579998307945      0.88096094268428
  H   0.90267943108032      2.18471271013532     -0.08954756686006
  C   -0.68170706071009     -1.61219999803832     -0.33126981224387
  H   -1.61006553181391     -1.86737261614189      0.19059528751880
  H   -0.85190364715273     -1.80399941556459     -1.39630570842532
  H   0.09982553967305     -2.29059137365112      0.01384956446321
  C   -1.33023914753185      0.86831210481303     -0.53076919881379
  H   -2.33654928612053      0.44677575496109     -0.57064283442271
  H   -1.34230779272096      1.71270356040997      0.16436420943998
  H   -1.10602220565511      1.25989688235038     -1.53135689662967
