15
Coordinates from ORCA-job run
  C   0.84486543963635      0.23129712745422      0.43049002550615
  C   -0.33631893041542     -0.17481450429672     -0.09744251498288
  C   1.82122887842924     -0.72308793397455      0.87052423787178
  N   2.64242115423414     -1.48121076072692      1.23950350046212
  N   1.17072747668242      1.58328358251814      0.66475529467493
  H   0.89599492078134      2.18958304732467     -0.09475604391218
  H   2.14486801576051      1.71885144581429      0.89005574291330
  C   -0.66937685738015     -1.61594261229598     -0.34015321441179
  H   -1.59374425785501     -1.88563117843634      0.18144412461838
  H   -0.84099872764337     -1.79771425908444     -1.40682844684048
  H   0.12036956981946     -2.28964525630321     -0.00429361196708
  C   -1.34860559148205      0.85883259437793     -0.50176101837063
  H   -2.35141033569188      0.42746662517448     -0.52761497429712
  H   -1.35561909491511      1.69900656062536      0.19843374934482
  H   -1.14440165996047      1.25872552182908     -1.50335685060932
