15
Coordinates from ORCA-job run
  C   0.86290881012670      0.21073075193828      0.40770298140332
  C   -0.33619585061244     -0.17067889585847     -0.09780907001431
  C   1.84953760750798     -0.76340596548365      0.77510236516090
  N   2.67786400527763     -1.54051038225072      1.08366115780594
  N   1.19922911839103      1.54929169204630      0.69438624571110
  H   0.87497264577289      2.19402949554946     -0.01204765957443
  H   2.18493744412170      1.68002398902171      0.86601764791076
  C   -1.35960533237819      0.88191233918171     -0.41824585021685
  H   -1.35749994136109      1.67610856942348      0.33428485405058
  H   -2.36131159496163      0.44903192228772     -0.45393255330489
  H   -1.17423861202589      1.34598345246124     -1.39569889683033
  C   -0.68507609310482     -1.59964002451137     -0.38536557383361
  H   -0.92133840574626     -1.73137019759520     -1.44702042228355
  H   -1.57668520409915     -1.89477805190598      0.17820723842117
  H   0.12250140309154     -2.28772869430453     -0.13024246440579
