15
Coordinates from ORCA-job run
  C   0.92207913146657      0.19449688593252      0.26143213859209
  C   -0.31938019920236     -0.15661861161747     -0.15551388831139
  C   1.92104868087861     -0.80389837439281      0.51326410563855
  N   2.75851791239262     -1.60284438520105      0.72658426308599
  N   1.35647273885892      1.52989216597217      0.38553097105329
  H   2.22689250454993      1.61564279033600      0.88859173000070
  H   0.65437178088911      2.13293779485856      0.78966140642509
  C   -1.31834820237219      0.92131592114186     -0.46758177309866
  H   -1.82834333712358      1.27713301289439      0.43713115694345
  H   -0.83689550392819      1.78152942991875     -0.94196709115169
  H   -2.08971073496308      0.54756797599900     -1.14415015929395
  C   -0.76289366395884     -1.58186668867364     -0.29242208234601
  H   0.02096955487848     -2.29276236622341     -0.02561920578465
  H   -1.63066070453547     -1.77676338499129      0.34756446349542
  H   -1.07411995783052     -1.78676216595357     -1.32250603524821
