15
Coordinates from ORCA-job run
  C   0.85688549824390      0.22614481351610      0.41256392095758
  C   -0.36866607008955      0.00761629898406     -0.12516657639047
  C   1.00293838393363      0.95999181494762      1.63629929357252
  N   1.15255332216027      1.55730038984311      2.63933936813948
  N   2.06266964120906     -0.15497991152681     -0.21077635409544
  H   2.00639439604328     -1.06491006952295     -0.64550598802608
  H   2.85764424945137     -0.10915309421888      0.40892999376945
  C   -0.46981360809686     -0.71967773206416     -1.43617237600252
  H   0.33495557069233     -0.42306945758212     -2.11539883876815
  H   -1.42292342050851     -0.50615048157480     -1.92409567279480
  H   -0.41226212595805     -1.80788909193248     -1.30366080798566
  C   -1.64182753972944      0.42968488205881      0.54333036785599
  H   -2.20889513168515      1.10359381188221     -0.10795021890156
  H   -1.46752325741084      0.93948423623612      1.49228576508650
  H   -2.28112990825542     -0.43898640904584      0.73597812358316
