15
Coordinates from ORCA-job run
  C   0.90111574429341      0.27086955098892      0.11139919374077
  C   -0.37847695720053     -0.14130595903387     -0.04042653690081
  C   1.97571698033512     -0.68659664378555      0.18251283276285
  N   2.89605409666470     -1.41819855616842      0.24954323392500
  N   1.24941874245448      1.65955708474804      0.20583935035650
  H   1.85114135744850      1.91889026876587     -0.56825072088758
  H   1.77209550113617      1.82680181251237      1.05843093009583
  C   -1.50952289627495      0.83777929957933     -0.11558731082780
  H   -2.02484818061548      0.74231495425326     -1.07741396909543
  H   -2.24913201466414      0.61639661258957      0.66100937077249
  H   -1.15370251985234      1.85897319421871      0.00204340760389
  C   -0.74523268147079     -1.59175291748463     -0.14560033022755
  H   -1.43527524334404     -1.86237623604410      0.66013877945441
  H   0.12018413877138     -2.25352373409159     -0.09573048591059
  H   -1.27053606768150     -1.77782873104790     -1.08790774486198
