15
Coordinates from ORCA-job run
  C   0.86172739058016      0.10358823958304      0.44858962413172
  C   -0.37640278198768     -0.06483279326444     -0.07842139627863
  C   1.03265048851332      0.62695707602133      1.77306023469354
  N   1.20336480794194      1.05487058144533      2.85608210765522
  N   2.04744727304807     -0.29443451219437     -0.20163260566700
  H   2.87906633098823      0.07735515445109      0.23211967923522
  H   2.04101709599439     -0.08699337322869     -1.18995190055070
  C   -0.50936544699594     -0.66739322542326     -1.44834823239576
  H   0.22225085440465     -1.46648333520099     -1.60035453701129
  H   -0.35890854804582      0.07971909546170     -2.23838015432182
  H   -1.50700489153789     -1.08765189666530     -1.59050067419924
  C   -1.62967782529906      0.35316693183119      0.62922582376981
  H   -1.43145909098878      0.78925426368181      1.60964785807119
  H   -2.29475946247688     -0.50636320581070      0.76567505231159
  H   -2.17994619413869      1.09024099931225      0.03418912055615
