15
Coordinates from ORCA-job run
  C   0.92909021249567      0.19319948576525      0.22975154945778
  C   -0.32621510037885     -0.16034172761958     -0.14183211570605
  C   1.92560015848297     -0.80376501884901      0.49700058407371
  N   2.76589232791403     -1.59691113507417      0.72029158735416
  N   1.37847577037369      1.52870699041500      0.28844189108793
  H   0.69535844883055      2.15238723001992      0.69473736867996
  H   2.26666620252639      1.62468004264373      0.75778826840320
  C   -1.31922285290818      0.91661694360252     -0.47450010464836
  H   -1.79964649574932      1.31852864829955      0.42711398855863
  H   -0.83847609071737      1.74847436459081     -0.99764129012675
  H   -2.11342159678437      0.52544767450339     -1.11371777231740
  C   -0.78878041981592     -1.58459334837482     -0.20552320719721
  H   -1.64042295102080     -1.74138748906970      0.46545010733693
  H   -0.00562620634242     -2.29279475030402      0.06967594294734
  H   -1.13027140690607     -1.82924791054887     -1.21703679790386
