15
Coordinates from ORCA-job run
  C   0.85224834157619      0.36304913796927      0.31426486113580
  C   -0.37654275150436     -0.05962586018168     -0.07341881056100
  C   1.03418293673114      1.05188076242047      1.55914249427698
  N   1.21227739396110      1.61623202287063      2.57655582188875
  N   2.00646946231281      0.25276115905973     -0.48721579477825
  H   2.86006122259790      0.40277375243608      0.02982650658816
  H   2.04955482851623     -0.62114004058543     -0.99192962682783
  C   -1.59877906359123      0.08617463756341      0.78194258764471
  H   -2.35509301452327      0.68896370267419      0.26723311856033
  H   -2.04977028730951     -0.89290868977013      0.97707747142004
  H   -1.38436547993440      0.55744242421838      1.74248460986010
  C   -0.53010064825215     -0.72805494689214     -1.41039641629852
  H   0.09519225578514     -0.24599858933122     -2.16850347381386
  H   -1.56715194640165     -0.68404572424620     -1.74775696350860
  H   -0.24918324996394     -1.78850374820536     -1.36930638558681
