15
Coordinates from ORCA-job run
  C   0.87170429321915      0.16201212976492      0.41608250524675
  C   -0.38017605686517     -0.00380629239151     -0.08211875737106
  C   1.07632697304313      0.60422989574481      1.76385111874604
  N   1.27412551892741      0.95231261541830      2.87001426275189
  N   2.04830456797330      0.05582005398668     -0.34927080870993
  H   1.95555168613002     -0.57733621179247     -1.13119485904938
  H   2.86244771308011     -0.17283809813195      0.20041132434250
  C   -0.52993512553162     -0.42664103294306     -1.51968256468498
  H   -1.57798981168428     -0.43713164061761     -1.82456970088743
  H   -0.13275699114634     -1.43859909460835     -1.68301664057757
  H   0.00627866313836      0.24603409845127     -2.19814316263452
  C   -1.61864303504220      0.21646000970448      0.73237442472611
  H   -1.39007573468524      0.47117881712659      1.76822505564796
  H   -2.24707224613111     -0.68126682211656      0.72848692754654
  H   -2.21909041442553      1.02957157240445      0.30855087490709
