12
Coordinates from ORCA-job run
  C   -0.38550299734626      0.24719006603412     -0.06653820635893
  C   0.96488529875990      0.06325814544299      0.00352358677760
  C   -1.39887395696767     -0.82871215300798      0.17608996135473
  H   -2.05438809905174     -0.53945209402395      1.00211378945457
  H   -0.92323475382601     -1.78037831782241      0.41271593225141
  H   -2.02586771505652     -0.95197310384785     -0.71110742290949
  C   -0.87967510998119      1.54971091907760     -0.39231089362597
  N   -1.33072188903597      2.60531878135686     -0.65828798118842
  C   1.51829143583915     -1.21804065088973      0.32325399357537
  N   1.96703918916513     -2.27435716047714      0.58441388992525
  C   1.88996580033092      1.12867307157996     -0.23773728900624
  N   2.65808279717025      1.99876249657753     -0.43412936024989
