12
Coordinates from ORCA-job run
  C   -0.37912010988074      0.04619739486217     -0.26235550564684
  C   0.95899320258720     -0.11234495212499     -0.04635673521576
  C   -1.40237301053904      0.16301176886297      0.82517771556150
  H   -1.93643372162001      1.11240434856223      0.73135769821785
  H   -0.94413692300160      0.10643628964192      1.81253303936503
  H   -2.13964958833864     -0.63808543360067      0.72634124848462
  C   -0.84931003161273      0.10380975852021     -1.61227319748976
  N   -1.28336667489277      0.15691323058181     -2.70632553423764
  C   1.48821001868431     -0.17691155013355      1.28241352686969
  N   1.91914891206680     -0.22882445428045      2.37651682477671
  C   1.89469112273839     -0.22057908837346     -1.12416715981104
  N   2.67134680380885     -0.31302731251819     -2.00386192087437
