12
Coordinates from ORCA-job run
  C   -0.38716607599855      0.24089940860699     -0.07685785563531
  C   0.96359492182069      0.07743307267153      0.02828143383410
  C   -1.39001615609348     -0.85067132709363      0.13707001380697
  H   -0.90647258646629     -1.79592240525831      0.38373744641839
  H   -1.99202500210481     -0.98087425793805     -0.76639977928944
  H   -2.07149929378783     -0.57438756622092      0.94624401615696
  C   -0.89248527324789      1.53672980214746     -0.41217305180907
  N   -1.35189216843329      2.58658598314699     -0.68657419457508
  C   1.52821106567182     -1.19530088588271      0.36187379378644
  N   1.98740970683081     -2.24377478314100      0.63610913766493
  C   1.87758184647535      1.15772463686735     -0.18768449600096
  N   2.63475901533346      2.04155832209432     -0.36362646435793
