12
Coordinates from ORCA-job run
  C   -0.36646131186311      0.07911827114580     -0.27266724017221
  C   0.95234072170808     -0.16343194966681     -0.01941705371162
  C   -1.42067635924104      0.20255392307058      0.78398613904606
  H   -1.89751783347981      1.18444421599828      0.71824130973707
  H   -1.00307419604718      0.07451494965332      1.78239291578521
  H   -2.19739705260511     -0.54949896898066      0.62058377625121
  C   -0.78447520914302      0.22544374495304     -1.63307946876160
  N   -1.17644114571954      0.35208887298069     -2.73719642348705
  C   1.42917941297579     -0.31936399701158      1.32163238137772
  N   1.81828048724024     -0.44613990438663      2.42515921098491
  C   1.92017168823524     -0.27300851394039     -1.06816107544185
  N   2.72607079793948     -0.36472064381564     -1.92147447160785
