12
Coordinates from ORCA-job run
  C   -0.38450086391177      0.24077537929433     -0.09469339262263
  C   0.96374624955469      0.06683483273646      0.02482490390475
  C   -1.40207401391717     -0.81957415243862      0.19368181955851
  H   -2.00110672951322     -1.00971737044914     -0.70112552730515
  H   -0.93159750136457     -1.74946627628218      0.51311468073572
  H   -2.08356705062575     -0.47504386839207      0.97627133469370
  C   -0.87150752018974      1.51577064363997     -0.52367205082749
  N   -1.31661211397898      2.54929312102695     -0.87326541978996
  C   1.89374473279139      1.11583811934765     -0.26457727927130
  N   2.66717680538328      1.97155442696571     -0.49964335756308
  C   1.51023074589006     -1.18648081881869      0.44986590150645
  N   1.95406725988178     -2.21878403663038      0.80021838698046
