12
Coordinates from ORCA-job run
  C   -0.37916638905835      0.04214463502976     -0.26423918024117
  C   0.95723089985685     -0.12193688226999     -0.04201931655509
  C   -1.40127824251175      0.20291285698601      0.81864593084336
  H   -1.92835872715244      1.15273694759751      0.69233525721595
  H   -0.94386334348920      0.17790089042178      1.80765921213838
  H   -2.14527903600548     -0.59504934012035      0.74649399442809
  C   -0.84772827628967      0.06458291415206     -1.61596450231357
  N   -1.27565636516277      0.07478051863561     -2.71381923218171
  C   1.48424660561303     -0.15441321461444      1.28877537416924
  N   1.91133184060057     -0.18123199516735      2.38523339319340
  C   1.89352832333609     -0.27069673978624     -1.11460798431893
  N   2.67399271026313     -0.39173059086435     -1.98749294637794
