12
Coordinates from ORCA-job run
  C   -0.38388017377268      0.24350104809398     -0.08905123444581
  C   0.96477360992220      0.05789832376986      0.00495834323065
  C   -1.40514967107488     -0.80665706869970      0.22278040387721
  H   -2.06612525743894     -0.45383507754869      1.01930152597519
  H   -2.02550175458925     -0.99258398978568     -0.65821942468989
  H   -0.93687892231638     -1.74045025924079      0.53410602257117
  C   -0.86792873845618      1.52150943172031     -0.51233250009519
  N   -1.31041455492651      2.55854638996495     -0.85461248335726
  C   1.89833478065052      1.09801480663460     -0.30411948445154
  N   2.67528233995041      1.94624292511499     -0.55432798593338
  C   1.50823458199933     -1.19885385466668      0.42356354997032
  N   1.94925376005237     -2.23433267535717      0.76795326734853
