12
Coordinates from ORCA-job run
  C   -0.38626769964639      0.24382790621735     -0.07405967773191
  C   0.96492173409985      0.06484257312459     -0.00420753138261
  C   -1.39592398453034     -0.82795948751897      0.19987243740777
  H   -2.04577740828880     -0.52029100458855      1.02395037762095
  H   -0.91687573599361     -1.77297559812823      0.45609237585873
  H   -2.02959780310170     -0.97341547019231     -0.67943105693463
  C   -0.88439869590084      1.53722848411179     -0.42887176149060
  N   -1.33693777909339      2.58667821850366     -0.71584180442723
  C   1.88608605792101      1.12773749552138     -0.27011692688669
  N   2.64902626720387      1.99887256247730     -0.48196154513592
  C   1.52232142001962     -1.20684210001120      0.34517511987487
  N   1.97342362731073     -2.25570357951681      0.63139999322727
