12
Coordinates from ORCA-job run
  C   -0.38418630364406      0.23997772527684     -0.09985594228087
  C   0.96315010975714      0.07056960515881      0.03470768331144
  C   -1.40113915843166     -0.82376574245637      0.17827907101607
  H   -2.08464142685876     -0.48516494611258      0.96185498011623
  H   -0.93025063217639     -1.75499184837884      0.49309927751362
  H   -1.99820767702910     -1.00853696868156     -0.71885631380678
  C   -0.87166312349182      1.51313206597976     -0.53361264242263
  N   -1.31864288787746      2.54370841261261     -0.88965576051608
  C   1.89382581883908      1.12265653354693     -0.24055305402009
  N   2.67053060075687      1.97970604195023     -0.45999385192053
  C   1.50908230282779     -1.18200443886251      0.46280286320245
  N   1.95414237732835     -2.21428644003333      0.81178368980718
