12
Coordinates from ORCA-job run
  C   -0.38620922186778      0.24823301696875     -0.06214005993127
  C   0.96449919523196      0.05988800561812     -0.01308971772475
  C   -1.39876922075775     -0.82805672804289      0.18215079606245
  H   -0.92225164632917     -1.78370826463958      0.40060814364161
  H   -2.04101011168693     -0.54676103780946      1.02126052890003
  H   -2.03920850768834     -0.93939176783646     -0.69705190077197
  C   -0.88155118655796      1.55669065720736     -0.36095640196501
  N   -1.33381961154475      2.61820757140805     -0.60007998259509
  C   1.51919891381793     -1.22536525648477      0.28775930746955
  N   1.97118136260114     -2.28209926171931      0.54122506129935
  C   1.88939714930831      1.12586198413668     -0.25274631750206
  N   2.65954288547334      1.99450108119351     -0.44793945688282
