12
Coordinates from ORCA-job run
  C   -0.38791075457963      0.24878010454073      0.00066231239191
  C   0.96512142881084      0.08790089137741     -0.07319963039305
  C   -1.36334434301860     -0.87299740737154      0.18427145623007
  H   -0.86265044882268     -1.84125979946287      0.18925926048703
  H   -2.10331329154043     -0.85394921049083     -0.61977304185946
  H   -1.90309347002730     -0.74416067442617      1.12605344690691
  C   -0.93127908146788      1.56638897307716     -0.11621207506692
  N   -1.44999341729945      2.61947062746701     -0.22349677431208
  C   1.85498392367918      1.19483006707011     -0.24494800065258
  N   2.60228051949197      2.09381676492006     -0.38390049520559
  C   1.55489874747057     -1.21278108163719      0.03043417592082
  N   2.02330018730339     -2.28803925506390      0.12984936555293
