12
Coordinates from ORCA-job run
  C   -0.37165385762411      0.25627449635690     -0.10250022850706
  C   0.96393867227530      0.03358428937924      0.06791859486188
  C   -1.43414464302932     -0.77858085421549      0.10531605580469
  H   -1.00786785919874     -1.73423118471164      0.41025057946255
  H   -2.13644486407831     -0.43848887257725      0.87121784607662
  H   -2.00080413026296     -0.91714876001369     -0.81943803311445
  C   -0.79881824733355      1.56065734405312     -0.50621418507309
  N   -1.19535251680071      2.61926771272973     -0.83871642910960
  C   1.93830452772404      1.06045164714089     -0.14469046163881
  N   2.74758570487983      1.89767123005533     -0.31743786379088
  C   1.45111126510829     -1.25096830602934      0.47116930587473
  N   1.84614594834023     -2.30848874216780      0.80412481915341
