12
Coordinates from ORCA-job run
  C   -0.37949234330102      0.04629333005592     -0.26118684677277
  C   0.95713236636051     -0.12747589393786     -0.04773796476239
  C   -1.39604691058520      0.20178340262282      0.82761889664013
  H   -2.14741049582679     -0.58840092893982      0.74663424047717
  H   -1.91390014236058      1.15835945908990      0.71637981887406
  H   -0.93554875905897      0.15666860166826      1.81459200841588
  C   -0.85490189708787      0.08399434193606     -1.60996950112845
  N   -1.29114725891380      0.12206930742300     -2.70388769712136
  C   1.49141910858671     -0.17443936307872      1.27980409658768
  N   1.92547219239250     -0.21194788734337      2.37319848145149
  C   1.88600582769663     -0.27283407457809     -1.12718549354812
  N   2.65841831209787     -0.39307029491811     -2.00726003911329
