12
Coordinates from ORCA-job run
  C   -0.37483097478847      0.04287531914971     -0.26423939458261
  C   0.95966274655565     -0.13164289214381     -0.04158899130392
  C   -1.39324005365472      0.24793831849788      0.81551420126222
  H   -2.15865629663050     -0.52887187460920      0.74701001649560
  H   -0.94042341756293      0.21161338389676      1.80659416061202
  H   -1.89007566844183      1.21303766194457      0.68281421593010
  C   -0.85064911679625      0.02296246696376     -1.61203447823541
  N   -1.28690314812946      0.02300983227219     -2.70655978392344
  C   1.48716615925583     -0.11774486520705      1.29010353820675
  N   1.91759085747162     -0.10287673957863      2.38576237545081
  C   1.88533019308882     -0.34470912704933     -1.11191012747372
  N   2.64602871963224     -0.53659148413685     -1.99046573243842
