12
Coordinates from ORCA-job run
  C   -0.38342698420051      0.06401152339820     -0.25140765814484
  C   0.95803343549388     -0.10893531086235     -0.07054542175803
  C   -1.38873424043808      0.09468607909164      0.85828106009612
  H   -0.91536202369745     -0.03964557947183      1.83084277272679
  H   -2.12949495074516     -0.69539910816102      0.70799459344248
  H   -1.92171983179911      1.04931602925673      0.84762534316824
  C   -0.87543417394117      0.22979722374848     -1.58447711309365
  N   -1.32497524073857      0.37067039245070     -2.66456148401139
  C   1.87612979088019     -0.12803682095502     -1.16858667380814
  N   2.63968357660483     -0.14236700605732     -2.06438164279638
  C   1.50953582702337     -0.27845707243593      1.23978670954323
  N   1.95776481555779     -0.41564035000227      2.31942951463558
