12
Coordinates from ORCA-job run
  C   -0.38765434440471      0.24449311057158     -0.06709457361151
  C   0.96378047822466      0.07363476644394      0.01402082611241
  C   -1.39135381019285     -0.84719748511642      0.14304526839922
  H   -0.90759847199041     -1.79672363913036      0.37171505905553
  H   -2.06184244358363     -0.57941344988681      0.96421255098732
  H   -2.00405777542820     -0.96403908663439     -0.75510693495969
  C   -0.89280627271783      1.54743224533058     -0.37313529561575
  N   -1.35315936928617      2.60273992922314     -0.62380793009351
  C   1.52818961353125     -1.20681514970912      0.31730852797634
  N   1.98693779456043     -2.26167151925545      0.56670081958614
  C   1.87972547313174      1.15378615420004     -0.19460410214535
  N   2.64083912815571      2.03577412396328     -0.36325421569116
