12
Coordinates from ORCA-job run
  C   -0.38484643303970      0.24031174167118     -0.09399941254307
  C   0.96418727036055      0.06329413277100      0.01127834662322
  C   -1.40272049658370     -0.81078907562740      0.22532519000297
  H   -2.01485754313888     -1.01252816059538     -0.65797341242600
  H   -2.07178232689414     -0.45122446589874      1.01185444755892
  H   -0.93149269768235     -1.73751292605891      0.55277841031310
  C   -0.87202815348037      1.51062217597079     -0.53678837483843
  N   -1.31561395094959      2.54155325002037     -0.89553201007586
  C   1.89408165681665      1.10221596601285     -0.31291210416532
  N   2.66798715650342      1.94718304265309     -0.58286147185891
  C   1.51154939224601     -1.18312978651142      0.45517776546425
  N   1.95553612584213     -2.20899589440743      0.82365262594514
