12
Coordinates from ORCA-job run
  C   -0.38712673209721      0.24340200949985     -0.07666279809588
  C   0.96297902524643      0.07635863605446      0.03115445402387
  C   -1.39262137893173     -0.84645520664760      0.13352463217684
  H   -2.07613051989989     -0.56832910072270      0.94026540001197
  H   -0.91190439094967     -1.79268770572113      0.38184747597356
  H   -1.99141868047004     -0.97549691403840     -0.77227441108943
  C   -0.88908147291591      1.54065752939725     -0.41130495399397
  N   -1.34718376398396      2.59165426519931     -0.68328777275722
  C   1.52293310041653     -1.19907836128635      0.36307364294616
  N   1.97845119387679     -2.24952889738814      0.63590908472409
  C   1.88228133379568      1.15236173446731     -0.18281190535949
  N   2.64882228591298      2.02814201118614     -0.35843284856051
