12
Coordinates from ORCA-job run
  C   -0.38532206485362      0.24839236899515     -0.06323972203281
  C   0.96522414237147      0.05540607743635     -0.02470317559027
  C   -1.39963051832321     -0.81491117289486      0.22644691437180
  H   -2.05356430759893     -0.94920481638061     -0.63936236089453
  H   -2.02790768982218     -0.50564051083471      1.06618978655818
  H   -0.92480418096628     -1.76599738100853      0.46684096793754
  C   -0.87894271779896      1.54820619927281     -0.40021481349463
  N   -1.33153714612639      2.60186369169272     -0.67117254452306
  C   1.89112698985997      1.11037320664366     -0.30519467791874
  N   2.65992198278310      1.97237710293808     -0.53270311950546
  C   1.51773827037627     -1.22375338955986      0.30480193608196
  N   1.96669724009877     -2.27811137630018      0.57331080901002
