12
Coordinates from ORCA-job run
  C   -0.37972445451882      0.07104819865403     -0.25542901907317
  C   0.96155370973109     -0.08206454082587     -0.05593594541916
  C   -1.40767368952863      0.01513068016525      0.83228808695822
  H   -0.95100341713608     -0.16408874070950      1.80563687595956
  H   -2.12622228827610     -0.78153311042258      0.62097688627823
  H   -1.96317709925702      0.95638616176970      0.86465825807147
  C   -0.84832206058624      0.30133799053151     -1.58748083619648
  N   -1.27843136571373      0.49270478400655     -2.66768423300971
  C   1.48970301758179     -0.31463064015088      1.25442013711625
  N   1.91781046934099     -0.50595088981004      2.33399940901258
  C   1.90165998802577     -0.01978305161631     -1.13361403941295
  N   2.68282719033699      0.02944315840813     -2.01283558028482
