12
Coordinates from ORCA-job run
  C   -0.37070678595565      0.09848009818895     -0.26331671175202
  C   0.94345040790726     -0.19602717858064     -0.04127311966273
  C   -1.39135537250740      0.26902244079769      0.81884932576114
  H   -2.19644783446312     -0.45895389598673      0.68529804391705
  H   -0.95064542033443      0.13569376765709      1.80710222879797
  H   -1.83752306787049      1.26527881653039      0.75592610836276
  C   -0.81747498467948      0.24268686899454     -1.61440479475800
  N   -1.22698456626529      0.36869561860491     -2.71228113271066
  C   1.87745694046273     -0.36094450418637     -1.11456876238628
  N   2.65370478851866     -0.49772158467580     -1.98873642581251
  C   1.45006851843680     -0.36357427463667      1.28748842151374
  N   1.86545737675039     -0.50263617270744      2.37991681872954
