17

C	-0.362873	-0.038368	-1.495421
C	0.0	0.0	0.0
Br	-2.288479	-0.244959	-1.766925
H	1.09752	0.0	0.0
N	0.059272	1.319231	-2.084726
O	-0.737904	2.250819	-2.063001
O	1.219732	1.365673	-2.472052
N	0.315004	-1.044224	-2.247516
H	1.307185	-0.986421	-2.013328
H	-0.035854	-1.952116	-1.9662
C	-0.433616	-1.258402	0.596858
N	-0.799433	-2.266711	1.077244
C	-0.496048	1.200345	0.799914
H	-0.147553	1.098999	1.829474
H	-0.070646	2.119405	0.39686
H	-1.585514	1.273403	0.791275
Cl	3.271033	0.0	0.0
