17

C	-0.428351	0.109652	-1.45734
C	0.0	0.0	0.0
Br	-2.512222	0.494052	-1.511135
H	1.105572	0.0	0.0
N	0.082719	1.355834	-2.17699
O	0.046258	1.311658	-3.402326
O	0.466106	2.298314	-1.50295
N	-0.071673	-0.970096	-2.217698
H	-0.287454	-0.887057	-3.19845
H	-0.258588	-1.872615	-1.80965
C	-0.411074	-1.327114	0.456153
N	-0.739187	-2.400823	0.804432
C	-0.484987	1.051851	0.999475
H	-0.180604	2.04334	0.679116
H	-0.00064	0.838302	1.954675
H	-1.567131	1.017919	1.127823
Cl	3.242216	0.0	0.0
