17

C	-0.244493	-0.000722	-1.510715
C	0.0	0.0	0.0
Br	-0.158984	-1.902739	-2.230314
H	1.096935	0.0	0.0
N	-1.669801	0.389817	-1.899636
O	-2.565832	0.075019	-1.125282
O	-1.815187	0.974167	-2.968371
N	0.648814	0.872781	-2.111519
H	0.58203	0.888454	-3.118754
H	1.601942	0.712643	-1.774013
C	-0.537645	-1.13691	0.727861
N	-0.962587	-1.996168	1.407073
C	-0.436413	1.320492	0.649524
H	-1.521433	1.386214	0.744431
H	-0.061192	2.154234	0.055424
H	0.013839	1.379313	1.642071
Cl	3.275694	0.0	0.0
