17

C	-0.480378	-0.066084	-1.444698
C	0.0	0.0	0.0
F	-1.881721	-0.2727	-1.419545
H	1.095013	0.0	0.0
C	-0.283467	1.219137	-2.140468
N	-0.165807	2.190152	-2.789297
C	0.167652	-1.193979	-2.214385
H	-0.207498	-1.218566	-3.239819
H	-0.061069	-2.126621	-1.700743
H	1.250217	-1.0449	-2.21094
N	-0.392962	-1.249577	0.64958
H	0.217266	-1.402961	1.442659
H	-1.350602	-1.189928	0.975447
N	-0.452055	1.244844	0.602386
H	-1.414369	1.162446	0.909371
H	0.132423	1.459158	1.400046
Br	3.548205	0.0	0.0
