17

C	-0.447851	0.017478	-1.461576
C	0.0	0.0	0.0
F	-0.211224	-1.248606	-2.019893
H	1.101327	0.0	0.0
C	-1.906319	0.244216	-1.548417
N	-3.059002	0.453399	-1.628815
C	0.328941	1.039818	-2.262709
H	0.041575	0.987029	-3.315162
H	0.126957	2.035309	-1.869201
H	1.39336	0.820065	-2.147661
N	-0.577959	-1.171059	0.663804
H	-0.345543	-1.988543	0.109
H	-0.078461	-1.282404	1.541471
N	-0.438735	1.238798	0.614517
H	0.243336	1.532363	1.302145
H	-1.328935	1.073477	1.071543
Br	3.612854	0.0	0.0
