17

C	-0.479999	-0.056558	-1.445225
C	0.0	0.0	0.0
F	-1.881053	-0.261798	-1.421908
H	1.094993	0.0	0.0
C	-0.279988	1.232621	-2.132622
N	-0.160126	2.20803	-2.774359
C	0.166732	-1.180716	-2.22132
H	-0.063583	-2.115972	-1.713215
H	-0.208528	-1.198799	-3.246877
H	1.249668	-1.03372	-2.217356
N	-0.393725	-1.254037	0.641105
H	-1.351652	-1.195562	0.966558
H	0.216249	-1.412825	1.433452
N	-0.452293	1.241084	0.610565
H	0.130814	1.447471	1.411646
H	-1.414805	1.156274	0.916238
Br	3.548084	0.0	0.0
