17

C	-0.428227	-0.062828	-1.467365
C	0.0	0.0	0.0
F	-1.837868	-0.184106	-1.503576
H	1.095569	0.0	0.0
C	-0.134047	1.21401	-2.147933
N	0.057635	2.219216	-2.723098
C	0.189633	-1.225866	-2.206305
H	1.277727	-1.130443	-2.163277
H	-0.106036	-2.138973	-1.692069
H	-0.147943	-1.242464	-3.244834
N	-0.447337	-1.230548	0.638696
H	0.15752	-1.377596	1.438834
H	-1.383953	-1.076109	0.996381
N	-0.466322	1.208224	0.675698
H	0.250774	1.920999	0.618282
H	-1.308757	1.565514	0.239094
Br	3.549941	0.0	0.0
