15
Coordinates from ORCA-job run
  C   0.55418221362059      0.41962926163970      0.16420564428846
  C   -0.76090320566302     -0.26585861052029     -0.29198402336846
  Br  0.14764057562457      1.96855513491774      1.28150397576938
  H   -0.43514170087984     -1.16409366552331     -0.84445494794246
  C   1.45127097820249     -0.53946223707976      0.93980352862179
  H   1.68050726734547     -1.41346912131044      0.32304861621099
  H   2.38489701777031     -0.04628449703450      1.21031356747229
  H   0.94700345752634     -0.86151193540484      1.85233069587805
  C   1.22586625160461      0.89780201243039     -1.04200683252816
  N   1.76435469321237      1.21592629659430     -2.03760359351341
  N   -1.57769215380877      0.63975081294796     -1.07897093088501
  H   -1.21328029452675      0.70356325409377     -2.02226610132044
  H   -2.53470260964281      0.31444205247698     -1.12501587123412
  C   -1.50774916403504     -0.73498028010426      0.87860749580046
  N   -2.12425332635052     -1.13200847812344      1.79548877675061
