15
Coordinates from ORCA-job run
  C   0.70534514116382      0.41375065122678     -0.20960571642701
  C   -0.78028728625340      0.13402350541380     -0.57433027943717
  Br  0.99377928045507      2.34710858528782     -0.34253078876937
  H   -0.96241085951924      0.59020468208843     -1.55188827040963
  C   1.04495003142964     -0.05098968872039      1.20003236364851
  H   2.08919980986479      0.16368047906143      1.42719757402376
  H   0.88286265890297     -1.13001534539427      1.28187811296335
  H   0.41277711722161      0.47793765024485      1.91373456422510
  C   1.57134472418754     -0.21953513109995     -1.20006138701513
  N   2.25810496786084     -0.75795227924276     -1.98814553391063
  N   -1.66998560726135      0.72844314329347      0.40426319823177
  H   -1.90861066317560      0.06876141283232      1.13324270264366
  H   -2.52521739146764      1.04179956057063     -0.03388786431631
  C   -0.96343652418041     -1.32392248197500     -0.70871255488002
  N   -1.14641539922864     -2.48429474358716     -0.75118612057088
