15
Coordinates from ORCA-job run
  C   0.60405841493898      0.35119620083783      0.07544849331692
  C   -0.74554352139810     -0.25490758731205     -0.36775840717002
  Br  0.26019793276194      2.03230354743046      1.03504629101871
  H   -0.48875961018529     -1.16782642611727     -0.92021291211643
  C   1.38523210099601     -0.58472747773023      0.99082306264674
  H   0.81989681681347     -0.78162820141630      1.90260814642557
  H   1.57265671785482     -1.52812329661718      0.46916992729473
  H   2.34263230168568     -0.13722501435084      1.25791789507063
  C   1.37989233093317      0.67112802498439     -1.11955485524507
  N   2.05360535379986      0.86680086674332     -2.06246873927477
  N   -1.43820120021306      0.62863868086161     -1.27999695004720
  H   -2.18740841921942      0.13522389612119     -1.74923857097881
  H   -1.83476232888051      1.41557901760453     -0.78025579645988
  C   -1.52732031405038     -0.66341443122214      0.81740569250890
  N   -2.19517657583716     -0.98301779981733      1.73006672300998
