15
Coordinates from ORCA-job run
  C   0.66804716933980      0.37519196571173     -0.17034251672986
  C   -0.87210510017791      0.21397349534287     -0.18517534468288
  Br  1.12954413275065      1.95329803366053     -1.23701135057093
  H   -1.28162852182814      1.10596730554559      0.30036580886763
  C   1.19204320866167      0.56162382598089      1.24880868175451
  H   0.91861071445642     -0.30742644109876      1.84688933777030
  H   2.27590940889396      0.67941205331527      1.23652976242900
  H   0.74557145078060      1.45736242180088      1.68574488523593
  C   1.27030605143129     -0.79530377522552     -0.80236057225744
  N   1.72341206125999     -1.77596027116035     -1.26674744045086
  N   -1.22644304482562     -0.95187092358616      0.60887977678462
  H   -2.20743684641136     -0.91708012393743      0.85846527633442
  H   -1.07221307187416     -1.80008798475358      0.07388072978769
  C   -1.39382200171766      0.16258252617579     -1.56480765916374
  N   -1.86779561073950      0.03931789222824     -2.63311937510836
