15
Coordinates from ORCA-job run
  C   0.60092301488646      0.35805885827484      0.05937073228829
  C   -0.75567619296350     -0.26086031493795     -0.34323339852190
  Br  0.26821424614346      2.01420708302894      1.06537797805708
  H   -0.50779594181211     -1.16066704645301     -0.92054229302115
  C   1.43173383701063     -0.58263796785724      0.92465723642868
  H   1.61121823539519     -1.51335454925955      0.37791445926281
  H   2.39274666278995     -0.12571888152680      1.16135287642480
  H   0.90666591615833     -0.80475957814801      1.85464056049234
  C   1.32447434651938      0.71465666574290     -1.15790494717447
  N   1.95888665422324      0.94370392157284     -2.12026189406683
  N   -1.49503255592888      0.62788663801294     -1.21277907753991
  H   -1.88618007865332      1.39845462663835     -0.68416726994565
  H   -2.25234917097460      0.13089510812831     -1.66473528626160
  C   -1.48577280610448     -0.69975851539590      0.86403697361566
  N   -2.11305616668975     -1.04110604782067      1.79727334996188
