15
Coordinates from ORCA-job run
  C   0.68666658687251      0.34215390199504     -0.16742937556677
  C   -0.85950377628252      0.25515858979339     -0.18867606142984
  Br  1.22879141125678      1.89651473385789     -1.23089749197962
  H   -1.22674362436478      1.16577716157680      0.29617460613096
  C   1.21266389178373      0.50261943562497      1.25425170840227
  H   0.80710277720490      1.41823344407385      1.68991330692694
  H   2.30095486876950      0.56906641416115      1.24696784312292
  H   0.89596452149237     -0.35288206044540      1.85050953898022
  C   1.23385765054691     -0.85590241293470     -0.79771419008256
  N   1.63067312332558     -1.85997610370445     -1.26360300217388
  N   -1.27258144388773     -0.89248304522087      0.60333877304392
  H   -1.15559412043558     -1.74712020430982      0.06920657726346
  H   -2.25193959098318     -0.81143648904499      0.84843763740299
  C   -1.37787817421313      0.23076595413626     -1.57005193108972
  N   -1.85243410108542      0.14051068044091     -2.64142793895130
