15
Coordinates from ORCA-job run
  C   0.71711358757346      0.40808866439891     -0.17755220481121
  C   -0.75363172608048      0.14286462620177     -0.60788699240801
  Br  1.02907692121433      2.33870865943029     -0.28990954203818
  H   -0.88806209293506      0.60046519415962     -1.59244913098521
  C   0.99106005980687     -0.06527271077808      1.24347100336113
  H   2.02622377496231      0.13982336725648      1.51651897202111
  H   0.33322473121987      0.46609796573443      1.93175215225928
  H   0.81656800433895     -1.14314269445101      1.31361401807456
  C   1.61927151495379     -0.22998238654712     -1.13218384225853
  N   2.33286130330801     -0.77110174596950     -1.89421578091256
  N   -1.68030117459442      0.74532484523555      0.33055008121502
  H   -2.51200837038070      1.06707942130444     -0.14496572674536
  H   -1.95702102004371      0.08802230658746      1.04811473653735
  C   -0.94314263422507     -1.31380235986726     -0.74955243995293
  N   -1.13123287911816     -2.47317315269598     -0.79530530335647
