15
Coordinates from ORCA-job run
  C   0.60070936518732      0.34501543975845      0.16644570522373
  C   -0.80114100063149     -0.15968541676126     -0.26606742244125
  Br  0.41917005203828      1.80598988108218      1.44928462412489
  H   -0.60084498674641     -1.02578437673883     -0.92032956589440
  C   1.43538654338271     -0.77005792908984      0.78790681105042
  H   1.54108003195280     -1.59463770191855      0.07678808821765
  H   2.42752745509394     -0.39897705906271      1.04483084659012
  H   0.95059085965149     -1.13351050644882      1.69542884120257
  C   1.25201329974548      0.87442684214580     -1.02947771321855
  N   1.77125255615656      1.23880293072445     -2.01940801600623
  N   -1.56219429189713      0.89578702359291     -0.90898307290121
  H   -1.23714151169168      1.02695414923773     -1.85975415115984
  H   -2.54698547226649      0.66460922985159     -0.93500311550091
  C   -1.52688427080128     -0.66864162560476      0.90113094013446
  N   -2.12453862917410     -1.09929088076839      1.81520720057845
