15
Coordinates from ORCA-job run
  C   0.54560867833803      0.29227945430443      0.17136045231106
  C   -0.82844021572167     -0.21836005949890     -0.37170175606045
  Br  0.22383959806581      1.67895623548597      1.52109426714347
  H   -0.57357277779301     -0.98736828842587     -1.11364560030306
  C   1.38157672907061     -0.82441829735624      0.78383358234119
  H   0.86003269609105     -1.25329604068552      1.64050864953916
  H   1.54909749149712     -1.60498061969679      0.03547731143432
  H   2.34789133188280     -0.44156506568922      1.11308814476077
  C   1.24090574883507      0.92153055887017     -0.94739000141792
  N   1.77021878841605      1.38367920359784     -1.89027784971209
  N   -1.68656083974662      0.74312455124486     -1.01761715437244
  H   -1.24201532273851      1.11860113322025     -1.84669046312866
  H   -1.91576289935758      1.50283853446076     -0.38829809140962
  C   -1.55438931305708     -0.88684568549569      0.71637202822055
  N   -2.11842969378209     -1.42517561433607      1.59388648065374
