15
Coordinates from ORCA-job run
  C   0.54323282242148      0.29577529259772      0.17404008750399
  C   -0.82519763659135     -0.22289078785568     -0.37572516621336
  Br  0.20693467790332      1.67994584309330      1.52284876977722
  H   -0.56180871444548     -0.98833692172882     -1.11836570984362
  C   1.38304610462372     -0.81606433433845      0.79010434389222
  H   1.55748645960528     -1.59618155720997      0.04281946692430
  H   0.86074015644052     -1.24737158157882      1.64510806039755
  H   2.34606757615911     -0.42774599136113      1.12263987739189
  C   1.23955094177151      0.92960126128046     -0.94149584918091
  N   1.76687811371568      1.39595270788493     -1.88343946413797
  N   -1.68717260921119      0.73392651552266     -1.02325342963624
  H   -1.92365792902159      1.49115335185385     -0.39370697090023
  H   -1.24210109672032      1.11343830047661     -1.85016770350219
  C   -1.55056944404545     -0.89917727595111      0.70783578942510
  N   -2.11342942260513     -1.44302482268556      1.58275789810222
