15
Coordinates from ORCA-job run
  C   0.57934474147316      0.39338773874302      0.14268109365950
  C   -0.78508401909246     -0.22834323829823     -0.25686195358667
  Br  0.29586540144966      1.93899877687661      1.30189703044523
  H   -0.52598709543822     -1.12973820639564     -0.83875295482279
  C   1.47216427752741     -0.61549445551645      0.85760987872772
  H   2.43735642370298     -0.16565274896082      1.09025524959016
  H   1.63511645741906     -1.48664388677798      0.21622061472922
  H   0.99988033618131     -0.93376438128034      1.78838543195474
  C   1.20856397755957      0.86371658990412     -1.08910451209697
  N   1.69057364492913      1.18132621644886     -2.11343127922467
  N   -1.60112238541695      0.72446019393116     -0.98660986551089
  H   -1.27813562417258      0.79532613307454     -1.94438117761986
  H   -2.57108474495210      0.43651416534533     -0.99437268971762
  C   -1.49079448936596     -0.68690385703370      0.94297342309649
  N   -2.06665690180400     -1.08718904006048      1.88449171037641
