15
Coordinates from ORCA-job run
  C   0.73313277373294      0.24254993247656     -0.14054542002862
  C   -0.79803417365019      0.25330478851519     -0.37145558418108
  Br  1.56186319461847      1.43294275693032     -1.45838817445483
  H   -1.13264605281184      1.27870955563702     -0.18225622770342
  C   1.08514727832621      0.72823522359189      1.26077067022624
  H   0.72311095977602      1.75013426650205      1.39213633551237
  H   0.60803714229862      0.07823220235434      1.99397836053573
  H   2.16631127537401      0.71785918707343      1.40142746319642
  C   1.23338975521732     -1.11021131593673     -0.36872284680539
  N   1.58701743512419     -2.22269288583622     -0.51009282871241
  N   -1.42260642577221     -0.62613712229164      0.60415278284463
  H   -2.41265762187538     -0.42305591909004      0.67109577701882
  H   -1.32309208195225     -1.59428508261195      0.31734483225089
  C   -1.13447940381707     -0.08699590020468     -1.76745059906273
  N   -1.47549405458883     -0.41858968710953     -2.84199454063659
