15
Coordinates from ORCA-job run
  C   0.63731291601017      0.38488247437157     -0.19143633521036
  C   -0.81524464162307      0.03310993872101     -0.66672893808302
  Br  0.82074967954964      2.34077241501787     -0.29047474833189
  H   -0.90895019167428      0.40297568707371     -1.69354989496370
  C   0.92682560647160     -0.07283416519732      1.23114773383807
  H   1.94098761458937      0.20476529208414      1.51886205580478
  H   0.82837880430304     -1.16006591800986      1.29283658345733
  H   0.23166366841214      0.39850715097007      1.92719588525592
  C   1.59747740239783     -0.18249219368327     -1.13145764165294
  N   2.35571654911227     -0.66943506132465     -1.88735715870131
  N   -1.90908961671753      0.56837142190590      0.10574925427207
  H   -1.91724406752417      0.20885757940538      1.05113176649947
  H   -1.87553131646143      1.57948734847300      0.12369635837110
  C   -0.92355077496013     -1.43274633909646     -0.70057725029268
  N   -0.98750163188546     -2.60515563071113     -0.68803767026285
