15
Coordinates from ORCA-job run
  C   0.66911895694890      0.25186894771770     -0.19014614541091
  C   -0.86285163441581      0.17464357980003     -0.48205446100943
  Br  1.49632816660244      1.39460710378662     -1.55139032965293
  H   -1.23245111418551      1.20608017894584     -0.44345681310217
  C   0.94740520620024      0.85540421569744      1.18288147329315
  H   0.48307569386995      1.84167709521464      1.25345867951446
  H   2.02100130200708      0.96336793319579      1.33752018813416
  H   0.55404684516606      0.20537781899914      1.96736834838809
  C   1.24026255113266     -1.08656291835200     -0.29525672508162
  N   1.62663638826775     -2.19614828738242     -0.34495785968491
  N   -1.62722435922187     -0.62304557167763      0.44883567877127
  H   -1.61667852155450     -0.23340698869966      1.38080647664824
  H   -1.31617331609577     -1.58682811571204      0.46647211051248
  C   -1.09349457649216     -0.34286045272130     -1.83827708528830
  N   -1.29000158822951     -0.82417453881212     -2.89080353603162
