15
Coordinates from ORCA-job run
  C   0.63529381001284      0.38188283203930     -0.20931624413184
  C   -0.82375708077625      0.02146507033510     -0.65847971540991
  Br  0.81635924893357      2.33572272378542     -0.34603575868521
  H   -0.93099418758941      0.37378415093953     -1.69014123734730
  C   0.94445330029093     -0.05002797900284      1.21712818846566
  H   1.96194718887434      0.23379812208157      1.48630120605964
  H   0.25785388305268      0.43325736258929      1.91346184105863
  H   0.84785903558329     -1.13599828303803      1.29979953011111
  C   1.58162324246575     -0.20279131870286     -1.15266526661687
  N   2.33116221791833     -0.70676427196736     -1.90599982942664
  N   -1.90755230835032      0.56971545736295      0.11893432800043
  H   -1.90426949791892      0.22515429229154      1.06990383823895
  H   -1.87389141039379      1.58099999802279      0.11992590250940
  C   -0.93213696694777     -1.44483469314466     -0.66187389751915
  N   -1.00395047515529     -2.61536346359175     -0.60094288530689
