17

C	0.0	0.0	0.0
C	-0.375678	0.192634	-1.490829
F	1.363814	0.0	0.0
H	0.602676	0.190364	-1.991818
H	-0.393379	0.766011	0.656881
N	-0.366603	-1.294164	0.669698
O	-0.190418	-2.337618	0.042757
O	-0.671198	-1.234888	1.857646
C	-1.001547	1.582604	-1.633319
H	-1.123544	1.844122	-2.689433
H	-1.963472	1.509915	-1.119919
H	-0.375006	2.354995	-1.169281
C	-1.258082	-0.84961	-2.177806
H	-2.197852	-0.860595	-1.618607
H	-0.796526	-1.839009	-2.181201
H	-1.41276	-0.536149	-3.219365
F	-2.570472	0.0	0.0
