13
Coordinates from ORCA-job run
  C   0.56606681154382     -0.71983621096929     -0.00001280155712
  C   -0.51847983681956      0.33471333852785     -0.20489330099549
  Br  0.62804688731267     -1.35616941284200      1.79405709161683
  H   -0.50726525242483      0.63049147962508     -1.25834862397812
  H   0.38620142810576     -1.55652934354092     -0.67377924576988
  N   1.87784330287557     -0.09083336735287     -0.45962473417216
  O   1.86200676491190      0.21624697718289     -1.64846511131617
  O   2.79232305469831      0.05957613944310      0.33144718165231
  C   -0.34819631061692      1.49420880980294      0.65607535296017
  N   -0.16504117307031      2.44638089830310      1.31884022275623
  N   -1.87162792993877     -0.32442942466570      0.01131525119099
  O   -2.64449256387156      0.19144209020882      0.80393953890849
  O   -2.05938518270608     -1.32426197372299     -0.67055082129610
