13
Coordinates from ORCA-job run
  C   0.55079129140438     -0.72766535283850      0.06866317384514
  C   -0.48627727989826      0.34282399865983     -0.26043394928278
  Br  0.40608051173986     -1.34912659128474      1.86316693438617
  H   -0.35228420876521      0.63164406694950     -1.30737535693988
  H   0.42898570750810     -1.56690092667640     -0.61493814112950
  N   1.91606053403775     -0.12758485317985     -0.25127272963640
  O   2.03316264030032      0.17143864958379     -1.43658567609675
  O   2.74508794437816      0.00837288048364      0.63133243016186
  C   -0.39532495333973      1.50511007613697      0.60846327831173
  N   -0.27315272259461      2.45898254256756      1.28291776152958
  N   -1.86591252395336     -0.29364998205784     -0.19579411287726
  O   -1.99170749400956     -1.29475173568796     -0.88988059060956
  O   -2.71550944680784      0.24030722734399      0.50073697833764
