13
Coordinates from ORCA-job run
  C   0.74676333309848     -0.45644144343233     -0.58461328540002
  C   -0.65773477568373      0.13214193034771     -0.48435012112629
  Br  0.72971726037156     -2.30964146071351     -1.06712623103261
  H   -1.26930614175380     -0.29482237384039     -1.28542715681461
  H   1.29888668178567      0.07163658808434     -1.36540788262261
  N   1.53924326526107     -0.19283620036741      0.69195372025324
  O   1.22737887531192      0.84170701705871      1.26978631377321
  O   2.44002031861874     -0.95913818290372      0.97976960829427
  C   -0.68122653555111      1.58480128804647     -0.61007404017592
  N   -0.68150106464661      2.74400773359341     -0.79827644458776
  N   -1.37924719232953     -0.28157398280778      0.79490669152865
  O   -0.86303539148361     -1.15804554515286      1.47193058655752
  O   -2.44795863299905      0.27820463208734      0.98792824135293
