13
Coordinates from ORCA-job run
  C   0.60924169381613     -0.64312685606964      0.23128870145859
  C   -0.50408533299261      0.23215856057998     -0.33826293063959
  Br  0.44739239213064     -0.88728083066979      2.11326944581406
  H   -0.35664477235184      0.30522452711512     -1.42012369244194
  H   0.59048708941360     -1.61436604985585     -0.26128698274892
  N   1.92741594247311      0.00519244977091     -0.17916736161788
  O   2.06743254407356      0.05669680585687     -1.39803667703502
  O   2.70132258612924      0.40635295391213      0.67215132680341
  C   -0.54731040632375      1.55473008611476      0.26462910285438
  N   -0.53365076848699      2.63655320498158      0.72194653379838
  N   -1.82435773116330     -0.50215024330143     -0.16400050078980
  O   -1.83611004552659     -1.63409201850086     -0.63139284125008
  O   -2.74213319119117      0.08410741006622      0.38898587579441
