13
Coordinates from ORCA-job run
  C   0.71909156961031     -0.59364214363283     -0.48703958127128
  C   -0.64197039394556      0.09598709723029     -0.51259740151346
  Br  0.58059556811491     -2.49570498052923     -0.66567472784359
  H   -1.27220731601052     -0.41108042152628     -1.25002556098082
  H   1.31367671172290     -0.23795872024197     -1.33163960916922
  N   1.51575104169486     -0.18022681850330      0.74586411094625
  O   2.37694848409988     -0.93811491094352      1.15328803915378
  O   1.25386155508283      0.94238367819812      1.16109859379758
  C   -0.56013762791428      1.50795636756349     -0.86790967539459
  N   -0.48469269888601      2.61973436209799     -1.23840932302172
  N   -1.40549333359036     -0.05812754902397      0.79921683148915
  O   -2.42865600577772      0.60449466121722      0.88146939599538
  O   -0.96676755420121     -0.85770062190601      1.61235890781255
