13
Coordinates from ORCA-job run
  C   0.76909762649722     -0.58532202045275     -0.42684219919561
  C   -0.62431685531209      0.03311255494314     -0.56882102320302
  Br  0.64540157549675     -2.48330847765280     -0.22470938455188
  H   -1.13916982573223     -0.47027621464174     -1.38982846295197
  H   1.34581341471870     -0.36657129009508     -1.32525435277836
  N   1.55119345437797      0.06805339870641      0.70901364086762
  O   1.91039963656419      1.20813609152687      0.43522116463899
  O   1.74916270628062     -0.54990668723577      1.73957438202483
  C   -0.60680130552078      1.47304584963778     -0.80058303281405
  N   -0.65229664210619      2.62292194051952     -1.03641282805954
  N   -1.45433680347689     -0.24982833771583      0.66794895461481
  O   -1.05010774103955      0.25788761760133      1.70669536422428
  O   -2.44103924074775     -0.95694442514108      0.51199777718392
