13
Coordinates from ORCA-job run
  C   0.59186175777934     -0.69887221285858      0.01191472591948
  C   -0.50750966642055      0.33101910688669     -0.23482184762558
  Br  0.49713972959947     -1.45604835549427      1.75690713960037
  H   -0.40056806572940      0.69989911348358     -1.25951855402184
  H   0.51510349277947     -1.49212414154253     -0.73041014451357
  N   1.91712876689444      0.00358831258043     -0.26677428458870
  O   2.73769623460974      0.13408809077404      0.62431435718097
  O   2.01138164675639      0.38700502989014     -1.42950563414367
  C   -0.47289722480790      1.43230091997177      0.71408583650743
  N   -0.39845570588562      2.34104050253958      1.45449672531370
  N   -1.84811813687458     -0.38623964809957     -0.20590617580293
  O   -2.71829789592771      0.04667805591738      0.53383917130347
  O   -1.92446493277304     -1.34133477404863     -0.96862131512911
