13
Coordinates from ORCA-job run
  C   0.60859110673663     -0.65777946021152     -0.18829854583486
  C   -0.53322521471703      0.35264685297565     -0.11676128797903
  Br  0.66544412336874     -1.79551131702930      1.33804584129184
  H   -0.51380864572811      0.95004418597509     -1.03341821143365
  H   0.49677937201140     -1.26372871307105     -1.08638597470931
  N   1.89004623804083      0.14572773778690     -0.38653165753143
  O   1.88529851533292      0.78880985635784     -1.43262102585213
  O   2.77286398149347      0.10320611286858      0.45208694596827
  C   -0.45653528772183      1.20993562745716      1.05542205389602
  N   -0.34188325124393      1.93847693383773      1.96957414114204
  N   -1.84803270951156     -0.40943891451865     -0.16377553747822
  O   -2.67069423575376     -0.19505678085927      0.71326649888897
  O   -1.95684399230776     -1.16733212156917     -1.11960324036853
