13
Coordinates from ORCA-job run
  C   0.54730843417402     -0.72265948190264      0.07881794483135
  C   -0.51699115807736      0.31608577320173     -0.26508619181409
  Br  0.52610010005771     -1.18261810341806      1.92870544365288
  H   -0.50220746431615      0.48067115009973     -1.34565727957234
  H   0.38230921389018     -1.62308124904964     -0.51323789074262
  N   1.89574905915932     -0.16976677097814     -0.37866067920568
  O   2.86104769580692     -0.25065704301091      0.35931419507769
  O   1.87057508069310      0.27898916141273     -1.52140650117262
  C   -0.32320884684990      1.57203734268914      0.44229320747416
  N   -0.12258688977556      2.60155078859854      0.97073832005558
  N   -1.88176019363686     -0.28414744089553      0.02777706391089
  O   -2.07964522557256     -1.36738767581927     -0.50884901386075
  O   -2.65568980555293      0.35198354907231      0.72625138136552
