13
Coordinates from ORCA-job run
  C   0.92591531193715      0.10927405474256     -0.20625183546204
  C   -0.57132084121984      0.05701574847140     -0.45152189828120
  Br  1.87164451865131     -0.06919453713695     -1.87069647844332
  H   -0.85574420932994     -0.89545407422157     -0.90117759700573
  H   1.24322292669676      1.02438117677688      0.28733348535242
  N   1.32414250481525     -1.03050491598451      0.69888203977026
  O   2.32321137954334     -0.84756178371429      1.37872423630117
  O   0.62590344055236     -2.03820742530006      0.65849546826544
  C   -1.02512324310252      1.18005578068936     -1.26128254269369
  N   -1.38655327909314      2.09682216353815     -1.90057753613203
  N   -1.31265432117314      0.11707424736611      0.87891679401408
  O   -2.46768875690143     -0.27753117406054      0.85597454161459
  O   -0.69495543137620      0.57283073883344      1.83418132270005
