13
Coordinates from ORCA-job run
  C   0.68173558627667     -0.61932914250943     -0.52001243452799
  C   -0.62782580214635      0.17315410391526     -0.53867347915426
  Br  0.32831681589882     -2.49935648363255     -0.52503428158640
  H   -1.21939336944950     -0.16608101563913     -1.39161629310853
  H   1.25848332447559     -0.37047032550980     -1.41057216771894
  N   1.56790680044939     -0.19947903604076      0.64932002248912
  O   1.72559427423068     -0.95622635642881      1.59026745407108
  O   2.04849748919556      0.91796597084155      0.49449760912900
  C   -0.44237935533549      1.61848805768395     -0.60421636663917
  N   -0.36484896999228      2.78812222029028     -0.68108807581165
  N   -1.45799149629713     -0.15233664371421      0.68773863530229
  O   -0.96325292638421      0.16185821779368      1.76313057867935
  O   -2.53584237092179     -0.69630956705000      0.48725879887612
