13
Coordinates from ORCA-job run
  C   0.66439427799366     -0.62148949183983     -0.53955486221803
  C   -0.62997203374792      0.19624059644080     -0.52837724979852
  Br  0.27560766762488     -2.49405053848271     -0.58070866599793
  H   -1.23624532491846     -0.11311238185744     -1.38234969792359
  H   1.23696885811117     -0.36469643277738     -1.43053057426466
  N   1.56904929594432     -0.24320239815032      0.62963061081844
  O   2.07452388486985      0.86536937266472      0.49091159320768
  O   1.71515695703410     -1.01979060784064      1.55625728967229
  C   -0.41569798809997      1.63850312709457     -0.56584983105612
  N   -0.31504581690991      2.80741828614986     -0.62423025022197
  N   -1.45390501987219     -0.13896884987657      0.69960369190695
  O   -2.54004992766585     -0.66627975177598      0.49962942469361
  O   -0.94578483036374      0.15105907025093      1.77556852118182
