9
Coordinates from ORCA-job run
  C   -0.23678407346640      0.44197032535135     -0.23099711368807
  C   -1.34592592256729     -0.02376042064843      0.35465172363036
  H   -0.29868092884322      1.35792299930705     -0.81730371349630
  H   -1.33374362759742     -0.93237590216573      0.94942247912634
  H   -2.29549866285283      0.49047404728521      0.25724989659021
  C   1.11066788069702     -0.20922174444933     -0.14272760496754
  H   1.84534552584652      0.46850004582080      0.30178079103562
  H   1.07166363017106     -1.11639892413766      0.46375836494861
  H   1.48295617861257     -0.47711042636327     -1.13583482317924
