9
Coordinates from ORCA-job run
  C   -0.20003090469237      0.51284747864458      0.04021129930529
  C   -1.30989695184514     -0.10586362935916      0.45906104548082
  H   -0.19785402572584      1.60043868485856     -0.02117236511437
  H   -1.36022813367391     -1.18798145536581      0.53685206247118
  H   -2.19841593524091      0.45084586457857      0.73513089097769
  C   1.06558323754463     -0.18483912055194     -0.35841352400691
  H   1.33024505617673      0.04418481354837     -1.39481033028643
  H   1.90468244287921      0.13835261467248      0.26454249202271
  H   0.96591521457761     -1.26798525102566     -0.26240157084999
