17

C	-0.481115	-0.06351	-1.444283
C	0.0	0.0	0.0
F	-0.061977	1.128873	-2.070177
H	1.090294	0.0	0.0
C	0.211747	-1.158823	-2.166778
N	0.698449	-1.986003	-2.841724
N	-1.877888	-0.274459	-1.606114
H	-2.110875	-0.249105	-2.593006
H	-2.365381	0.463247	-1.110645
C	-0.467493	-1.163115	0.85004
H	-1.555529	-1.211805	0.928728
H	-0.095797	-2.089689	0.40449
H	-0.014043	-1.072864	1.840321
N	-0.46967	1.270773	0.620553
O	-1.62802	1.662698	0.392709
O	0.310919	1.847766	1.367292
H	2.744028	0.0	0.0
