17

C	-0.622938	0.079815	-1.37331
C	0.0	0.0	0.0
F	-2.046575	0.14095	-1.218323
H	1.089714	0.0	0.0
C	-0.281748	1.285239	-2.151848
N	-0.056092	2.166395	-2.893832
N	-0.257946	-1.042784	-2.156027
H	-0.461596	-1.907635	-1.672647
H	-0.733628	-1.017291	-3.048495
C	-0.315214	-1.31532	0.693371
H	-1.369649	-1.596925	0.619397
H	0.328686	-2.093876	0.273192
H	-0.039132	-1.21765	1.740989
N	-0.401057	1.137737	0.818987
O	-0.705158	2.198752	0.250562
O	-0.28654	1.035103	2.049796
H	2.528117	0.0	0.0
