17

C	-0.519465	-0.032539	-1.433638
C	0.0	0.0	0.0
F	0.095654	0.925518	-2.217322
H	1.090975	0.0	0.0
C	-0.169771	-1.335447	-2.061478
N	-0.00714	-2.380387	-2.573105
N	-1.933336	0.192162	-1.475817
H	-2.405753	-0.312084	-2.211157
H	-2.378848	0.042695	-0.582123
C	-0.419637	-1.205966	0.814576
H	0.047265	-2.094029	0.38194
H	-0.023563	-1.088159	1.823548
H	-1.499851	-1.35666	0.886678
N	-0.460546	1.253361	0.616552
O	-1.282151	1.191728	1.550694
O	0.020507	2.304764	0.189517
H	2.626395	0.0	0.0
