17

C	-0.554537	-0.014072	-1.425564
C	0.0	0.0	0.0
F	-0.081974	1.091817	-2.105822
H	1.08996	0.0	0.0
C	-0.056644	-1.213821	-2.139496
N	0.284632	-2.165657	-2.735939
N	-1.994636	-0.008117	-1.509643
H	-2.389931	0.390043	-0.665404
H	-2.368037	-0.935023	-1.649372
C	-0.440824	-1.209027	0.79669
H	-0.070425	-1.106534	1.817911
H	0.040371	-2.091765	0.366641
H	-1.522362	-1.349775	0.83072
N	-0.473655	1.251101	0.628372
O	0.150462	2.285048	0.391267
O	-1.478946	1.196972	1.365767
H	2.677235	0.0	0.0
