17

C	-0.47943	-0.057172	-1.443879
C	0.0	0.0	0.0
F	-0.057846	1.132327	-2.066046
H	1.09027	0.0	0.0
C	0.206241	-1.156612	-2.161887
N	0.700245	-1.986899	-2.829107
N	-1.878565	-0.246415	-1.606405
H	-2.353459	0.483905	-1.089785
H	-2.120284	-0.196895	-2.589593
C	-0.481217	-1.160626	0.840041
H	-1.568846	-1.206115	0.916534
H	-0.116808	-2.086288	0.390747
H	-0.031054	-1.081763	1.830476
N	-0.47387	1.27206	0.607203
O	0.301006	1.85131	1.355492
O	-1.626977	1.668567	0.37588
H	2.735571	0.0	0.0
