14

C	0.002892	0.017821	0.015156
C	-0.516354	0.201284	-1.41971
Cl	1.831825	-0.068216	-0.031186
H	-1.625163	0.081558	-1.26142
H	-0.230145	1.16171	-1.843485
C	-0.3199	1.271158	0.720007
N	-0.524558	2.279565	1.285115
N	-0.524601	-1.07953	0.761985
H	-0.301655	-1.917578	0.234804
H	-1.558939	-0.912098	0.637145
N	-0.021803	-0.823867	-2.356664
O	0.002132	-1.999676	-1.989524
O	0.307852	-0.448548	-3.48372
F	-2.79505	-0.193921	-0.127309
