16
Coordinates from ORCA-job run
  C   -0.56781654775241     -0.10041742576616     -0.64344161618144
  C   0.66459265980251      0.54463939837143     -0.00180979302841
  Br  -0.23695537522537     -0.59802707280005     -2.45921158255839
  H   0.99056469007729      1.32179613891720     -0.69940650705318
  N   -0.99551796020694     -1.29860832330007      0.20261339744056
  O   -0.81801694247541     -2.42447889650428     -0.23062907386282
  O   -1.42579148135608     -0.97472484082405      1.30337486343792
  N   -1.76626658022028      0.84800999049597     -0.66822374332789
  O   -1.49745652393226      2.04090007229687     -0.69495195811317
  O   -2.86718133018505      0.32306665901823     -0.72398607875894
  C   1.78793118472893     -0.47668794826440      0.21807794384406
  H   2.67429777410784      0.04584604705656      0.57966302152335
  H   1.50187476455611     -1.21457754319647      0.96936118472028
  H   2.03822467976450     -0.98893173895652     -0.71073352143814
  C   0.34008586031847      1.20693778360700      1.26461714740759
  N   0.17743112799814      1.74525769984874      2.29568631594862
