16
Coordinates from ORCA-job run
  C   -0.56728426237098     -0.10110861316399     -0.64453782857488
  C   0.66628556325242      0.54316955359030     -0.00402614836541
  Br  -0.23575118210870     -0.60701644841804     -2.45775525922834
  H   0.99638163296476      1.31581170512818     -0.70459030217971
  N   -0.99810308431450     -1.29502557634748      0.20654007125179
  O   -0.82308766630761     -2.42278767271618     -0.22246555336273
  O   -1.42878583494448     -0.96542931506986      1.30542916369969
  N   -1.76295138173160      0.85036808462983     -0.67426912811505
  O   -1.49026758966750      2.04231459711126     -0.70706050731697
  O   -2.86546633229296      0.32852944391446     -0.72795991690150
  C   1.78551364267180     -0.48119976624592      0.22314962801157
  H   1.49639835119038     -1.21169732198168      0.98044036715814
  H   2.67430471734000      0.04036251183373      0.58013072007699
  H   2.03303892960973     -1.00226853711604     -0.70148690126537
  C   0.34210200398468      1.21225649174948      1.25885814431714
  N   0.17867249272456      1.75472086310195      2.28760345079465
