16
Coordinates from ORCA-job run
  C   -0.79506642627043     -0.07342795148076     -0.00292075242642
  C   0.63760386238352      0.45603470663320      0.06411669781262
  Br  -1.64504874577720     -0.22054102286926      1.68946464892950
  H   0.92864722474893      0.65784575583989     -0.97193089469772
  N   -1.67758796017200      0.78464153128118     -0.91901186238359
  O   -1.19912492578378      1.83462291330024     -1.32453021557082
  O   -2.77946122288029      0.31898816358533     -1.16472904683137
  N   -0.73158590623493     -1.42082625059735     -0.73588999593887
  O   -0.36656854657585     -1.30557965404849     -1.90097111812153
  O   -0.97560607785786     -2.44692290079907     -0.12774566904761
  C   1.59898252825152     -0.56811431498737      0.67975668392806
  H   1.66459961299189     -1.46103337880335      0.05627734423785
  H   2.59363701419448     -0.12515989925647      0.74201282988515
  H   1.28240414444774     -0.85154582131142      1.68385798826532
  C   0.68177728498186      1.71548270354626      0.80429738252356
  N   0.78339813955239      2.70453541996742      1.42894597943588
