16
Coordinates from ORCA-job run
  C   -0.90562926842180      0.17011948693720     -0.08922582645061
  C   0.46922751718506      0.67580633330966      0.36793918924322
  Br  -2.32512282949882      1.23832674986798      0.61626544136066
  H   0.52618132228130      1.70855109947400      0.00970484560615
  N   -1.04666459354881      0.22206844782292     -1.61071426341921
  O   -0.30510066983996      0.99902097686898     -2.19834570672688
  O   -1.92963237431953     -0.47125853782182     -2.08962666835724
  N   -1.06142982628238     -1.30107579701008      0.29969029031968
  O   -0.43400734704722     -2.06788612690201     -0.42225441436187
  O   -1.70862361070454     -1.57278449625079      1.29657903040241
  C   1.67805909604767     -0.10919674907374     -0.16254605752952
  H   2.58019757440689      0.43166248599634      0.12914971791926
  H   1.72517546007477     -1.10976425005691      0.26394673749356
  H   1.65239805885586     -0.18013119689735     -1.24801600009507
  C   0.49734370813941      0.69153428524405      1.83212092051100
  N   0.58462778267211      0.67500728849156      3.00333276408449
