16
Coordinates from ORCA-job run
  C   -0.79558068077020     -0.07133674218576      0.00313136127406
  C   0.63883720530200      0.45428005313642      0.06481506071498
  Br  -1.63099306173255     -0.24103482082218      1.70046601672569
  H   0.92084616034781      0.67036763568913     -0.97083704612217
  N   -1.68406434555721      0.79999712683216     -0.89363854031871
  O   -1.20697175004435      1.85419402360201     -1.29013427526009
  O   -2.78914657655087      0.33988613508328     -1.13566516629233
  N   -0.74065841289384     -1.40914402610483     -0.74896206715830
  O   -0.38462301945724     -1.27870106706745     -1.91520531813396
  O   -0.98161412573803     -2.44296518139417     -0.15285111241194
  C   1.60355132267905     -0.58017283030452      0.65739428528283
  H   1.29495890349933     -0.87744256525757      1.65997941276144
  H   1.66285377177155     -1.46420604063392      0.02071626075734
  H   2.59940150756158     -0.13949790779094      0.71754732809004
  C   0.69180315354438      1.70297824903148      0.82266156896349
  N   0.80039994803859      2.68279795818685      1.46058223112763
