16
Coordinates from ORCA-job run
  C   -0.91453385058441      0.11552657790753      0.08066527594820
  C   0.49096269314892      0.67067378310655      0.34710098608973
  Br  -2.24323771695940      1.02038797400792      1.11452492538204
  H   0.43296960063964      1.73113775090359      0.08208423592180
  N   -1.31931224305589      0.28970732760255     -1.38356015757554
  O   -0.72850510941294      1.15949749734488     -2.01061358026461
  O   -2.23780377811504     -0.41428002188964     -1.77131841100826
  N   -0.92519583173131     -1.39117793074336      0.34467724017556
  O   -0.39524618001251     -2.04845893627161     -0.54408881439681
  O   -1.37592880156013     -1.79210776369851      1.40428683437787
  C   1.62837917541905      0.01390959445998     -0.44875087280406
  H   2.53825353196695      0.58829549183255     -0.26527844796285
  H   1.80072309130141     -1.01266899074384     -0.13003243272195
  H   1.41861212663895      0.02996076103622     -1.51626174856656
  C   0.77022739508683      0.56872083157511      1.78121661329890
  N   1.05863589722987      0.46887605357007      2.91534835410653
