16
Coordinates from ORCA-job run
  C   -0.55462115312735     -0.10773458221391     -0.65383227566486
  C   0.67266758547511      0.53475448995532      0.00059017365364
  Br  -0.18979926522497     -0.65426611052659     -2.44910957493729
  H   1.02617230644887      1.28997776088431     -0.70752979805726
  N   -1.01904161101490     -1.27838020930921      0.21080612088109
  O   -1.47155355453925     -0.92137091182187      1.29219860097367
  O   -0.84698530494797     -2.41683661091488     -0.19053973775128
  N   -1.73697258519001      0.85756252406557     -0.72993172156331
  O   -2.84461599434061      0.34855810329210     -0.79799749036702
  O   -1.44858176768904      2.04512315690778     -0.78046449805597
  C   1.77480899717412     -0.49743510183897      0.27122854263242
  H   2.03732440328597     -1.03694408884887     -0.63859342100336
  H   1.46073161365597     -1.21156062539803      1.03417805271007
  H   2.66109005785026      0.02071590874887      0.63924747421569
  C   0.32875960982075      1.23198934250340      1.24288359118229
  N   0.14961666236305      1.79684695451497      2.25686596115150
