16
Coordinates from ORCA-job run
  C   -0.78788777921023     -0.10268842391719      0.06747485308216
  C   0.62511609841881      0.47856744687246      0.01281616112333
  Br  -1.48750523909837     -0.26802848005078      1.82570990280249
  H   0.82099357083629      0.68848271069452     -1.04374113385907
  N   -1.77480060579666      0.71499996038917     -0.77604830028263
  O   -1.36861076661464      1.77375364796128     -1.23422277591357
  O   -2.87760170181996      0.21051600939927     -0.92021891209616
  N   -0.73603834857544     -1.45252466094811     -0.66219536178818
  O   -0.47758374445256     -1.33274719686258     -1.85498209128860
  O   -0.88568426042199     -2.48212329249535     -0.02990057076234
  C   1.67135061640173     -0.50842460122032      0.54535209056719
  H   1.71827438537015     -1.39975141800974     -0.08201955619667
  H   1.45028982956357     -0.80157706091491      1.57200445623795
  H   2.65078278990861     -0.02904692380585      0.52478149474909
  C   0.68372518158339      1.74296542092215      0.74374877276597
  N   0.77617997390728      2.76662686198598      1.31144097085903
