16
Coordinates from ORCA-job run
  C   -0.55432101934120     -0.10137768971788     -0.65491970268209
  C   0.67311773649032      0.53422495065311      0.00598410342469
  Br  -0.18901508125972     -0.63161601891445     -2.45485358249605
  H   1.02722988942732      1.29605931805974     -0.69471839154107
  N   -1.01991272101887     -1.27973214047544      0.19871895606522
  O   -0.84819566380042     -2.41436213958807     -0.21346005640961
  O   -1.47341494660716     -0.93280767427798      1.28290715194440
  N   -1.73584838019648      0.86549240797594     -0.72265164039715
  O   -1.44646625939825      2.05323264428089     -0.76181122537722
  O   -2.84391804457431      0.35817508148642     -0.79607462615155
  C   1.77478373078629     -0.50095650504725      0.26717861882351
  H   2.03717377165684     -1.03239477232810     -0.64742069825420
  H   2.66132169945833      0.01340319941202      0.63987574569548
  H   1.46026201814386     -1.22183226228281      1.02354327123062
  C   0.32906615641153      1.21965652446145      1.25476736076787
  N   0.14913711382193      1.77483507630240      2.27393471535714
