16
Coordinates from ORCA-job run
  C   -0.75597760186635     -0.18157048541269      0.04261325182106
  C   0.67881530457798      0.34819187466455     -0.01332898091117
  Br  -1.39247300593304     -0.49469453375917      1.80332256318883
  H   0.94490791930712      0.35737671708122     -1.07524965407185
  N   -1.65483871864871      0.82122526804232     -0.71613748099994
  O   -1.35802669791377      0.90528018154434     -1.90269404068150
  O   -2.51237476383860      1.43483457273878     -0.11071644670734
  N   -0.91979281044399     -1.46145375472848     -0.79005224157229
  O   0.07417619571481     -1.88948854244981     -1.36197589206686
  O   -2.05360506412811     -1.91309515360311     -0.83450932973494
  C   1.70188329658098     -0.47981355741900      0.77009341070502
  H   1.67835750626862     -1.51931010896609      0.44837794583981
  H   1.51415590080982     -0.42105408561565      1.84126655543828
  H   2.69732571473558     -0.07845825749341      0.57218053825135
  C   0.66911338827761      1.73241699394466      0.46474447044925
  N   0.68735343650005      2.83761287143155      0.86206533105230
