16
Coordinates from ORCA-job run
  C   -0.93133222212633      0.04198996424598      0.02149464181934
  C   0.40339189045584      0.68090642944776      0.42548264083208
  Br  -2.41411399247739      0.96381319106057      0.79739265106290
  H   0.26225094470807      1.74742912090166      0.21398116255281
  N   -0.99224885962582      0.12342935739759     -1.50835393148237
  O   -0.78340491316827     -0.91575077193132     -2.11901333156027
  O   -1.13694661797606      1.24493939480172     -1.96811341299259
  N   -1.04605575171427     -1.44261511995586      0.36574536553679
  O   -2.12059167032851     -1.96603366363796      0.12142296049381
  O   -0.04393910396333     -1.97565036932805      0.82677621850056
  C   1.61947632309224      0.19254506779069     -0.37338567728237
  H   2.50256783126590      0.71977250974512     -0.00889505867827
  H   1.77543163105239     -0.87652896001095     -0.25375818009027
  H   1.50320634640165      0.43205955946995     -1.43154654980706
  C   0.60275405267291      0.54723268335607      1.86811263837727
  N   0.80055411173097      0.48246160664704      3.02365786271764
