16
Coordinates from ORCA-job run
  C   -0.79272659135434     -0.09301306903718      0.02069060981549
  C   0.62809160713944      0.47042132261512      0.05538584210264
  Br  -1.58288355143120     -0.30415811542387      1.73517219780357
  H   0.87997383611655      0.70559121918661     -0.98385688269819
  N   -1.72526959018992      0.76475350118299     -0.84426246797437
  O   -2.82318589382332      0.27808118496517     -1.06595129752053
  O   -1.28575969143030      1.83592263888837     -1.23858149607738
  N   -0.72028477628282     -1.42000855698304     -0.74843749762768
  O   -0.91997720682278     -2.46667519271560     -0.15948861633176
  O   -0.39591686251558     -1.26651628139102     -1.92112587072726
  C   1.63381460490697     -0.54435217600766      0.61300789590048
  H   2.61868300144672     -0.07785427104824      0.65544157020977
  H   1.70095980281033     -1.41906847626992     -0.03554882875848
  H   1.35698794001866     -0.86116949862131      1.61887111923999
  C   0.66569950624391      1.71151037992853      0.82632112060825
  N   0.76279386516769      2.68653539073106      1.47336260203547
