16
Coordinates from ORCA-job run
  C   -0.73887578054958     -0.24514598397029     -0.01184070940811
  C   0.64736969967014      0.39973121900436      0.05789583260771
  Br  -1.40405931309714     -0.82401265504504      1.66883582365122
  H   0.94632945459301      0.56164082125487     -0.98273360565990
  N   -1.69375047573833      0.77027046291289     -0.68154954679292
  O   -1.36604091449033      1.02489710400291     -1.83507418924291
  O   -2.61840829664827      1.23403666753679     -0.04281355708070
  N   -0.76764385415651     -1.42030820504694     -1.00004376145077
  O   -1.85770102894329     -1.95100622791845     -1.14754036296852
  O   0.27683744832603     -1.69375228063205     -1.57681223453773
  C   1.71052574646947     -0.43464397652275      0.77854345768512
  H   1.48353894417428     -0.52412458162997      1.83996211224054
  H   1.78523894884608     -1.42493757579445      0.33317412136983
  H   2.67435779592080      0.06631472241112      0.67306796586927
  C   0.50538938049489      1.70873834431261      0.69913729129578
  N   0.41689224512877      2.75330214512441      1.22879136242210
