16
Coordinates from ORCA-job run
  C   -0.50916469100645     -0.16302802826495     -0.67864022050886
  C   0.65878247890966      0.55169305833701      0.00859957115394
  Br  -0.01789661865615     -0.81038090844520     -2.40909150702416
  H   1.03889197411060      1.27110330828530     -0.72267039271759
  N   -1.00136594455277     -1.28954515365038      0.22821534455337
  O   -0.77725682028044     -2.44570008119551     -0.08783541412311
  O   -1.53126480936689     -0.87835192941874      1.25375882425364
  N   -1.70613215733414      0.76365380446274     -0.88990956064996
  O   -1.44274188299662      1.95332537410880     -0.99616450708963
  O   -2.79492894237606      0.22152335151820     -0.99571368797926
  C   1.76528432013648     -0.43130511002379      0.41189103293709
  H   2.09826621775066     -1.01800263757503     -0.44406664212827
  H   1.41994244127511     -1.10594315544669      1.19694449585194
  H   2.61360082065337      0.13270137348290      0.80133955359545
  C   0.22036905630423      1.31460771484688      1.18058602061820
  N   -0.03638544257060      1.93564901897846      2.14375708925720
