16
Coordinates from ORCA-job run
  C   -0.75055663825448     -0.19834430280060      0.05677486989148
  C   0.67058020932366      0.36384037602328     -0.02208547222642
  Br  -1.34226836593369     -0.55093151585906      1.82529664478426
  H   0.91271332706614      0.39479849638579     -1.08927758252638
  N   -1.68832635066371      0.79460092518906     -0.66816041881633
  O   -1.41767221829267      0.90436626268993     -1.85877697658631
  O   -2.54821440022160      1.37712084426613     -0.03605807239478
  N   -0.90385244123326     -1.46950833879378     -0.79202815116899
  O   0.08612214150400     -1.86452267089670     -1.39387596542348
  O   -2.02721734220420     -1.94808713910598     -0.81654983338921
  C   1.72867703702349     -0.45285050772743      0.72564038206374
  H   1.72334785635205     -1.48678953092751      0.38561376853528
  H   2.70999934813118     -0.02397014610874      0.51542855779112
  H   1.56126245801887     -0.41789151107650      1.80124346534598
  C   0.64120946138061      1.74042551466152      0.47706836347895
  N   0.64419591800360      2.83974324408058      0.89074642064109
