16
Coordinates from ORCA-job run
  C   -0.63925650458639      0.09948429878787     -0.66163455407424
  C   0.78742256208450      0.39845299825045     -0.18222262990621
  Br  -1.14569917258173      1.21963613267835     -2.12514821938177
  H   1.42345037119809      0.22705504631038     -1.05643606585741
  N   -0.77588329927901     -1.34052031945765     -1.15727736883804
  O   0.25911691457480     -1.89752675987672     -1.49976584776093
  O   -1.91374607621809     -1.77702523228936     -1.22300833642983
  N   -1.60969956284880      0.23500862231429      0.51312887792357
  O   -1.57217283235801     -0.71144176930241      1.29141208634841
  O   -2.26068400263306      1.26100696538210      0.61386702990962
  C   1.29257723118405     -0.46281174459748      0.98469676302515
  H   1.19070969612476     -1.52273939204139      0.76113410098404
  H   0.76423482347542     -0.23624083946605      1.90918119935297
  H   2.35107655648346     -0.23909785521024      1.12975023205795
  C   0.87185638325881      1.81532203497715      0.17885838990362
  N   0.97769691212118      2.93343781354069      0.52246434274310
