16
Coordinates from ORCA-job run
  C   -0.71919975153884      0.14262914243400     -0.57625140059073
  C   0.72139103903445      0.50146683497519     -0.19008672021490
  Br  -1.36787516899586      1.26134389697511     -1.98281509232737
  H   1.25448072463040      0.52836271367383     -1.14779070300639
  N   -0.68247835319339     -1.32120182772106     -1.03162922421541
  O   -1.12515621186773     -2.14805581113312     -0.24628112108366
  O   -0.11437554510935     -1.52619247336983     -2.09243036096096
  N   -1.71141307401408      0.19381633732296      0.58448155865984
  O   -1.24233440943948      0.41221221190340      1.69502008131672
  O   -2.87887856140978     -0.01610714519670      0.29917327926285
  C   1.41917979419204     -0.52130033951451      0.71675614593987
  H   0.89817417745682     -0.64019137096471      1.66336812072696
  H   2.43246673963653     -0.16821143980143      0.91474020391100
  H   1.49655628601921     -1.48711153170193      0.21487865300729
  C   0.76471945568621      1.85207910990109      0.36935172216124
  N   0.85474285891285      2.93646169221771      0.81051485741366
