16
Coordinates from ORCA-job run
  C   -0.73838150624506      0.12209178922165     -0.55612755823766
  C   0.69925589451983      0.52578897041353     -0.20513434868549
  Br  -1.46067182017123      1.22896641696230     -1.93620576134743
  H   1.20602676451567      0.57562209395626     -1.17617185794717
  N   -0.66598779228524     -1.33613187571801     -1.02401609185744
  O   -1.06029677283737     -2.18282977033269     -0.23397815087863
  O   -0.11925703502895     -1.51485704403816     -2.10072751690080
  N   -1.70073736693508      0.13240612545087      0.63053679105255
  O   -2.86743951624921     -0.11582153902263      0.37447982249395
  O   -1.21027601851873      0.36122050255666      1.72970755595032
  C   1.45367316769719     -0.47820308580300      0.67685929018370
  H   1.54437183786532     -1.44027487496406      0.17013295483731
  H   2.46178462346435     -0.09609364137638      0.84494913517127
  H   0.96513798998839     -0.61417402202898      1.63823875902879
  C   0.71290396674055      1.87420011114970      0.36109279166168
  N   0.77889358347956      2.95908984357293      0.80536418547506
