16
Coordinates from ORCA-job run
  C   -0.75046295755996      0.10967828559035     -0.54335043804722
  C   0.69465373751772      0.52123156985283     -0.23430143248577
  Br  -1.50332252153994      1.18257905287714     -1.93342760063515
  H   1.17937913668985      0.54993805772969     -1.21729280284704
  N   -0.68795238012786     -1.35971656979563     -0.97616134028876
  O   -1.06285578177024     -2.18613949463878     -0.15576139066451
  O   -0.16646798063916     -1.56551858226570     -2.06046228300469
  N   -1.68619822718328      0.14965756275576      0.66446737707885
  O   -1.17089157192262      0.40441211803067      1.74624775671961
  O   -2.85862973677891     -0.10179544692780      0.44040840801997
  C   1.46904965734049     -0.46361886893979      0.65211731213561
  H   1.55533557771390     -1.43386952953817      0.16034664203583
  H   2.47788184340495     -0.07375116669683      0.79667010905070
  H   0.99770117903872     -0.58503186360723      1.62415938548185
  C   0.72023358537687      1.88100983417419      0.30363634940598
  N   0.79354644043948      2.97193504139930      0.73170394804477
