16
Coordinates from ORCA-job run
  C   -0.72365033289960      0.04974213766794     -0.57414612649460
  C   0.72880657519964      0.44850711498630     -0.28101904071726
  Br  -1.48771701555318      1.11998914364173     -1.96125297717856
  H   1.25850876079084      0.31034664745479     -1.22890395966243
  N   -0.82334658321651     -1.40044219706202     -1.04858593003593
  O   0.19500081785471     -1.88817226975625     -1.52177534911539
  O   -1.92755527901134     -1.91415715304778     -0.96832637805962
  N   -1.54355769721949      0.12960484725396      0.71465962478937
  O   -1.34343943331854     -0.80536753860038      1.48191578358250
  O   -2.24388601606099      1.11080956211433      0.89764935251423
  C   1.43468637421481     -0.36531335208507      0.81358240063459
  H   1.37652928168816     -1.43186255178151      0.60644622727349
  H   1.01376167710333     -0.16491772276221      1.79734633827262
  H   2.48557422391994     -0.07041979935831      0.82272900013634
  C   0.76319155560379      1.87153952343620      0.06348491539724
  N   0.83709309090444      2.99811360789829      0.38719611866341
