17

C	-0.498128	0.006015	-1.455586
C	0.0	0.0	0.0
F	-0.071077	-1.159408	-2.076627
H	1.090579	0.0	0.0
C	-2.006756	0.082151	-1.617905
H	-2.386667	1.014052	-1.19943
H	-2.243635	0.048283	-2.683007
H	-2.476622	-0.765138	-1.118304
C	0.118698	1.153073	-2.146849
N	0.508404	2.072316	-2.764263
N	-0.462402	-1.323556	0.592373
O	-1.59266	-1.344111	1.096788
O	0.285378	-2.286387	0.510304
N	-0.510775	1.12916	0.699593
H	0.123894	1.373761	1.44897
H	-1.429175	0.926721	1.075558
Br	3.414643	0.0	0.0
