17

C	-0.503481	0.024442	-1.442706
C	0.0	0.0	0.0
F	-1.898046	0.203239	-1.402851
H	1.091277	0.0	0.0
C	0.129244	1.189855	-2.174957
H	-0.237848	1.222388	-3.20226
H	1.214744	1.067294	-2.163865
H	-0.131212	2.105195	-1.646574
C	-0.277093	-1.21314	-2.210099
N	-0.151733	-2.118838	-2.947011
N	-0.455539	-1.290425	0.675451
O	0.002086	-2.339119	0.235433
O	-1.242959	-1.199779	1.618637
N	-0.451809	1.16282	0.682518
H	0.155216	1.336909	1.472207
H	-1.400694	1.040257	1.009005
Br	3.414254	0.0	0.0
