17

C	-0.397232	-0.008481	-1.494898
C	0.0	0.0	0.0
F	0.009646	1.235695	-1.97873
H	1.091216	0.0	0.0
C	0.302692	-1.082533	-2.300305
H	-0.069493	-2.073574	-2.041813
H	1.370655	-1.02953	-2.07235
H	0.132441	-0.895115	-3.36281
C	-1.865146	-0.045543	-1.660637
N	-3.031921	-0.045934	-1.798104
N	-0.502361	-1.284607	0.596639
O	0.18727	-2.29137	0.454658
O	-1.601939	-1.247354	1.151709
N	-0.479156	1.097574	0.768038
H	0.132923	1.890709	0.621255
H	-1.441247	1.3376	0.556401
Br	3.498656	0.0	0.0
