17

C	-0.441152	0.01729	-1.474834
C	0.0	0.0	0.0
F	-1.802581	0.364869	-1.531318
H	1.090562	0.0	0.0
C	0.359943	1.056394	-2.232741
H	0.043217	1.081205	-3.276553
H	0.185594	2.034175	-1.781112
H	1.42374	0.818271	-2.156957
C	-0.326081	-1.292602	-2.137431
N	-0.280556	-2.302142	-2.736025
N	-0.547225	-1.256144	0.631849
O	0.131619	-2.27495	0.533594
O	-1.659638	-1.183106	1.149901
N	-0.436954	1.13411	0.737657
H	-1.303347	1.526903	0.40545
H	0.300637	1.817721	0.808803
Br	3.449291	0.0	0.0
