17

C	-0.43345	0.125915	-1.460392
C	0.0	0.0	0.0
F	-1.796427	0.453411	-1.521154
H	1.099609	0.0	0.0
C	0.352516	1.249343	-2.114219
H	0.049926	1.34763	-3.158196
H	1.421416	1.036449	-2.042341
H	0.145452	2.183714	-1.590649
C	-0.244572	-1.105713	-2.245597
N	-0.109378	-1.998938	-2.996602
N	-0.487792	-1.28776	0.626191
O	-1.357567	-1.93647	0.040064
O	-0.009151	-1.569456	1.716359
N	-0.460987	1.078892	0.818483
H	-1.244115	1.568744	0.415712
H	0.295603	1.700474	1.060519
Br	3.433768	0.0	0.0
