17

C	-0.596642	0.00068	-1.414826
C	0.0	0.0	0.0
F	-0.135171	-1.081051	-2.146393
H	1.090413	0.0	0.0
C	-2.114804	-0.055744	-1.416361
H	-2.450507	-0.983487	-0.952369
H	-2.525626	0.795684	-0.87394
H	-2.47113	-0.029091	-2.446797
C	-0.156505	1.230533	-2.098983
N	0.118039	2.189338	-2.716809
N	-0.448544	-1.289064	0.663433
O	0.089327	-2.328266	0.303715
O	-1.363307	-1.216398	1.490572
N	-0.452418	1.163232	0.699606
H	-1.267034	0.946225	1.257484
H	0.291527	1.481047	1.305454
Br	3.421573	0.0	0.0
