18

C	0.0	0.0	0.0
C	-0.563535	0.07449	-1.427662
Br	1.926344	0.0	0.0
H	-1.641602	0.192177	-1.247989
N	-0.329658	1.317303	0.797147
O	-0.103993	2.397205	0.265201
O	-0.745187	1.162001	1.939059
N	-0.537849	-1.121868	0.6537
H	-1.562417	-1.036436	0.586274
H	-0.286759	-1.110567	1.634435
N	-0.237675	-1.207476	-2.074321
H	-0.840665	-1.282512	-2.886981
H	-0.502603	-1.952511	-1.439357
C	-0.080511	1.19199	-2.337386
H	-0.423382	2.168633	-2.006361
H	1.008148	1.191049	-2.415864
H	-0.490209	1.003661	-3.334958
Cl	-3.695461	0.0	0.0
