18

C	0.0	0.0	0.0
C	-0.475042	-0.313313	-1.425489
Br	1.999879	0.0	0.0
H	-0.116549	-1.339415	-1.562398
N	-0.315404	1.467065	0.426642
O	-0.283201	1.689799	1.632068
O	-0.558533	2.295042	-0.44468
N	-0.485665	-0.919644	0.942118
H	-1.500805	-0.964047	0.879818
H	-0.22682	-0.632619	1.879727
N	0.206578	0.503052	-2.427209
H	-0.269322	1.393934	-2.498188
H	0.115126	0.030415	-3.319485
C	-1.996018	-0.296518	-1.548391
H	-2.253017	-0.575107	-2.573873
H	-2.4196	0.687305	-1.351679
H	-2.527727	-0.985222	-0.894792
Cl	-4.926097	0.0	0.0
