18

C	0.0	0.0	0.0
C	-0.463888	0.384056	-1.43065
Br	1.959513	0.0	0.0
H	-0.380831	-0.582191	-1.947851
N	-0.319741	1.106072	1.046967
O	-0.434315	0.719884	2.207567
O	-0.401114	2.265757	0.668258
N	-0.522556	-1.244077	0.385692
H	-0.387492	-1.388016	1.379606
H	-1.522218	-1.257903	0.188592
N	0.390296	1.389132	-2.050805
H	-0.181086	2.044222	-2.565028
H	1.059824	0.968315	-2.679545
C	-1.912418	0.848968	-1.474185
H	-2.28539	0.754935	-2.498066
H	-1.966638	1.899942	-1.187302
H	-2.622148	0.316078	-0.838624
Cl	-4.83897	0.0	0.0
