18

C	0.0	0.0	0.0
C	-0.439123	0.188782	-1.473812
Br	1.957615	0.0	0.0
H	-0.072073	-0.737936	-1.938185
N	-0.393309	1.197688	0.870679
O	-0.512886	2.28077	0.309799
O	-0.524186	1.000902	2.069881
N	-0.506214	-1.157064	0.645743
H	-1.478697	-1.008003	0.907556
H	-0.458186	-1.94527	0.011306
N	0.256216	1.279348	-2.152046
H	-0.194665	2.149836	-1.899663
H	0.137509	1.145321	-3.149416
C	-1.954262	0.235564	-1.602622
H	-2.478169	-0.623264	-1.187775
H	-2.218758	0.308136	-2.660875
H	-2.380529	1.106205	-1.102967
Cl	-4.837467	0.0	0.0
