18

C	0.0	0.0	0.0
C	-0.500941	-0.373485	-1.408771
Br	1.995745	0.0	0.0
H	0.250962	0.016453	-2.099243
N	-0.227152	1.560965	0.142595
O	0.238975	2.285414	-0.71978
O	-0.841123	1.922714	1.139289
N	-0.578691	-0.723792	1.033345
H	-0.408377	-0.280898	1.928008
H	-1.589704	-0.769488	0.885493
N	-1.712901	0.370994	-1.659382
H	-1.918377	0.394129	-2.648358
H	-2.546013	0.051514	-1.157067
C	-0.586671	-1.893558	-1.559665
H	-0.823862	-2.130684	-2.600557
H	0.352189	-2.386594	-1.291331
H	-1.386011	-2.294856	-0.934391
Cl	-4.368946	0.0	0.0
