14

C	-0.608231	0.029074	-1.396847
C	0.0	0.0	0.0
Br	0.412434	1.429277	-2.492076
H	1.0948	0.0	0.0
H	-0.39098	-0.909871	0.472308
C	-0.387623	-1.217217	-2.129264
N	-0.252039	-2.241485	-2.68939
N	-1.990689	0.336895	-1.343895
H	-2.358486	0.578908	-2.254795
H	-2.066191	1.12309	-0.700836
N	-0.474555	1.201958	0.720226
H	-0.786027	0.932349	1.644468
H	0.352259	1.776103	0.849282
F	2.642831	0.0	0.0
