14

C	-0.605497	0.018882	-1.398124
C	0.0	0.0	0.0
Br	0.413261	1.412775	-2.500747
H	1.094811	0.0	0.0
H	-0.390252	-0.907405	0.47769
C	-0.380002	-1.23246	-2.121333
N	-0.239758	-2.255045	-2.682907
N	-1.989061	0.323379	-1.349916
H	-2.066713	1.116078	-0.715701
H	-2.355709	0.556459	-2.263848
N	-0.47452	1.206763	0.71062
H	-0.800588	0.944004	1.631628
H	0.354546	1.775193	0.848303
F	2.642228	0.0	0.0
