14

C	-0.566365	-0.030317	-1.412107
C	0.0	0.0	0.0
Br	-0.13379	1.669876	-2.315601
H	1.09574	0.0	0.0
H	-0.417232	0.88693	0.485865
C	0.078552	-1.087311	-2.211907
N	0.478099	-1.983026	-2.861708
N	-2.006229	-0.178434	-1.379996
H	-2.358034	-0.437541	-2.296094
H	-2.16066	-0.952824	-0.734025
N	-0.464607	-1.239419	0.667773
H	0.370523	-1.792285	0.81817
H	-0.828128	-1.013159	1.582166
F	2.650969	0.0	0.0
