14

C	-0.594828	-0.112782	-1.397518
C	0.0	0.0	0.0
Br	0.105229	-1.786379	-2.274129
H	1.09128	0.0	0.0
H	-0.371951	0.959055	0.393405
C	-2.045212	-0.347924	-1.328496
N	-3.219206	-0.416844	-1.294794
N	-0.272154	1.016028	-2.190561
H	-0.9665	1.289621	-2.866834
H	0.092361	1.780928	-1.645478
N	-0.435288	-1.126155	0.82752
H	-1.015847	-0.818312	1.595519
H	0.407243	-1.542253	1.206144
F	2.634136	0.0	0.0
