14

C	-0.601445	0.0028	-1.397484
C	0.0	0.0	0.0
Br	0.343231	1.46769	-2.473766
H	1.094761	0.0	0.0
H	-0.382029	-0.909531	0.48044
C	-0.299374	-1.220587	-2.138406
N	-0.080527	-2.213949	-2.725413
N	-1.999373	0.231005	-1.355616
H	-2.12581	1.007071	-0.709666
H	-2.370687	0.45924	-2.269055
N	-0.503666	1.19752	0.708266
H	0.295756	1.815681	0.792316
H	-0.754874	0.935083	1.651868
F	2.64281	0.0	0.0
