16
Coordinates from ORCA-job run
  C   -0.65707407443578     -0.30515819624016      0.65270255964238
  C   0.66002352092833     -0.19124573901163     -0.13560828047259
  Cl  -0.14072448375225     -0.55680497978502      2.41251113794848
  H   1.24020028706282     -1.09449820965978      0.06233708927766
  C   -1.42247600344553      0.94360096965927      0.64183963078473
  N   -2.04316633540530      1.94083256393345      0.65513886424507
  N   -1.44656803482407     -1.35491953742771      0.13873369120302
  H   -0.95142609956032     -2.23833996334736      0.12707886165544
  H   -2.33104327978952     -1.45019729459645      0.62060626687476
  C   1.45907934514886      1.06725347587643      0.12442964355295
  H   0.87350685055303      1.95115880170088     -0.12792411092252
  H   1.75614055677778      1.11543417679252      1.17160945959895
  H   2.36077760702426      1.05950321406086     -0.49086790656248
  N   0.30329904527736     -0.27365737213371     -1.59380570231991
  O   -0.22180798507851      0.71574191351222     -2.09343903491426
  O   0.56025908351884     -1.32970382333382     -2.16634216959169
