16
Coordinates from ORCA-job run
  C   -0.84001401746712     -0.18560108541864      0.34712609862882
  C   0.61780305080344      0.06649134720387     -0.09236641871169
  Cl  -1.91376989500810     -0.41490920412039     -1.06009162661768
  H   1.18128066900370      0.25936382490648      0.82480027197070
  C   -0.93904222472714     -1.40603837522055      1.16853775045219
  N   -1.05129989487345     -2.32185435430193      1.89769395447005
  N   -1.28471491644702      1.00070313067744      1.05038128359145
  H   -0.80005154883940      1.06546819790348      1.94085602381886
  H   -2.27944567198835      0.93331462974246      1.23684817905648
  C   0.77728029870382      1.19025794915293     -1.09068203222226
  H   0.32284655085414      0.92670404671367     -2.04293252249337
  H   0.30314141425948      2.08822230536250     -0.69672799982547
  H   1.83932363419177      1.38422873129414     -1.25287207459348
  N   1.21086500863503     -1.20976500506734     -0.61862193795307
  O   1.04897840894082     -1.46397556246828     -1.80877206601510
  O   1.80681913395837     -1.91161057635983      0.19782311644358
