16
Coordinates from ORCA-job run
  C   -0.76461693774751     -0.28043179731414      0.46508786116050
  C   0.66010978994613      0.01041408855523     -0.05185332146542
  Cl  -1.79694753774668     -0.84261876799060     -0.94296059814143
  H   1.29061718019143      0.09727477334552      0.83644598027922
  C   -0.77993757991272     -1.37198660502708      1.44450505722697
  N   -0.85613209383161     -2.19428074516327      2.27991020718922
  N   -1.26659055243439      0.89191185858464      1.09894136782243
  H   -2.12266824632388      0.69349492078988      1.60286281551516
  H   -1.44785692466106      1.62066390202223      0.41946364153324
  C   0.75874528895611      1.24382842150242     -0.92104959484775
  H   0.05641544891512      1.20431703215255     -1.75295052010348
  H   0.57953445136609      2.13258644200164     -0.31469422445520
  H   1.76380390100525      1.31971266911046     -1.33555331990239
  N   1.18131851941859     -1.20477058739568     -0.77208297583553
  O   1.28725276616893     -1.15348388494816     -1.99327321736291
  O   1.45995252669017     -2.16763172022559     -0.06079915861262
