16
Coordinates from ORCA-job run
  C   -0.83392529815461     -0.33756696469300      0.45630926835395
  C   0.57611819009369      0.07507814855431     -0.05127913911216
  Cl  -1.71932563627136     -1.16482006438546     -0.86271965579075
  H   1.11489064003175      0.44772386196540      0.82465997864950
  C   -0.71713077566123     -1.27228634997433      1.58411719547484
  N   -0.66470996840409     -2.00571955399089      2.50011968134218
  N   -1.64244309428792      0.77213788837299      0.89413249008612
  H   -1.80456790401286      1.42661594104905      0.13952285261940
  H   -1.21986160326231      1.24096137746600      1.68731405785519
  C   0.56382397763255      1.09753187869332     -1.16625134909896
  H   -0.02181986820690      0.75239828379881     -2.01621676032995
  H   1.58409557114814      1.27544004973919     -1.50831263966360
  H   0.16682668989081      2.04609258721675     -0.80228186232025
  N   1.35105614545173     -1.14640049345726     -0.46457519855921
  O   1.88076716871232     -1.78318736612410      0.44509954439079
  O   1.38720576530033     -1.42499922423073     -1.65963846389711
