16
Coordinates from ORCA-job run
  C   -0.71208037530837     -0.41728619561949      0.44663752827948
  C   0.63050291741992      0.19908210583531      0.00016577100048
  Cl  -1.35598140736413     -1.47194670576885     -0.90826337997967
  H   1.08747505860340      0.60954910965953      0.90385644761686
  C   -0.54905567832963     -1.29853209413112      1.60753665015609
  N   -0.49241866806894     -1.97400540173409      2.56689054781133
  N   -1.59789964617274      0.63753670876424      0.80912880864062
  H   -2.42262886829353      0.27524628959206      1.27254940597986
  H   -1.88570890734379      1.16383461245195     -0.00684065181692
  C   0.49601708830344      1.25131333607983     -1.07755131917786
  H   1.48607365983727      1.55705158850418     -1.41545389512203
  H   -0.00340607672879      2.13065098731965     -0.66887548937343
  H   -0.04959940443561      0.87219872914591     -1.94088547315654
  N   1.56114461143223     -0.90283070413477     -0.43101495802844
  O   2.01328688126488     -1.60353512325715      0.47205593383909
  O   1.79527881518439     -1.02732724270720     -1.62893592666890
