16
Coordinates from ORCA-job run
  C   -0.57141859956972     -0.57322580577716      0.66104018790967
  C   0.75407436914818     -0.14251074516949     -0.00564248083436
  Cl  -0.39344309049310     -2.22214056105476      1.35297207727366
  H   1.57249387250273     -0.48337701795226      0.62892730940073
  C   -0.81218512602306      0.32299302277231      1.80941907293538
  N   -1.05472769024226      1.06932631034589      2.68546353802490
  N   -1.63900741363846     -0.61429817354222     -0.29270913660303
  H   -1.68490119126783      0.23268023607640     -0.84556430340659
  H   -2.52763027015350     -0.78399202050133      0.16134742311739
  C   0.85467858553619      1.34642874959846     -0.28311264312738
  H   1.77959934472549      1.55060197206086     -0.82496826494869
  H   0.87735331643732      1.89965619141894      0.65625899128840
  H   0.02898371459403      1.70932930329805     -0.89437427792240
  N   0.90195605438560     -0.91352679315214     -1.28819119188087
  O   0.40916841025992     -0.41677747926652     -2.29769757723771
  O   1.50400571379848     -1.98116718915518     -1.22616872398905
