16
Coordinates from ORCA-job run
  C   -0.51706035522431     -0.56325542047340      0.77043214994065
  C   0.72122241154480     -0.05869656796358     -0.02046480581039
  Cl  -0.15582393394285     -2.26555662751332      1.25471935500494
  H   1.60054325220938     -0.14002886695130      0.61953535326572
  C   -0.57618936774613      0.24279622898788      1.99577353530206
  N   -0.60613954648012      0.93691530871911      2.94307830027155
  N   -1.79145260329591     -0.51987763797328      0.12783445404258
  H   -1.72622557970631     -0.85471950202863     -0.82518715699820
  H   -2.20143952452423      0.40384508047063      0.16225260611185
  C   0.53746585754637      1.34585262731832     -0.56241574377777
  H   1.43752901561021      1.65699167807680     -1.09633950381008
  H   0.36968688390289      2.04669845189007      0.25761515287127
  H   -0.30593723455553      1.38462711068062     -1.25187395837739
  N   1.00117907798845     -0.98240521320495     -1.16563759497434
  O   0.09628092205784     -1.14695334406242     -1.98482136109295
  O   2.11736072461543     -1.48623330597254     -1.22250078196953
