16
Coordinates from ORCA-job run
  C   -0.62496537372847     -0.39494264669123      0.67293564519514
  C   0.68525606788057     -0.22498876092087     -0.11028584706958
  Cl  -0.14073562163973     -0.76743492587046      2.36274864719939
  H   1.27336672554044     -1.12776869408361      0.06148854263091
  C   -1.40276230743191      0.85498141316655      0.72705832461634
  N   -2.05181322796276      1.83404319882469      0.77290187745380
  N   -1.35462675780526     -1.53862672764993      0.17862075926013
  H   -2.06977632923303     -1.80371455275502      0.84616076898016
  H   -1.80539360821101     -1.29081008949731     -0.69574155724700
  C   1.46507058976075      1.03900954879206      0.20485875333517
  H   2.39435204386679      1.04099387006862     -0.36605568572439
  H   0.88287652725106      1.92515972238896     -0.05649054216465
  H   1.70897311816100      1.07716136899840      1.26629490479844
  N   0.40594713678132     -0.22351621973759     -1.58700016350471
  O   1.32763160330603     -0.58412488493051     -2.30903195317230
  O   -0.69140058653577      0.18457837989732     -1.96846247458687
