16
Coordinates from ORCA-job run
  C   -0.58257023887201     -0.37269949792167      0.73349742665992
  C   0.67625519476728     -0.18888401056854     -0.14263855307148
  Cl  -0.05382948429873     -0.38378894264558      2.45870043723726
  H   1.23041597916095     -1.12817488262733     -0.08537172402446
  C   -1.47014884267876      0.79572502400835      0.58515583013893
  N   -2.21110658522108      1.69599407227561      0.43208476358809
  N   -1.20385224968650     -1.63193518254928      0.46280390428805
  H   -1.26933976197429     -1.81127595736525     -0.53180081444595
  H   -2.11468362418451     -1.69907562314740      0.89883390900999
  C   1.52525262673435      1.01862753348237      0.18872137302196
  H   2.00851076502936      0.87772195331668      1.15371472325354
  H   2.29860317507105      1.13819727992052     -0.57130199993674
  H   0.92720193538357      1.92945219099681      0.21117064837378
  N   0.20436156859141     -0.09726029555489     -1.57664899948311
  O   0.06178438024547      1.01976143995765     -2.06346036396773
  O   -0.02585483806754     -1.16338510157800     -2.15146056064207
