16
Coordinates from ORCA-job run
  C   -0.85548309704743     -0.39332820135461      0.36511330969598
  C   0.57857652641730      0.06157053098764     -0.02566345007010
  Cl  -1.72186667344166     -0.94307721663091     -1.10312582247002
  H   1.10380132678176      0.24655704671341      0.91582873057916
  C   -0.79364975536593     -1.51639874439742      1.31037983910149
  N   -0.76377799137116     -2.37281464557487      2.11372557532262
  N   -1.64893587525741      0.64247497191147      0.97669077929109
  H   -1.77006723230537      1.42834145250204      0.35077853031818
  H   -1.24116224855597      0.94479221167073      1.85404389748746
  C   0.62330019124035      1.27465608481099     -0.92862695230081
  H   0.04603201438552      1.11543531971423     -1.83755134555566
  H   0.24821906025755      2.15150322699374     -0.39924211965459
  H   1.65586117850863      1.47769877831649     -1.21503002563620
  N   1.32967840041151     -1.08541438093993     -0.64504981601964
  O   1.80984445900328     -1.90293844101286      0.13865738728877
  O   1.40062971633901     -1.12905799371012     -1.86992851737773
