16
Coordinates from ORCA-job run
  C   -0.80217240582357     -0.28882940979990      0.39235860251785
  C   0.65779003856232     -0.05034845554257     -0.04765124804905
  Cl  -1.85474549129927     -0.41312123968763     -1.10439358591893
  H   1.27183183635219     -0.22857305304758      0.83849330226215
  C   -0.95709198315541     -1.55986418821096      1.10731878897928
  N   -1.13161700380022     -2.53884375938785      1.73258441007733
  N   -1.19066342427803      0.76478270116960      1.26841778978193
  H   -1.27765855577872      1.63943290050005      0.76539838353599
  H   -2.07438091242141      0.55590591069732      1.71738985318878
  C   0.90839031228374      1.32445502685758     -0.62545772391585
  H   0.81086986865118      2.07385706875449      0.16100151601762
  H   0.22582421204072      1.54423498181955     -1.44563903383425
  H   1.92534993811708      1.37824149129272     -1.01360005049990
  N   1.06429168745398     -1.12868768480657     -1.01647944579893
  O   1.22784330260838     -2.24667650334110     -0.53264252846029
  O   1.19613858048699     -0.82596578726713     -2.19809902988376
