16
Coordinates from ORCA-job run
  C   -0.54248999712591     -0.46868395452267      0.69605191881338
  C   0.70417147738686     -0.13547339868184     -0.13685020458981
  Cl  0.05003126227389     -0.76953679475026      2.36548553381810
  H   1.40928100728573     -0.95487649259182      0.01086283794940
  C   -1.47174425993598      0.67145163178784      0.78099722115049
  N   -2.24990108495834      1.54975198043352      0.85212135968978
  N   -1.13856092306814     -1.69797430443914      0.22943376614624
  H   -1.64950938765005     -1.51357066425144     -0.62730239615977
  H   -1.78856047748186     -2.04908303314685      0.92333693401898
  C   1.32721451008013      1.21906263320502      0.15026811542117
  H   1.60546967473020      1.29132761265888      1.20140019325434
  H   0.62646277999290      2.02254597801680     -0.08631600350649
  H   2.22543760088941      1.33855521583380     -0.45670985475886
  N   0.37109484725247     -0.17438328183401     -1.60191489691559
  O   -0.78381508391047      0.08486899780291     -1.94106165375799
  O   1.30441805423910     -0.41298212552076     -2.35880287057338
