16
Coordinates from ORCA-job run
  C   -0.61071412443395     -0.36215575722321      0.76816550955041
  C   0.65760365754567     -0.19431620735184     -0.10745343586208
  Cl  0.01508564467242     -0.73234070952126      2.42517355454381
  H   1.26346483794389     -1.09202395042860      0.02738505187481
  C   -1.36803760047510      0.89020273851752      0.85240534491707
  N   -1.97357451800064      1.89444152172053      0.91926794723641
  N   -1.49272466987038     -1.41485044344780      0.36923538734676
  H   -2.11306607880104     -1.12596571165268     -0.37631662786371
  H   -0.98687563270113     -2.25231508245277      0.10818112631409
  C   1.44927540815908      1.07460523138664      0.12280520230656
  H   2.32136642881581      1.09159544167715     -0.53402008028777
  H   0.83645726692733      1.95171635255788     -0.08511386163396
  H   1.79534460172957      1.11354524582033      1.15568182188795
  N   0.19666653735725     -0.25863592667988     -1.53263140970284
  O   0.44626998247553     -1.28958600691566     -2.15561760013092
  O   -0.43654174134431      0.70508326399366     -1.95814793049665
