16
Coordinates from ORCA-job run
  C   -0.67635770093435     -0.40181648678401      0.63798114191977
  C   0.71311264818638     -0.13907441293117      0.02714919629249
  Cl  -0.73042379940541     -2.20285881611708      1.05075472384350
  H   1.46499279509587     -0.43799659162907      0.75758917316524
  C   -0.72633186737044      0.29262923304689      1.92950869764447
  N   -0.75050915258059      0.87434590875719      2.94983703989693
  N   -1.73833719193370      0.04321139385749     -0.17574422863273
  H   -2.63790447366453     -0.10218536397271      0.26361359797467
  H   -1.70427631122167     -0.38915242045862     -1.09055608858257
  C   0.89851197328195      1.29708673582850     -0.42791890587677
  H   0.75865718421235      1.97349165387437      0.41692844332912
  H   1.91189155143593      1.42912412531855     -0.81272751705286
  H   0.17539609232400      1.54945708437931     -1.20163379011320
  N   0.94828546175740     -1.04794547303905     -1.14297546468030
  O   0.09639288311879     -1.05709780169491     -2.03140202164214
  O   1.99689990769801     -1.68221876843568     -1.15140399748558
