14
Coordinates from ORCA-job run
  C   -0.47765727391590      0.41608173254210      0.29826114896145
  C   1.02908455561481      0.44669504537434      0.03492701517134
  F   -0.67712965466129      0.30455031386520      1.66529068424050
  H   1.50713267293566      1.12496825860990      0.74089267009560
  H   1.23837383472739      0.72644420092316     -0.99630399651535
  C   -1.01506462800360      1.71999098021540     -0.13430347507209
  N   -1.43171581581197      2.75370840632826     -0.50348833340577
  C   -1.20675076076962     -0.72324807388446     -0.38673342141498
  H   -0.85427072920354     -1.67338450172975      0.01586371118988
  H   -1.03482524972584     -0.70745924552390     -1.46367801739126
  H   -2.27492366238684     -0.63282048099789     -0.18836214268651
  N   1.60350874423777     -0.90923363629044      0.25142188333167
  O   1.71485074866881     -1.62679779747463     -0.74184110519336
  O   1.87738721829416     -1.22049520195730      1.40705337868887
