14
Coordinates from ORCA-job run
  C   -0.47937811125241      0.43566236791956      0.26701037715123
  C   1.04548279164652      0.37869658368902      0.15610321116762
  F   -0.82344800914651      0.28962398294147      1.60154042392554
  H   1.37450417306642      0.67961285814568     -0.83718864005097
  H   1.48908419755067      1.00013176571975      0.93326371113687
  C   -0.89071252187125      1.78533483135332     -0.16335230071267
  N   -1.20565926695077      2.85361033574940     -0.53510154937151
  C   -1.20219948596902     -0.62991159964051     -0.53379516297486
  H   -0.91996765184368     -0.58770572489731     -1.58652571523497
  H   -2.27767325629473     -0.47776328898665     -0.44016995728427
  H   -0.95106434125468     -1.61419112635326     -0.13732662876008
  N   1.51236613830889     -1.01791832932872      0.37295281804600
  O   1.64884422456479     -1.38559614724627      1.53640958456977
  O   1.67982111944577     -1.70658650906556     -0.63282017160769
