14
Coordinates from ORCA-job run
  C   -0.44542413020964      0.28970536896744     -0.00613352295621
  C   0.82991281271611     -0.49934789100297      0.25036095756569
  F   -0.52711481735451      1.26745678956396      0.97740223068597
  H   0.74353339077175     -1.04744788433263      1.18686125670387
  H   1.04827643899484     -1.17634957655307     -0.57756615743052
  C   -0.45052498308956      0.95377353732072     -1.32124926123513
  N   -0.55788544917643      1.42822882065505     -2.38955419117332
  C   -1.66333430327532     -0.61072751216925      0.11371261077394
  H   -1.64047199161048     -1.39973146306701     -0.64013761567963
  H   -2.56565512473518     -0.01525633849579     -0.02813566279238
  H   -1.68629351711206     -1.05644222025429      1.10970700597474
  N   2.01047331118337      0.40397214807363      0.40568183214253
  O   2.70129118915410      0.24177908521328      1.40661765276830
  O   2.20421717374299      1.22038713608094     -0.48856713534784
