14

C	-0.456739	-0.005474	-1.456931
C	0.0	0.0	0.0
Cl	-2.27315	0.159173	-1.556332
H	1.095295	0.0	0.0
H	-0.338694	0.946211	0.43294
C	0.093603	1.129483	-2.202459
N	0.479121	2.058036	-2.809705
C	-0.118303	-1.2582	-2.139263
N	0.150146	-2.260273	-2.691148
C	-0.50398	-1.194366	0.795032
H	-1.594703	-1.24344	0.840738
H	-0.12326	-2.127458	0.373441
H	-0.115615	-1.120119	1.812635
Cl	3.371985	0.0	0.0
