14

C	-0.455452	0.02174	-1.457127
C	0.0	0.0	0.0
Cl	-2.273938	-0.102177	-1.563112
H	1.097648	0.0	0.0
H	-0.341869	-0.948531	0.425135
C	-0.087309	1.270549	-2.131043
N	0.171283	2.287449	-2.659499
C	0.069719	-1.123305	-2.205988
N	0.43201	-2.066099	-2.805941
C	-0.496901	1.190032	0.806632
H	-0.111078	2.124304	0.392837
H	-1.586927	1.24528	0.854468
H	-0.107365	1.10447	1.822846
Cl	3.367735	0.0	0.0
