14

C	-0.477725	0.094312	-1.454726
C	0.0	0.0	0.0
Cl	0.21184	1.546519	-2.260899
H	1.098768	0.0	0.0
H	-0.336993	-0.973384	0.375196
C	-0.078826	-1.090399	-2.220523
N	0.185943	-2.068032	-2.816264
C	-1.942315	0.205733	-1.526969
N	-3.114943	0.285593	-1.5524
C	-0.525247	1.127687	0.875706
H	-0.191589	2.096601	0.500629
H	-1.616983	1.132077	0.95121
H	-0.108977	1.008406	1.877982
Cl	3.401252	0.0	0.0
