14

C	-0.486291	-0.075032	-1.450747
C	0.0	0.0	0.0
Cl	0.185938	1.297237	-2.392462
H	1.097256	0.0	0.0
H	-0.337684	0.96445	0.392472
C	-0.088356	-1.33034	-2.098522
N	0.167958	-2.359298	-2.604667
C	-1.952649	0.019377	-1.514572
N	-3.125289	0.097104	-1.516518
C	-0.526524	-1.155145	0.841968
H	-0.164111	-2.112142	0.459958
H	-0.14004	-1.047743	1.857285
H	-1.619611	-1.182696	0.889815
Cl	3.408144	0.0	0.0
