15

C	-0.229012	0.297454	0.145703
C	-0.595874	0.195493	-1.325617
F	1.163853	0.355992	0.298018
H	-0.090389	-0.725017	-1.663524
H	-0.606041	-0.620945	0.622235
C	-0.791215	1.500853	0.776211
N	-1.169346	2.472823	1.31582
C	-0.113925	1.387911	-2.133559
H	0.963063	1.532783	-2.016396
H	-0.636406	2.29316	-1.813121
H	-0.32344	1.232309	-3.197267
N	-2.045921	0.073167	-1.334162
H	-2.216131	-0.852456	-0.879519
H	-2.349583	-0.021967	-2.299698
H	-1.728918	-2.321758	-0.056769
