15

C	-0.091046	0.076467	-0.051781
C	-0.50409	-0.227846	-1.505019
F	1.302409	0.33568	-0.05577
H	0.327115	-0.840272	-1.879432
H	-0.298842	-0.770919	0.60093
C	-0.724866	1.276987	0.509478
N	-1.073335	2.32566	0.908584
C	-0.566989	1.049038	-2.334676
H	-0.686496	0.782915	-3.387036
H	-1.436434	1.638475	-2.035178
H	0.333449	1.659197	-2.211689
N	-1.749118	-0.978927	-1.628003
H	-2.299402	-0.824798	-0.756213
H	-1.52052	-1.965307	-1.54756
H	-2.599716	-0.964679	0.952668
