15

C	-0.275886	0.116438	0.064065
C	-0.425407	-0.047431	-1.446032
F	0.608367	-0.833201	0.5749
H	0.585155	-0.059329	-1.881402
H	-1.279702	-0.040147	0.501933
C	0.261535	1.436556	0.42997
N	0.702295	2.483229	0.73002
C	-1.234223	1.126035	-2.009455
H	-2.210418	1.131023	-1.517176
H	-1.388188	0.970816	-3.082515
H	-0.737051	2.092127	-1.874058
N	-1.060677	-1.346297	-1.650706
H	-1.308033	-1.42285	-2.632753
H	-1.948984	-1.300871	-1.121415
H	-3.2081	-0.552345	0.100253
