15

C	-0.227559	0.322711	0.078796
C	-0.631015	-0.091348	-1.326835
F	1.163625	0.478082	0.161154
H	-0.08362	-1.034497	-1.494228
H	-0.540049	-0.498913	0.742475
C	-0.836967	1.599707	0.477867
N	-1.252904	2.643902	0.8178
C	-0.241253	0.935526	-2.375628
H	-0.800764	1.861858	-2.220542
H	-0.476478	0.559789	-3.377187
H	0.829641	1.150361	-2.335382
N	-2.071012	-0.286055	-1.251906
H	-2.174634	-1.107095	-0.613892
H	-2.398662	-0.589482	-2.165096
H	-1.576482	-2.35383	0.469671
