15

C	-0.244627	0.279512	0.163864
C	-0.628027	0.266952	-1.306792
F	1.150499	0.300129	0.303602
H	-0.143631	-0.642838	-1.700246
H	-0.637537	-0.656439	0.591502
C	-0.774371	1.457685	0.865808
N	-1.127858	2.410671	1.45383
C	-0.130583	1.492463	-2.053387
H	-0.632227	2.388677	-1.678779
H	0.950022	1.610299	-1.939393
H	-0.353074	1.3992	-3.121744
N	-2.080071	0.172366	-1.306874
H	-2.264405	-0.772268	-0.900018
H	-2.395171	0.134785	-2.272644
H	-1.793843	-2.294882	-0.15977
