15
Coordinates from ORCA-job run
  C   -0.53756368656812     -0.27204809707994     -0.60558133964163
  C   0.86897551710154     -0.63167798529285     -0.11091523775365
  Br  -1.14009127098077     -1.71427080076128     -1.80902004310335
  H   1.50746748877357     -0.79057788844391     -0.98407604282801
  H   0.79454429189673     -1.59105425812296      0.41068864461228
  C   -0.49556394121117      0.95255306113101     -1.40279135938188
  N   -0.43823101892659      1.96497021652503     -1.99758053906219
  C   -1.55921321793970     -0.13603712646283      0.51894534834858
  H   -1.57166662973221     -1.05169394766944      1.11366897776521
  H   -1.29576662543528      0.70721265242933      1.16117206464298
  H   -2.55698292141641      0.03570061165512      0.11449694047239
  C   1.47885379678369      0.43238990211753      0.79882747760970
  H   0.93276042735056      0.53047695821327      1.73855021184203
  H   2.50659678353203      0.15634469661506      1.04441658405308
  H   1.50588100677214      1.40871200514687      0.30919831242446
