15
Coordinates from ORCA-job run
  C   -0.56281588096815     -0.26666664988609     -0.58511135429621
  C   0.86182872425699     -0.63216665146005     -0.14983555804175
  Br  -1.21509708077558     -1.69859157965261     -1.77502863194206
  H   1.46407017917246     -0.78731723215996     -1.04901671495968
  H   0.80607530558099     -1.59434691123897      0.36892125815089
  C   -0.55071871037699      0.96410370352130     -1.37368842936009
  N   -0.51537114396906      1.98083897598788     -1.96272800350264
  C   -1.53871442238937     -0.13878528898247      0.58020389083439
  H   -2.55131314898958      0.03899252891338      0.21728913241231
  H   -1.24785244311245      0.69788612829678      1.21922279491934
  H   -1.53001593626350     -1.05992555686713      1.16650847829677
  C   1.51081813770425      0.42526945300895      0.74030162393548
  H   1.52471506949252      1.40314153721041      0.25342350618758
  H   1.00090388284944      0.52264706789160      1.70014836875867
  H   2.54548746778803      0.14292047541696      0.94638963860700
