15
Coordinates from ORCA-job run
  C   -0.56321665051083     -0.03630315751309     -0.35030373385264
  C   0.65809169848529     -0.34947701848977      0.52063676509753
  Br  -0.30468172791089     -0.81078319332236     -2.14649296219011
  H   0.74735602783233     -1.43938700573834      0.57135803021664
  H   0.41033691608564      0.00192963757310      1.53009766503769
  C   -0.70618275361440      1.40754702480718     -0.52683948356213
  N   -0.82330342903076      2.57419466953336     -0.61195414814606
  C   -1.84280391072122     -0.62640873001156      0.23468020121610
  H   -2.02575964010528     -0.18421990814815      1.21798768736121
  H   -1.73121423388730     -1.70666414952852      0.34305140997557
  H   -2.69885068401540     -0.42224215752925     -0.40899373260041
  C   1.96676031203130      0.27971803718880      0.06285063299971
  H   1.89137033462435      1.36873649958926      0.02695668228883
  H   2.76574093546807      0.02187660209109      0.76128462209461
  H   2.25435680526912     -0.07851715050174     -0.92631963593651
