16

C	-0.238246	0.073162	-1.507132
C	0.0	0.0	0.0
F	-0.294374	-1.242634	-2.016872
H	1.100611	0.0	0.0
H	-1.199672	0.527113	-1.782126
N	0.854337	0.740321	-2.159632
H	0.690608	1.736739	-2.164128
H	1.697516	0.55791	-1.589149
N	-0.665677	-1.155741	0.621499
H	-0.387176	-1.966081	0.079964
H	-0.227596	-1.274805	1.529957
C	-0.47964	1.281215	0.658578
H	-1.572694	1.367791	0.610949
H	-0.020788	2.152136	0.181049
H	-0.177158	1.301181	1.710776
F	2.776667	0.0	0.0
