16

C	-0.484618	0.072305	-1.426057
C	0.0	0.0	0.0
F	-1.934694	0.187436	-1.423114
H	1.095034	0.0	0.0
H	-0.148978	0.992588	-1.911291
N	-0.110731	-1.045299	-2.21476
H	-0.288523	-1.895286	-1.699947
H	-0.642155	-1.061868	-3.077016
N	-0.424064	-1.228789	0.682748
H	-1.31984	-1.558986	0.344226
H	0.285942	-1.936038	0.55199
C	-0.474443	1.210474	0.788702
H	0.019364	1.195656	1.761439
H	-0.190518	2.138783	0.28119
H	-1.559427	1.208881	0.936989
F	2.696744	0.0	0.0
