16

C	-0.193526	-0.04589	-1.498515
C	0.0	0.0	0.0
F	-1.544285	-0.238143	-1.85367
H	1.096847	0.0	0.0
H	0.109593	0.913393	-1.935201
N	0.598354	-1.094672	-2.0988
H	0.320069	-1.929543	-1.591536
H	1.542487	-0.894657	-1.747629
N	-0.418746	-1.279498	0.589136
H	-1.317882	-1.187743	1.047446
H	0.269768	-1.527608	1.287815
C	-0.601902	1.218167	0.671562
H	-1.698334	1.208771	0.614151
H	-0.247081	2.139577	0.198554
H	-0.311044	1.255248	1.725355
F	2.725097	0.0	0.0
