16

C	-0.154715	-0.06983	-1.518762
C	0.0	0.0	0.0
F	-1.400632	-0.655204	-1.895991
H	1.0974	0.0	0.0
H	-0.219447	0.937663	-1.959024
N	0.917479	-0.867154	-2.02739
H	1.105285	-0.648886	-2.996862
H	1.757833	-0.663866	-1.454374
N	-0.44299	-1.235648	0.657153
H	-1.235322	-1.604419	0.139021
H	0.309842	-1.906108	0.546727
C	-0.658578	1.213161	0.617077
H	-0.25295	2.139092	0.196381
H	-1.744246	1.203007	0.452402
H	-0.47921	1.214128	1.694198
F	2.765944	0.0	0.0
