16

C	-0.45001	0.06847	-1.447469
C	0.0	0.0	0.0
F	-0.141157	1.331004	-1.958665
H	1.094644	0.0	0.0
H	0.128061	-0.652785	-2.033292
N	-1.862182	-0.152746	-1.69454
H	-2.398553	0.075966	-0.870141
H	-2.040758	-1.109631	-1.955729
N	-0.342219	-1.305692	0.595842
H	0.455478	-1.913699	0.438636
H	-1.158895	-1.719938	0.156316
C	-0.560552	1.132273	0.841499
H	-0.323949	2.099903	0.394329
H	-1.649464	1.066399	0.987213
H	-0.095443	1.079829	1.827571
F	2.701479	0.0	0.0
