14
Coordinates from ORCA-job run
  C   -0.20109742359560      0.26314595275567     -0.60387132980964
  C   0.95255464728313      0.07199047220636      0.40317245990691
  H   0.18779887677366      0.76217579318219     -1.49423654644362
  H   1.33956929784843      1.05883912754125      0.67801288866353
  N   -1.12847107784422      1.32360704060289      0.03939739520440
  O   -2.29012083057716      1.00123290407559      0.25669020356017
  O   -0.61149158239267      2.41139701611254      0.27510070875980
  N   -0.82380167111538     -0.95217053628926     -0.92951980853825
  H   -1.31475169656533     -1.35747751520612     -0.14195622521167
  H   -1.46166809113782     -0.85892160904855     -1.70736089121441
  C   2.02488422558484     -0.71093287590727     -0.21461450181554
  N   2.89740377207646     -1.30776827311834     -0.72444364124192
  C   0.44485196292474     -0.59016939835575      1.60976955457988
  N   -0.01466040926308     -1.11594809855120      2.55385973360035
