14
Coordinates from ORCA-job run
  C   -0.24255093791929      0.29975729795612     -0.53018135315740
  C   0.97768235842613      0.08417103007582      0.39703615994276
  H   0.09534000591657      0.85940444422575     -1.41323725767551
  H   1.45517822730241      1.04894269888290      0.59623889382183
  N   -1.17153260478704      1.26105805358302      0.18656450852975
  O   -2.36516299257928      0.99131549558721      0.23264614178008
  O   -0.63605406385350      2.26696457032337      0.63931973904641
  N   -0.90641305455942     -0.94018275082913     -0.78467939514018
  H   -1.90826791230858     -0.80261351034795     -0.82053935629997
  H   -0.58035258583282     -1.35414384810260     -1.64740486007605
  C   1.91787855761422     -0.79495437313884     -0.30065095034275
  N   2.64388590550601     -1.48014031117429     -0.91848718089254
  C   0.53953961070562     -0.50367414392082      1.66631421741255
  N   0.18282948636897     -0.93690465312057      2.69706069305103
