14
Coordinates from ORCA-job run
  C   -0.21876239559731      0.21236609882059     -0.61788682636809
  C   0.95760832886801      0.12013159794972      0.37664867776217
  H   0.14323305891345      0.64897749013165     -1.55133643772374
  H   1.32821356592601      1.13230915964148      0.57017127725095
  N   -1.15434387993828      1.30169465890809     -0.03841381866816
  O   -0.65466130379139      2.41361741895769      0.10303709503652
  O   -2.30472976994234      0.97535019424919      0.22758573334834
  N   -0.82294101436780     -1.03553810595741     -0.83705360802407
  H   -1.28919275246912     -1.38914583336869     -0.01058006492414
  H   -1.47789025877804     -1.01480193564048     -1.60583118952147
  C   2.03577961141832     -0.68407902492083     -0.20243314510669
  N   2.91389086509146     -1.29732489058326     -0.68239890127041
  C   0.48758361003499     -0.46081792206483      1.63915470069253
  N   0.05721233463203     -0.92473890612291      2.62833650751625
