14
Coordinates from ORCA-job run
  C   -0.25710774781238      0.06552765047353     -0.48996345915779
  C   0.58052240677717     -0.16704498390024      0.77751147587893
  H   0.38351669024959      0.03023615317486     -1.38130553329158
  H   -0.04449092239998      0.08517668908052      1.64009683664452
  N   -0.80144270132731      1.47673003960954     -0.47010477371886
  O   -1.34682081480763      1.82146031829829     -1.51340383624143
  O   -0.69740174441658      2.14055869731014      0.55518477602563
  N   -1.41046905956636     -0.79433685462621     -0.49598151162387
  H   -1.96201913747598     -0.60623432037825     -1.32564851801391
  H   -1.12750086787993     -1.76728555491262     -0.51857720302543
  C   1.77668056276983      0.67982334296826      0.77588847029785
  N   2.74051540468747      1.34884128587353      0.74376422504882
  C   0.95491473093822     -1.58283062788365      0.84386980053324
  N   1.21110320026390     -2.72862183508770      0.85966925064387
