15
Coordinates from ORCA-job run
  C   0.63203580170884     -0.53415362852815     -0.56169618880998
  C   -0.63966513654799     -0.01586483150349      0.10903705462559
  Cl  0.66194350964598     -0.06469917454823     -2.29282868396508
  H   -0.53331190386007     -0.29475720534701      1.17081213220577
  H   0.60808300038315     -1.62821733578852     -0.55828440706088
  C   1.88761779369584     -0.03134261737755      0.12065794013005
  H   1.90501486291421      1.05720787123489      0.10003576298871
  H   1.89977569451751     -0.36204983145761      1.16352108218730
  H   2.77796228750257     -0.41937303086773     -0.37590097423450
  N   -1.81444466575775     -0.61442272570247     -0.51822268875937
  H   -2.63966186779762     -0.38552046948200      0.02356083898884
  H   -1.73614495246277     -1.62529768663271     -0.54815997745262
  N   -0.67909153191920      1.42890091027350      0.06643193289746
  H   -1.36583790405880      1.78020898744960      0.72193425717375
  H   -0.96327498796391      1.70938076827749     -0.86589808091502
