15
Coordinates from ORCA-job run
  C   0.64122818589647     -0.49156668513944     -0.80278405759341
  C   -0.76372306124414      0.04290026565544     -0.50364306596920
  Cl  1.15704701384455      0.08401073031581     -2.41814423830214
  H   -1.36394417592083     -0.07830070450410     -1.41574554924737
  H   0.58632116863196     -1.58044682703883     -0.89197075335516
  C   1.66735197107458     -0.09705930933834      0.23820050997423
  H   1.80633564301720      0.98437848710958      0.22994925975714
  H   2.62840762238335     -0.56846053640388      0.02803927547983
  H   1.32276750375027     -0.41591820976683      1.22417340005694
  N   -0.72024372801546      1.45576592520086     -0.20839776911527
  H   -1.61387003897472      1.89259764475391     -0.38867476516941
  H   -0.48788790063518      1.58709408670994      0.76899146473050
  N   -1.28096015966346     -0.72389466762708      0.63568522844616
  H   -2.20868414983437     -0.38539014008053      0.86531948103200
  H   -1.36914589431024     -1.70571005984651      0.39400157927516
