15
Coordinates from ORCA-job run
  C   0.68553583005413     -0.62906212309366     -0.37069243519217
  C   -0.70909015781547     -0.00032551307497     -0.37163783267229
  Cl  0.90415407792620     -1.55202529910556     -1.89011629864095
  H   -0.85335513322406      0.49089379330738     -1.34525385160348
  H   0.72500637865611     -1.36183525351176      0.43932946850550
  C   1.81485645205287      0.37434784664671     -0.23275105293746
  H   1.75353298997343      1.13505125616960     -1.01606383375490
  H   1.77040665424775      0.85246285383237      0.74725623565321
  H   2.78052625276559     -0.12338773438879     -0.32565472322720
  N   -0.78896854321847      0.92789978419211      0.76482072970474
  H   -0.25271207174720      1.76899155665215      0.58113232570654
  H   -1.75602142078214      1.21171358741563      0.87451323015942
  N   -1.70518662671917     -1.04002644861317     -0.26471544270338
  H   -2.61845756391341     -0.69920847529043     -0.53521363858493
  H   -1.75022711825616     -1.35548983113760      0.69804711958733
