15
Coordinates from ORCA-job run
  C   0.64863843543589     -0.42441314304295     -0.83630048751462
  C   -0.78954701298872     -0.06041056301797     -0.46568353078250
  Cl  1.12812312730482      0.49386215435057     -2.31306831778831
  H   -1.41307313921260     -0.29903443801860     -1.34006830013997
  H   0.64408350349555     -1.47303137487558     -1.13432107688345
  C   1.65456676382442     -0.18381745498125      0.26931767552253
  H   1.39910818761066     -0.80980588008961      1.12733100371192
  H   1.65153683624638      0.86115471003382      0.57666209353151
  H   2.65718265810441     -0.45590862057792     -0.06350297102632
  N   -0.86844384532443      1.34038725323660     -0.06438194568118
  H   -0.51708114281769      1.93780628321794     -0.80471254057777
  H   -1.83896424057404      1.58721044495451      0.09130150405470
  N   -1.20426314981944     -0.94361720198852      0.61109186802232
  H   -0.94304659251512     -0.51454476540106      1.49200916508539
  H   -2.20982038877009     -1.05683740379997      0.60732586046574
