15
Coordinates from ORCA-job run
  C   0.60842984892757     -0.60597527071681     -0.25223381573019
  C   -0.74573396955916      0.11028214433340     -0.33093436309613
  Cl  0.72452833069122     -1.75436586511576     -1.63349883789259
  H   -0.81649626486283      0.57141843032122     -1.32887803589005
  H   0.61379324829233     -1.21846993008195      0.65279579739456
  C   1.80190827539334      0.32771348115454     -0.27924695897510
  H   1.81049662766357      0.93598215841011      0.62731746222582
  H   2.73572096504052     -0.23442769140371     -0.31852506712561
  H   1.76140325780798      0.97938683020257     -1.15627716753642
  N   -0.80440761257375      1.06335069960893      0.77004024088341
  H   -0.24350731991782      1.88145735113948      0.56827103315998
  H   -1.76965375346951      1.36236219165317      0.85007330845429
  N   -1.90512405251417     -0.74552875169180     -0.17951344030795
  H   -1.94669909958891     -1.41858367451707     -0.93374338037747
  H   -1.82465848133037     -1.25360210329633      0.69535322481346
