15
Coordinates from ORCA-job run
  C   0.68283200646895     -0.17114809618542     -0.73015599693064
  C   -0.57368286580544      0.37180639230324     -0.05050863591217
  Cl  1.29812882617312      1.05525547528248     -1.90093100342365
  H   -0.27821525778169      1.27936089786912      0.49905196669306
  H   0.39537784292174     -1.03338751446077     -1.33789293889961
  C   1.78891776588906     -0.51837434921437      0.24339416272432
  H   2.08530172181860      0.36658332355215      0.81133863736049
  H   2.66402757165392     -0.89214161473534     -0.29015579050041
  H   1.43054393648948     -1.27596265788495      0.93876363403649
  N   -1.01509500205679     -0.60415946436740      0.93136679958260
  H   -1.57712665800528     -1.29563119011181      0.44558208820996
  H   -1.60355482247591     -0.16182584112422      1.62605795121458
  N   -1.61339377514584      0.60331756498212     -1.04894816783863
  H   -2.40575643712290      1.05366726095587     -0.60546723203468
  H   -1.27830485302099      1.22263981313931     -1.77749547428172
