15
Coordinates from ORCA-job run
  C   0.57152127024189     -0.56491946520692     -0.23583856867760
  C   -0.81197343221355      0.09350352858343     -0.40515273755479
  Cl  0.79603814771462     -1.82343578540212     -1.50622978925624
  H   -0.81919780365297      0.56855059257030     -1.39407760836932
  H   0.57827011111348     -1.10800992252884      0.71558527677549
  C   1.72986545143660      0.41055898327297     -0.32102733402001
  H   1.69674528988066      0.95311810267158     -1.26924277928855
  H   2.68449055993432     -0.11357948624762     -0.26373813677828
  H   1.68686687146702      1.12928523874338      0.49918481484043
  N   -1.02965683450572      1.13094585623777      0.58980025168568
  H   -0.66681784253902      0.85271909810898      1.49477037012630
  H   -0.58662344485512      1.99795465837353      0.32228514602926
  N   -1.93302591464251     -0.82834947501451     -0.33692934040903
  H   -1.70324417607290     -1.71513390559284     -0.76624224599873
  H   -2.18925825330681     -0.98220801856910      0.62985268089538
