15
Coordinates from ORCA-job run
  C   0.60628728020929     -0.56934035228682     -0.47423757167021
  C   -0.71197466963949     -0.16253569006062      0.19578290108924
  Cl  0.53075582915776     -0.20557835526357     -2.23914982558193
  H   -0.57553803636697     -0.39930892278269      1.25904225443951
  H   0.69013603703434     -1.65536347443097     -0.40749972748269
  C   1.82178567777202      0.11306218994238      0.11692387527669
  H   1.88126974399086     -0.10415739305819      1.18758707430260
  H   1.76838956202233      1.19412944947241     -0.02220460299149
  H   2.73667408237625     -0.24351285409156     -0.35767452773354
  N   -1.77248155570013     -1.01477303443882     -0.30020705992828
  H   -2.64281396569380     -0.69519393425891      0.10902871944612
  H   -1.85493745611411     -0.90140097064690     -1.30455813354838
  N   -1.05193720289153      1.25288450507351      0.13120419003685
  H   -1.00959535863890      1.57905685507923     -0.82803453595050
  H   -0.41501996751794      1.81203198175152      0.68599697029600
