15
Coordinates from ORCA-job run
  C   0.52879621172698     -0.42776997588371     -0.80177882070841
  C   -0.92946830067976      0.01309651023729     -0.52813695844208
  Cl  1.09577103610281      0.35331038205968     -2.32357207501599
  H   -1.49490202560666     -0.20218315607763     -1.44123461825792
  H   0.52660896400787     -1.49923681386452     -1.02254017692758
  C   1.51070931927646     -0.11768492145907      0.30929497824349
  H   1.58281815662436      0.95826390685636      0.47464702312796
  H   1.20126956875456     -0.60273020101074      1.23866707445274
  H   2.50604982881362     -0.48404901849072      0.05581462714129
  N   -1.09897094039798      1.42276001134475     -0.24152918967363
  H   -0.65398769813477      1.97963127737215     -0.96041476080319
  H   -0.67641159389444      1.66097099663696      0.64797169778827
  N   -1.54036863359165     -0.75087288497304      0.54688982799780
  H   -1.46843222114882     -1.74424028760810      0.36484973366875
  H   -1.08848167185258     -0.55926582513967      1.43307163740851
