13
Coordinates from ORCA-job run
  C   -0.74136215679745      0.18562626422855      0.24631746328771
  C   0.00740095888954     -0.55030289640841     -0.86498351316008
  Br  -2.60829393789965     -0.34658845826316      0.29640010572368
  H   -0.16870053471242     -1.61895104946278     -0.73177244460883
  H   -0.44012261132697     -0.24605459648634     -1.81482335341925
  N   -0.12819281487923     -0.21235082883085      1.59355760454074
  O   -0.09494354074532      0.64491340554843      2.46346762979761
  O   0.24367593279299     -1.37382292288009      1.68556714000724
  C   -0.64506834092648      1.62771292568382      0.09230549419422
  N   -0.57050181339187      2.78110862748175     -0.12076345786668
  N   1.40188321816552     -0.17947472738772     -0.75797358675128
  H   1.98420100263446     -0.95743840246959     -0.48783723906450
  H   1.76002463819689      0.24462265924639     -1.59946184268057
