13
Coordinates from ORCA-job run
  C   -0.69515235399514      0.19540530144887      0.20605232521028
  C   0.41700506490533      0.08254443385186     -0.84660629812953
  Br  -2.08302600984798     -1.10524247502559     -0.11747983975642
  H   -0.04425241803632      0.25552602192571     -1.82667641761798
  H   1.11191320638821      0.90035249398146     -0.64507480612441
  N   -0.02100082352440     -0.04857913220149      1.57477784141493
  O   0.82098463297905      0.79975708475924      1.84059925656536
  O   -0.33362530645674     -1.01900517181326      2.23464738594858
  C   -1.27823501148223      1.52789399308673      0.23053643031011
  N   -1.72856339566641      2.61362976788456      0.20391578339240
  N   1.09702823021679     -1.18232719570553     -0.68260849455560
  H   0.66784679570032     -1.91298029968434     -1.23260864055120
  H   2.07007738881953     -1.10597482250821     -0.94047452610652
