13
Coordinates from ORCA-job run
  C   -0.57096945545168      0.19696372831491      0.32558682264243
  C   0.58400390367183     -0.53809772771304     -0.37983127021450
  Br  -2.27245945102128     -0.36197729153785     -0.39532188063285
  H   0.43788924417042     -1.60938254576136     -0.19351614435510
  H   1.49929162877336     -0.21924600693574      0.12872293137075
  N   -0.47031119958837     -0.19371960964289      1.80900136019715
  O   0.23720357759749      0.54158022604311      2.48816927584171
  O   -0.99466624363535     -1.24009044555122      2.15452285872530
  C   -0.44884161882234      1.63941379813737      0.20345108909074
  N   -0.33597514983497      2.80309061231031      0.08345678971463
  N   0.62830312334216     -0.15195057322804     -1.76905940670827
  H   1.57723173120801     -0.06274918578371     -2.09974478029400
  H   0.12929990959074     -0.80383497865186     -2.35643764537799
