13
Coordinates from ORCA-job run
  C   -0.66122202881163      0.22707931386386      0.27428175934387
  C   0.30864762601693      0.00680357745002     -0.89568976796254
  Br  -2.09656565449704     -1.06121343944457      0.22986320476888
  H   -0.26901196446456      0.11506973154566     -1.82187065888196
  H   1.03485695024829      0.82077771553082     -0.84692536037845
  N   0.17587100838157      0.07361832426353      1.56405557489253
  O   1.05681457290773      0.91916143490703      1.65481184971510
  O   -0.06593149144269     -0.83447621757109      2.33336745302740
  C   -1.21771737728478      1.57107023208191      0.26471967893313
  N   -1.65246563901100      2.66206165181570      0.20874237816463
  N   0.98564050659770     -1.25765476469495     -0.71714396688246
  H   1.91971666032596     -1.22519374772593     -1.09867299879970
  H   0.48036683103354     -2.01810381202197     -1.14953914594043
