13
Coordinates from ORCA-job run
  C   -0.48842818232941      0.22166245156075      0.35032143633698
  C   0.54072276244007     -0.61120779307717     -0.42155559475887
  Br  -2.28023495385686     -0.14632627731640     -0.30716755851228
  H   0.28299735234202     -1.66537043372977     -0.29192328567998
  H   1.50675394670024     -0.44123114372717      0.06396615590732
  N   -0.49159404557592     -0.16152514377981      1.83480306971512
  O   -0.13739562377157     -1.30506183480914      2.09434969666041
  O   -0.87328597326843      0.68898285214701      2.62600308323850
  C   -0.21388610364704      1.64492901788617      0.24147441291579
  N   0.05984492173093      2.78401459859394      0.14885102627550
  N   0.58121923476807     -0.14508176937518     -1.79228176031951
  H   1.52248326200704     -0.15738957342579     -2.15583263384964
  H   -0.00819659753914     -0.70639495094744     -2.39000804792932
