13
Coordinates from ORCA-job run
  C   -0.57565949882560      0.14694337193537      0.34326524936432
  C   0.62926185096490     -0.48683492475176     -0.37687834409835
  Br  -2.22301705617227     -0.67020247555221     -0.24266833261715
  H   1.51883265739023     -0.01812159127104      0.05470495498603
  H   0.63257435891985     -1.55135723450444     -0.11032552817146
  N   -0.35150522779990     -0.11644671925283      1.84212878489790
  O   -0.78132493478174     -1.15733725688286      2.31126511859851
  O   0.35143814192862      0.71648606275922      2.40340676568524
  C   -0.64545155281710      1.58108764438543      0.12114556912717
  N   -0.68988972454370      2.73878246405160     -0.07681254311813
  N   0.55515221179977     -0.20262365301968     -1.78909667436392
  H   1.46821353768494     -0.02673101907624     -2.18067649698892
  H   0.11037523625200     -0.95064466882056     -2.30045852330124
