13
Coordinates from ORCA-job run
  C   -0.69166555109737      0.21284569346289      0.20127418885738
  C   0.42181735740558      0.06628849942731     -0.84579502250498
  Br  -2.10801039757165     -1.05772351844104     -0.11852599407152
  H   -0.03148766134965      0.24152390412737     -1.82911127070072
  H   1.13423938457924      0.86983235451474     -0.64811070257453
  N   -0.02875203950134     -0.03684734006967      1.57466203498773
  O   -0.36659627723803     -0.99459339367645      2.24042402844116
  O   0.83181933724001      0.79356633854751      1.83764777733764
  C   -1.24377911021570      1.55859870764990      0.21460334318153
  N   -1.66875233651149      2.65428747678027      0.17941182125724
  N   1.07224229650193     -1.21233318023598     -0.66869603283987
  H   2.04838444806309     -1.15936550635429     -0.92111580811256
  H   0.63054054969538     -1.93708003573256     -1.21666836325851
