13
Coordinates from ORCA-job run
  C   -0.50047034294160      0.12240837875985      0.34706594026760
  C   0.62911337477027     -0.62097429426433     -0.41544824054500
  Br  -2.24329589714919     -0.48086991840340     -0.24420509537526
  H   0.47254082441097     -1.68803391166060     -0.24497569434550
  H   1.56553571651539     -0.32925742549756      0.07342013780557
  N   -0.33649564252389     -0.21583097662046      1.83047508218968
  O   0.03113139263885      0.69108906306875      2.56734124577206
  O   -0.50801294820439     -1.38880638186785      2.12714222197098
  C   -0.40279173912736      1.55842010301140      0.15322031198401
  N   -0.24166077975694      2.70534171066970     -0.05007547487234
  N   0.72401969925060     -0.35030805860033     -1.82006487770879
  H   -0.11239278651842     -0.62738068553882     -2.31527785774781
  H   0.92277912863571      0.62320239694363     -2.00961769939519
