13
Coordinates from ORCA-job run
  C   -0.71240596123054      0.16837912380258      0.22123655650615
  C   -0.04463703461070     -0.60701860136160     -0.92874019294218
  Br  -2.60416462233902     -0.24957574280033      0.32740969937772
  H   -0.54628121196939     -0.29864173884088     -1.84948931370472
  H   -0.24950914860946     -1.66618552067534     -0.77059541926404
  N   -0.08977881018451     -0.25892342272453      1.55670857729747
  O   0.04017552335129      0.60439670830381      2.41359585864679
  O   0.20649743499158     -1.44245189438128      1.65148190592635
  C   -0.53104644203343      1.60261787966487      0.06608687993068
  N   -0.34860895518345      2.74129318096130     -0.16351139351469
  N   1.37222057815655     -0.39754776432988     -1.04827153094485
  H   1.61891894816717      0.56858947831488     -1.21402967160837
  H   1.88661970149393     -0.76493168593362     -0.26088195570632
