13
Coordinates from ORCA-job run
  C   -0.58699898479492      0.12936232956277      0.33142270744398
  C   0.64596668394009     -0.46620347256909     -0.37353316751606
  Br  -2.20625910848576     -0.69222900538920     -0.32189465927461
  H   0.65729207460726     -1.53812107643853     -0.13871127489651
  H   1.51656659805009      0.00160478009385      0.09648746499290
  N   -0.39990642430845     -0.17824215771990      1.82684334831950
  O   -0.79608719838915     -1.25582808226346      2.23984988576075
  O   0.24483466512323      0.66166220978109      2.44441987425011
  C   -0.67110664594148      1.56844138477469      0.15082560531590
  N   -0.72444621593030      2.73070143974772     -0.01528124761172
  N   0.60661240673627     -0.14057180925854     -1.77833569513994
  H   0.18536994434559     -0.87881607632367     -2.32299666775330
  H   1.52816220504753      0.05623953600227     -2.13909617389098
