13
Coordinates from ORCA-job run
  C   -0.68172454668839      0.18751331523630      0.25702979688114
  C   0.31017907598938     -0.03949565007845     -0.89368005281006
  Br  -1.99238516181525     -1.22613909674615      0.32468206520589
  H   0.95693212250275      0.84006358677199     -0.91611217132595
  H   -0.27119833796249     -0.06361600666954     -1.82352470381906
  N   0.16053854504257      0.21916120972241      1.55154801013496
  O   0.00630578245167     -0.64494678456300      2.39094809431194
  O   0.95577000164436      1.15015773856515      1.57105482098005
  C   -1.35869974152453      1.46927403439688      0.13609324364791
  N   -1.89260236108668      2.50609947527635     -0.01309148762519
  N   1.10085814014852     -1.21577084657066     -0.61215502246286
  H   0.67330464864340     -2.05342937942877     -0.98078108306115
  H   2.03172183265469     -1.12687159591251     -0.99201151005760
