13
Coordinates from ORCA-job run
  C   -0.64963524302242      0.16066056564680      0.27346670000997
  C   0.20107411894668     -0.11166748331959     -1.00242561817819
  Br  -1.79016653920563     -1.33979942658067      0.68143479337784
  H   -0.50901420696455     -0.28571726158798     -1.81432664752199
  H   0.73670513792631      0.81875648010318     -1.21152418734626
  N   0.36140457947061      0.39953483184871      1.40364270186478
  O   0.60257762177754     -0.50794257294470      2.18211523839845
  O   0.91930778541505      1.48930886722437      1.33765369184703
  C   -1.45911329233300      1.35701548193072      0.12297756853340
  N   -2.11303187399768      2.31494553981494     -0.07102416664847
  N   1.13491396415308     -1.19522316192153     -0.92614181545712
  H   0.68502908732274     -2.07426661029362     -0.71024760435341
  H   1.87994886051127     -1.02560524992064     -0.26460065452604
