13
Coordinates from ORCA-job run
  C   -0.49296556454235      0.13351453101114      0.35657396690311
  C   0.60159931886282     -0.63388933257548     -0.43376958043265
  Br  -2.26098888324605     -0.36491794344690     -0.25473005845589
  H   1.55026547374985     -0.40288645062734      0.06382650324047
  H   0.39519807264938     -1.69777064723614     -0.30003693522894
  N   -0.34405933211162     -0.26485800207363      1.82536427826439
  O   0.07609279267218      0.59596042270645      2.58951849447045
  O   -0.57761642309329     -1.43597002497317      2.08450957831218
  C   -0.32783243736512      1.56976057752866      0.21470810699048
  N   -0.14295755806350      2.71073930237982     -0.00165726860052
  N   0.70934093112724     -0.31932635363964     -1.82804916289507
  H   0.95148394843981      0.65041124035050     -1.98357123420773
  H   -0.13856033907935     -0.54076731940426     -2.33168668836029
