13
Coordinates from ORCA-job run
  C   -0.49887806024453      0.12746418121961      0.35108664260227
  C   0.63605851266594     -0.62466125404413     -0.39612011839239
  Br  -2.23672081237848     -0.51475850997885     -0.21058548889222
  H   0.49397791585839     -1.68765679560693     -0.19048463103164
  H   1.57139404475635     -0.30513228062276      0.07714685485123
  N   -0.31838738493944     -0.16299213302387      1.84163025180459
  O   0.06255113712899      0.76816061579071      2.54118529657725
  O   -0.48752528963961     -1.32448955599366      2.18135381463079
  C   -0.42077788037842      1.55829864865778      0.11308202279885
  N   -0.30634525855329      2.69153361767255     -0.17931347468473
  N   0.71850435962991     -0.39771518867942     -1.80890755761208
  H   0.90342529789546      0.57171165785642     -2.03039078411005
  H   -0.11727658180126     -0.70076300324744     -2.28968282854187
