13
Coordinates from ORCA-job run
  C   -0.56246278142322      0.22198595923481      0.23942111674708
  C   0.34527543753130     -0.10836325476115     -0.97224004963297
  Br  -1.78459604140406     -1.23682166753271      0.62686336615972
  H   1.06038031443897      0.71710187776744     -1.04129779309983
  H   -0.30453974712189     -0.05224058256094     -1.84965897412439
  N   0.25453610632353      0.46073009556686      1.52107783270478
  O   -0.34288936760659      0.95926221299972      2.46230262622435
  O   1.43277898023580      0.12382798809022      1.49272189865955
  C   -1.32843666278767      1.43352578197547     -0.00573935385264
  N   -1.90808442696981      2.41723703885571     -0.28770936241950
  N   1.05204657415848     -1.35585868211645     -0.98632935841281
  H   1.66488220936630     -1.43597990035649     -0.18850166981812
  H   0.42110940525888     -2.14440686716250     -1.01291027913524
