13
Coordinates from ORCA-job run
  C   -0.65727503617472      0.20393091281749      0.22633773987236
  C   0.26311225646112     -0.11233992562050     -0.98946360534468
  Br  -1.93527827151618     -1.21004532161015      0.51624670591913
  H   0.87610416761089      0.77987220605794     -1.14432760431353
  H   -0.39610300885945     -0.22758969012925     -1.85308863959146
  N   0.28355174753889      0.34464426662489      1.43234421404627
  O   0.37887347880928     -0.58053522457648      2.22085735799957
  O   0.94317972537258      1.37790803204712      1.41614873372829
  C   -1.35861761011272      1.46290023917543      0.04574511952804
  N   -1.91946881000225      2.47388368562058     -0.16964479507330
  N   1.11162774514759     -1.25943014875366     -0.86209230895408
  H   1.82035586733158     -1.14629106356774     -0.15061084402988
  H   0.58893774839339     -2.10690796808568     -0.68845207378673
