13
Coordinates from ORCA-job run
  C   -0.52911653395735      0.23952108483202      0.29273504228327
  C   0.22167884435434     -0.17565763570366     -0.99776479000537
  Br  -1.68397288458656     -1.18617657070462      0.92974676029953
  H   -0.53329456601090     -0.17699961106160     -1.78853619298332
  H   0.91808291788840      0.64088564392778     -1.21185670675577
  N   0.44034638052249      0.56352546209266      1.44234603041077
  O   -0.03683079096643      1.12960097192183      2.41358007294278
  O   1.60698232294280      0.21896049700277      1.29129022837220
  C   -1.32732512906380      1.43315928811484      0.06308155820607
  N   -1.94434837553123      2.39593350497074     -0.21161674126990
  N   0.92759856971288     -1.42348583938289     -1.01560431625262
  H   1.63574456803078     -1.45133795681790     -0.29708948162867
  H   0.30245467666458     -2.20992883919197     -0.90931146361896
