18

C	-0.417953	-0.010805	-1.474656
C	0.0	0.0	0.0
Br	0.419148	1.415168	-2.489386
H	1.096334	0.0	0.0
C	-0.100236	-1.265105	-2.148069
N	0.149229	-2.274481	-2.697112
N	-1.947938	0.160619	-1.545287
O	-2.597003	-0.881113	-1.474609
O	-2.406376	1.293702	-1.562249
C	-0.450614	-1.267717	0.724012
H	-0.020983	-1.245128	1.728657
H	-0.077543	-2.167689	0.231794
H	-1.539271	-1.338002	0.81169
C	-0.467611	1.250456	0.736107
H	-1.54758	1.246786	0.917499
H	-0.206784	2.162552	0.198744
H	0.045209	1.27757	1.700397
Br	3.494857	0.0	0.0
