18

C	-0.407119	-0.014411	-1.478435
C	0.0	0.0	0.0
Br	0.413657	1.428084	-2.480432
H	1.096494	0.0	0.0
C	-0.05655	-1.260587	-2.15114
N	0.219481	-2.263741	-2.699428
N	-1.939717	0.123544	-1.560529
O	-2.566272	-0.932284	-1.496583
O	-2.422627	1.246176	-1.577321
C	-0.453262	-1.27033	0.717497
H	-0.020746	-1.254555	1.720899
H	-0.085442	-2.169376	0.219733
H	-1.54189	-1.337479	0.807603
C	-0.474292	1.247845	0.734511
H	-1.557978	1.250868	0.894252
H	0.018626	1.265241	1.709803
H	-0.195448	2.161645	0.208752
Br	3.490098	0.0	0.0
