18

C	-0.416219	-0.012777	-1.474416
C	0.0	0.0	0.0
Br	0.367758	1.45206	-2.476051
H	1.1024	0.0	0.0
C	-0.047253	-1.248159	-2.155677
N	0.250148	-2.242494	-2.707813
N	-1.950104	0.103634	-1.549034
O	-2.445801	1.220205	-1.498997
O	-2.56469	-0.960003	-1.551994
C	-0.450542	-1.273057	0.715759
H	-0.023917	-1.255696	1.721202
H	-1.539181	-1.344822	0.801018
H	-0.075766	-2.169829	0.21958
C	-0.467232	1.244764	0.745293
H	0.051566	1.266321	1.706348
H	-0.210531	2.160617	0.212672
H	-1.54568	1.238268	0.932067
Br	3.491189	0.0	0.0
