13
Coordinates from ORCA-job run
  C   -0.49993946590458     -0.39165993050507     -0.58012966527526
  C   0.95407274850717     -0.51711200556666     -0.15508774210850
  Br  -1.11309625619597     -2.19307475225011     -1.02005630714039
  H   1.06566404021861     -1.11994432730804      0.74451266489058
  H   -0.55571475223562      0.17137696288828     -1.51169747647661
  H   1.57252369695025     -0.90595243215155     -0.96420734011817
  C   -1.38061089831236      0.22341182268179      0.48936309174840
  H   -2.42083373655641      0.24732453719908      0.16357024275120
  H   -1.32044057466213     -0.34592293158284      1.41914990595774
  H   -1.06363627540054      1.25144901978205      0.68623362603089
  N   1.46955899358960      0.84830749248098      0.16549248820345
  O   1.46895316985505      1.65962368826922     -0.75848154125889
  O   1.82349931014692      1.07217285606289      1.32033805279557
