13
Coordinates from ORCA-job run
  C   -0.51883761025985     -0.57920511689558     -0.39958178723686
  C   0.93466133656565     -0.15939036205262     -0.56703593008627
  Br  -0.62672601303671     -2.13334057247035      0.78157189263127
  H   1.54738950418286     -0.98612970430517     -0.92065503086505
  H   -0.83976045271242     -0.95322137043149     -1.37489043308390
  H   0.98754706425017      0.68711352280752     -1.25575699831640
  C   -1.46487519169857      0.50736720683279      0.07810899578807
  H   -1.38605639380066      1.37924800550869     -0.57781550010912
  H   -1.23138049054463      0.82401446444334      1.09298064839609
  H   -2.49162520302915      0.14062682624519      0.05213530993824
  N   1.54673673777614      0.30570399007737      0.71035118409410
  O   2.36498379158706     -0.43392398294337      1.24992739763058
  O   1.17694292072010      1.40113709318368      1.13166025121925
