13
Coordinates from ORCA-job run
  C   -0.56297405976546     -0.06831273963337      0.22492383663455
  C   0.78122571068439     -0.31264257341879     -0.44406170037608
  H   -0.50817108445904     -0.34104569325068      1.28210351994763
  H   0.78799808116018     -0.00124281026119     -1.48696611899550
  H   1.06177643698722     -1.36167658424596     -0.35896710727802
  N   -1.61354603312842     -0.99337298615106     -0.37641542146598
  O   -1.21251561835998     -2.08881186019452     -0.75160949149666
  O   -2.76840690484525     -0.59364122477302     -0.37577535784308
  C   -0.99278652593765      1.31814020393229      0.09405248631701
  N   -1.27709913218329      2.45167469333718     -0.02085877590416
  N   1.83530160442884      0.48127849526344      0.26307980234085
  O   1.74346016925971      0.55504271784961      1.48609729755699
  O   2.72673735615873      0.95461036154608     -0.43060296943754
