13
Coordinates from ORCA-job run
  C   -0.62712657882015      0.04043665920386      0.12035428122357
  C   0.81191521691726     -0.37842863020156     -0.14609773313807
  H   -0.78003943388397      0.18068265493107      1.19201611733315
  H   1.03054366919803     -1.31287301518711      0.37182295547971
  H   1.02621229036329     -0.47068948673099     -1.20994636502960
  N   -1.52372347242577     -1.12295764048893     -0.27564720814584
  O   -2.37609794922616     -0.93660186882391     -1.13221804883845
  O   -1.29875082782013     -2.16418306191237      0.33066064207787
  C   -0.99354985350062      1.24801726137239     -0.60652753318001
  N   -1.24768430791687      2.24580774052363     -1.17090559019677
  N   1.75398575052380      0.64965735412410      0.40138873080494
  O   1.39320129203502      1.26090127791957      1.40362100986749
  O   2.83011420455627      0.75923075527025     -0.17252125825800
