13
Coordinates from ORCA-job run
  C   -0.76424911506734      0.24948899546250      0.13352231181225
  C   0.63102024919122      0.32807503160125      0.71679595397928
  H   -1.47593126949126      0.54863806371411      0.91167747909554
  H   0.86418110318199      1.34049649460703      1.04612924992727
  H   0.73808904843011     -0.36660536909444      1.54923712217825
  N   -1.14675108168122     -1.19218793876623     -0.18098418755085
  O   -1.84051576763210     -1.38743447861251     -1.16508656447679
  O   -0.77164690147893     -2.01908025113088      0.63935442164659
  C   -0.94604043102462      1.10083929533745     -1.03535841722746
  N   -1.08006270214124      1.85801532527514     -1.92245005829598
  N   1.67244315792030     -0.05176886455849     -0.29057212665055
  O   2.82394387251999      0.25208151910837     -0.00763578205424
  O   1.29551983727309     -0.65955782294329     -1.28862940238330
