16
Coordinates from ORCA-job run
  C   0.93754120686433      0.00628449303671      0.01933001330548
  C   -0.46475229237094      0.05131806772399      0.67157149036587
  H   1.51702577003831     -0.78517867833812      0.49654545512122
  H   -0.27638453539374      0.16918197562050      1.74624023354568
  N   1.69515100748659      1.21689471407011     -0.00843219481172
  H   2.11322541100590      1.40905502603717      0.89082802171249
  H   1.13444820376992      2.00411289499957     -0.31072883457266
  N   0.75145208844479     -0.45376930368392     -1.40199332475014
  O   0.97891302520474     -1.63554702229498     -1.64901993953079
  O   0.33790548802134      0.38966836259548     -2.19198476063093
  C   -1.28576739096372     -1.22047510662507      0.43874867952513
  H   -2.19295629837567     -1.19989654550660      1.04411096270794
  H   -1.57618006519874     -1.30926009087290     -0.60878905249728
  H   -0.70193008286918     -2.10220946646892      0.70975131546582
  C   -1.19441245410750      1.24550249834650      0.24002545385673
  N   -1.77427908155640      2.21331818136048     -0.08620351881285
