16
Coordinates from ORCA-job run
  C   0.62834968821627      0.32413092430361     -0.30936832335889
  C   -0.56685989415326     -0.31186848112169      0.41066933813079
  H   0.66655974015392      1.39982134955353     -0.12961160624368
  H   -0.51688094539617     -1.39225960935406      0.22740350221876
  N   0.58203265646599      0.04081235272263     -1.70206261905594
  H   0.72180540202939     -0.95001049923318     -1.86327341693236
  H   1.28531957738062      0.56122802664277     -2.21053985849283
  N   1.89029963398722     -0.22006271772648      0.35684247376635
  O   2.12882417823336     -1.40994951028064      0.15591159838555
  O   2.56199087312717      0.55369288077909      1.03235899649025
  C   -1.88989060948502      0.25120508158538     -0.11468308625915
  H   -1.96501873471194      0.07384822511784     -1.18614476928959
  H   -1.94421924081702      1.32654539201860      0.06825927056729
  H   -2.73012244563601     -0.22559689479337      0.39238602277237
  C   -0.45543312524232     -0.10446701405176      1.85650639843909
  N   -0.39575675415220      0.08193049383773      3.01434607886201
