16
Coordinates from ORCA-job run
  C   0.67495540906803      0.26769111431335     -0.18720652603653
  C   -0.54103097973676     -0.39258762491275      0.45588154415470
  H   0.73983717318109      1.32377063484271      0.11334045040330
  H   -0.41983850434022     -1.47448434660984      0.35735722743877
  N   0.71382161205959      0.03344504153249     -1.61350997003154
  H   -0.02462295509629      0.56029568215779     -2.06332948178391
  H   1.59595656191087      0.38478198174760     -1.97095263498509
  N   1.95677761800213     -0.33708389064998      0.34836235185105
  O   2.98490635290416      0.19446150038510     -0.06348051456124
  O   1.89527120901973     -1.29042784805167      1.11604927636794
  C   -1.84241977415311      0.05186479984361     -0.22219433542899
  H   -1.88349975916787     -0.32907423072888     -1.24307999516703
  H   -1.92896389563729      1.14151403501419     -0.23342489849083
  H   -2.70092799597863     -0.34647472300140      0.31953747755068
  C   -0.57711504502173     -0.05445558693666      1.88082909940578
  N   -0.64210702701370      0.26776346105433      3.00782092931293
