16
Coordinates from ORCA-job run
  C   0.95691840519909      0.20089354004904      0.08575945412768
  C   -0.38058645378760     -0.21912764881269      0.75442190672572
  H   1.71228508128501      0.32380417623536      0.86415905692913
  H   -0.15944257316821     -1.05313016041758      1.42977631487185
  N   0.96895559237714      1.34083755452913     -0.76715044870212
  H   0.87106359911719      2.19335999485672     -0.23292369060983
  H   0.26887850116891      1.29425037867078     -1.49381873106792
  N   1.39024402503638     -1.01285475682926     -0.69913978232177
  O   1.21968332862335     -0.99706802730886     -1.91325130134359
  O   1.80701466975719     -1.95913116249909     -0.03580516755281
  C   -1.45983918329404     -0.64293572494747     -0.24472247656845
  H   -1.15085412101133     -1.53710371034581     -0.78796970521119
  H   -1.66788419849820      0.15071343424584     -0.96468142782520
  H   -2.38806430714563     -0.86844232248804      0.28197913617848
  C   -0.82605367110717      0.91911615802219      1.55766923614471
  N   -1.16231869455208      1.86481827703974      2.16769762622529
