20

C	-0.309862	0.009762	-1.484808
C	0.0	0.0	0.0
Br	-2.325693	-0.061165	-1.786461
H	1.100276	0.0	0.0
C	0.197554	1.274611	-2.150802
H	0.086792	1.210681	-3.236384
H	-0.328422	2.16448	-1.803451
H	1.261242	1.358285	-1.892808
C	0.279607	-1.219497	-2.146109
H	-0.13096	-2.124531	-1.703543
H	0.101852	-1.210349	-3.225015
H	1.357827	-1.189553	-1.93998
N	-0.426434	-1.254338	0.618226
H	-1.348547	-1.140506	1.024494
H	0.226896	-1.462593	1.364756
C	-0.456133	1.234176	0.767306
H	-0.153617	1.120365	1.812885
H	-1.545469	1.354572	0.727934
H	0.016755	2.146623	0.396613
H	2.912959	0.0	0.0
