20

C	-0.500981	-0.064387	-1.453023
C	0.0	0.0	0.0
Br	-0.129607	1.668731	-2.364777
H	1.096384	0.0	0.0
C	0.296265	-1.118258	-2.205139
H	0.076652	-2.088907	-1.754621
H	0.025271	-1.138284	-3.26491
H	1.36414	-0.917249	-2.088371
C	-1.999175	-0.293676	-1.566894
H	-2.568137	0.515741	-1.104177
H	-2.23299	-1.23328	-1.060338
H	-2.301141	-0.366752	-2.615452
N	-0.36333	-1.295439	0.62011
H	0.482196	-1.648675	1.059985
H	-1.053516	-1.149894	1.348822
C	-0.496154	1.169365	0.833864
H	-1.585021	1.14529	0.977173
H	-0.224214	2.128283	0.392485
H	-0.017878	1.108431	1.816202
H	2.979008	0.0	0.0
