20

C	-0.48361	0.046446	-1.452161
C	0.0	0.0	0.0
Br	-0.049704	-1.711355	-2.311743
H	1.102712	0.0	0.0
C	-1.987633	0.210888	-1.590118
H	-2.49987	-0.532331	-0.977551
H	-2.300593	0.107181	-2.631988
H	-2.272657	1.210181	-1.244898
C	0.307692	1.082309	-2.238039
H	0.093955	1.007873	-3.307626
H	1.377144	0.940451	-2.054496
H	0.02658	2.087332	-1.905391
N	-0.561758	-1.163098	0.712573
H	-0.263716	-1.064643	1.679907
H	-0.063413	-1.980276	0.369455
C	-0.426064	1.248731	0.769851
H	0.125662	1.26207	1.715506
H	-0.164468	2.169645	0.247002
H	-1.498021	1.242032	0.990968
H	3.047308	0.0	0.0
