20

C	-0.486922	0.051672	-1.449084
C	0.0	0.0	0.0
Br	-0.005199	-1.684679	-2.330207
H	1.102813	0.0	0.0
C	-1.995352	0.170156	-1.583176
H	-2.311634	1.154078	-1.22157
H	-2.483425	-0.596846	-0.981278
H	-2.306057	0.072489	-2.626333
C	0.269527	1.11898	-2.225613
H	-0.051279	2.111548	-1.890482
H	0.062767	1.040225	-3.296394
H	1.343103	1.014183	-2.039112
N	-0.559475	-1.16736	0.70736
H	-0.086663	-1.985848	0.332342
H	-0.226087	-1.09376	1.665211
C	-0.423647	1.244604	0.777096
H	-1.501341	1.261713	0.966595
H	0.097952	1.228476	1.739777
H	-0.120502	2.166199	0.278367
H	3.048255	0.0	0.0
