20

C	-0.518079	-0.041074	-1.445339
C	0.0	0.0	0.0
Br	0.004632	1.641191	-2.373497
H	1.100814	0.0	0.0
C	0.176024	-1.168366	-2.194599
H	1.257127	-1.074658	-2.068531
H	-0.152236	-2.118159	-1.764255
H	-0.078156	-1.154276	-3.257511
C	-2.030175	-0.134126	-1.542317
H	-2.514077	0.744768	-1.111931
H	-2.342774	-1.020982	-0.986687
H	-2.346187	-0.223009	-2.585693
N	-0.394724	-1.297494	0.62139
H	-0.635289	-1.119655	1.590452
H	0.458183	-1.851241	0.656623
C	-0.523214	1.143091	0.848632
H	-1.583927	1.013342	1.097542
H	0.052438	1.169853	1.778874
H	-0.39454	2.104979	0.353086
H	2.98435	0.0	0.0
