20

C	-0.240271	-0.010293	-1.503593
C	0.0	0.0	0.0
Br	-2.242836	-0.124009	-1.919537
H	1.100608	0.0	0.0
C	0.283111	1.253421	-2.157257
H	0.228512	1.181355	-3.247032
H	-0.268435	2.139206	-1.841624
H	1.333094	1.348396	-1.846811
C	0.405484	-1.229181	-2.133492
H	1.468693	-1.190558	-1.853337
H	0.302426	-1.212126	-3.221696
H	-0.026704	-2.157145	-1.758009
N	-0.42645	-1.208571	0.702779
H	-1.28725	-1.564326	0.299845
H	0.295577	-1.912018	0.599384
C	-0.508067	1.229447	0.730961
H	-0.243474	1.117839	1.78389
H	-0.044361	2.147158	0.362127
H	-1.597468	1.321076	0.654202
H	2.910878	0.0	0.0
