20

C	-0.423753	-0.055369	-1.481304
C	0.0	0.0	0.0
Br	0.134051	1.638269	-2.379806
H	1.09643	0.0	0.0
C	0.338581	-1.165674	-2.193734
H	0.166731	-1.131	-3.273141
H	1.406885	-1.058699	-1.976056
H	0.000604	-2.138766	-1.821666
C	-1.927848	-0.149601	-1.709604
H	-2.452381	0.703112	-1.274383
H	-2.322893	-1.068088	-1.25961
H	-2.150035	-0.18109	-2.779598
N	-0.327167	-1.258283	0.698156
H	-1.152809	-1.712299	0.329185
H	0.46346	-1.884126	0.595065
C	-0.559978	1.16164	0.801792
H	-1.642479	1.066673	0.950378
H	-0.086579	1.135886	1.785251
H	-0.345317	2.12584	0.338873
H	2.986013	0.0	0.0
