18

C	-0.03116	-0.116909	-1.531672
C	0.0	0.0	0.0
F	-1.314325	-0.004486	-2.060339
H	1.09683	0.0	0.0
N	0.764288	0.947376	-2.120659
H	1.659898	0.887523	-1.61731
H	0.341805	1.845172	-1.90726
N	0.517013	-1.393924	-1.878103
H	1.380475	-1.469087	-1.336935
H	0.779415	-1.32972	-2.856507
N	-0.576797	-1.209685	0.63069
O	-1.797015	-1.221839	0.830001
O	0.173631	-2.137756	0.92241
C	-0.661521	1.238447	0.55492
H	-0.086983	2.118643	0.260263
H	-1.693027	1.335855	0.209972
H	-0.663935	1.204959	1.647548
F	2.663163	0.0	0.0
