18

C	-0.175014	-0.025394	-1.53519
C	0.0	0.0	0.0
F	-1.365545	-0.736406	-1.865683
H	1.091452	0.0	0.0
N	-0.256663	1.308723	-2.028409
H	-0.167474	1.250179	-3.035523
H	-1.149924	1.715614	-1.779161
N	0.918085	-0.679216	-2.206134
H	1.754927	-0.398519	-1.662642
H	0.811575	-1.666547	-2.000434
N	-0.437858	-1.296505	0.558872
O	-1.203245	-1.300751	1.529859
O	-0.00213	-2.328569	0.045494
C	-0.611638	1.159904	0.742972
H	-0.154744	2.07464	0.366058
H	-0.389682	1.078265	1.806927
H	-1.700484	1.210009	0.632188
F	2.627265	0.0	0.0
