18

C	-0.190321	-0.004878	-1.518504
C	0.0	0.0	0.0
F	0.013228	-1.384753	-1.919058
H	1.096343	0.0	0.0
N	-1.477627	0.395854	-1.988475
H	-2.143981	-0.287141	-1.648631
H	-1.482005	0.37837	-3.002371
N	0.859746	0.793505	-2.035654
H	1.725251	0.552794	-1.514007
H	0.979884	0.606152	-3.023941
N	-0.609856	-1.196505	0.618106
O	-1.76977	-1.484216	0.290638
O	0.024463	-1.806667	1.474889
C	-0.552777	1.236844	0.674966
H	-0.273427	1.23365	1.732293
H	-0.09694	2.104509	0.198032
H	-1.638914	1.306484	0.5757
F	2.674394	0.0	0.0
