18

C	-0.202117	-0.166338	-1.520048
C	0.0	0.0	0.0
F	-0.068939	-1.561633	-1.752765
H	1.095991	0.0	0.0
N	-1.462063	0.169819	-2.133069
H	-2.198284	-0.274447	-1.596448
H	-1.573705	1.173272	-2.073968
N	0.84469	0.579126	-2.107408
H	1.719087	0.396423	-1.581618
H	0.924548	0.334397	-3.085643
N	-0.630862	-1.124439	0.720017
O	-1.84698	-1.288967	0.54206
O	0.044817	-1.813983	1.478182
C	-0.544117	1.303079	0.542457
H	-0.301904	1.394349	1.604753
H	-1.627926	1.386215	0.418081
H	-0.046627	2.117353	0.013756
F	2.670984	0.0	0.0
