17

C	-0.301257	-0.003263	-1.491707
C	0.0	0.0	0.0
Br	-2.302069	0.006802	-1.767419
H	1.098238	0.0	0.0
N	0.228261	1.166169	-2.155424
H	-0.128461	1.999758	-1.696574
H	1.235728	1.136404	-1.973832
C	0.260856	-1.250141	-2.132105
H	0.076073	-1.22437	-3.207032
H	1.339388	-1.247881	-1.929119
H	-0.174805	-2.140722	-1.684064
N	-0.433339	-1.19732	0.697546
H	-1.364468	-1.080499	1.077588
H	0.21869	-1.370895	1.454717
C	-0.442348	1.246041	0.630822
N	-0.799761	2.227322	1.173463
H	2.720451	0.0	0.0
