17

C	-0.443765	-0.002593	-1.474676
C	0.0	0.0	0.0
Br	0.107229	-1.724322	-2.282176
H	1.094957	0.0	0.0
N	-1.897935	0.006287	-1.558839
H	-2.179343	-0.03064	-2.532584
H	-2.219363	0.890917	-1.171298
C	0.281196	1.09262	-2.238187
H	0.063702	1.032192	-3.308043
H	-0.05186	2.066264	-1.864119
H	1.35611	0.998311	-2.06036
N	-0.473405	-1.109857	0.809293
H	-1.336913	-1.460452	0.414961
H	0.232628	-1.831791	0.746745
C	-0.4742	1.26141	0.576055
N	-0.887404	2.28017	0.9971
H	2.754145	0.0	0.0
