17

C	-0.50832	-0.008793	-1.441148
C	0.0	0.0	0.0
Br	0.305277	-1.710314	-2.307868
H	1.098109	0.0	0.0
N	-1.916216	-0.0886	-1.474289
H	-2.207071	-0.821232	-0.834886
H	-2.253243	-0.285183	-2.407703
C	0.062817	1.132172	-2.250199
H	-0.217969	1.037041	-3.302977
H	-0.341156	2.069751	-1.858217
H	1.151042	1.130367	-2.152934
N	-0.541531	-1.168069	0.727894
H	0.100516	-1.926787	0.504679
H	-0.412206	-0.989177	1.719148
C	-0.461261	1.227214	0.638656
N	-0.789194	2.233948	1.15082
H	2.761379	0.0	0.0
