17

C	-0.42399	0.159219	-1.471108
C	0.0	0.0	0.0
Br	-0.011157	2.015711	-2.012399
H	1.093869	0.0	0.0
N	0.365112	-0.715833	-2.31134
H	0.168832	-1.65303	-1.963732
H	1.344262	-0.543958	-2.067193
C	-1.904997	-0.069905	-1.702661
H	-2.131307	0.03937	-2.764124
H	-2.505011	0.637717	-1.125925
H	-2.148769	-1.089372	-1.387378
N	-0.322046	-1.375194	0.421113
H	0.500697	-1.723961	0.908479
H	-1.106457	-1.391571	1.061005
C	-0.559615	0.992542	0.904109
N	-1.046435	1.727684	1.684139
H	2.723868	0.0	0.0
