14

C	0.0	0.0	0.0
C	-0.208006	0.089875	-1.528491
Br	1.953034	0.0	0.0
H	0.34521	-0.725608	-1.992884
H	-0.3171	0.921266	0.487645
H	0.169607	1.045645	-1.889449
C	-0.610144	-1.215611	0.642768
H	-1.698219	-1.093612	0.567508
H	-0.308773	-2.127754	0.12464
H	-0.325469	-1.284742	1.694518
N	-1.581011	-0.038488	-2.114744
O	-1.989516	-1.182092	-2.293704
O	-2.128156	0.998328	-2.475422
Cl	-3.961005	0.0	0.0
