14

C	0.0	0.0	0.0
C	-0.210118	0.167576	-1.524807
Br	1.953152	0.0	0.0
H	0.107378	1.163336	-1.829394
H	-0.322868	0.891615	0.535485
H	0.39908	-0.580799	-2.030493
C	-0.595028	-1.250541	0.590456
H	-1.684262	-1.155482	0.494145
H	-0.251954	-2.142243	0.060103
H	-0.335411	-1.334543	1.648043
N	-1.560616	-0.033171	-2.144374
O	-2.13123	0.964357	-2.571352
O	-1.915075	-1.198328	-2.294721
Cl	-3.88426	0.0	0.0
