14

C	-0.497224	0.031202	-1.434054
C	0.0	0.0	0.0
Br	-2.461037	0.234232	-1.494243
H	1.098306	0.0	0.0
H	-0.100279	0.904124	-1.949888
C	-0.157828	-1.192123	-2.142858
N	0.075727	-2.171582	-2.746871
N	-0.468994	-1.112364	0.735962
H	-1.383652	-0.944933	1.135249
H	0.188019	-1.3254	1.474548
N	-0.364588	1.349886	0.61648
O	-0.847533	1.351012	1.746911
O	-0.125947	2.35121	-0.05198
Cl	3.210312	0.0	0.0
