14

C	-0.560542	0.064852	-1.421991
C	0.0	0.0	0.0
Br	0.242044	1.360232	-2.632113
H	1.098407	0.0	0.0
H	-0.312912	-0.90511	-1.853122
C	-2.012619	0.216229	-1.412429
N	-3.182049	0.334551	-1.401015
N	-0.430041	-1.227409	0.598434
H	-1.318589	-1.116967	1.071779
H	0.265667	-1.511715	1.27753
N	-0.422983	1.214551	0.81177
O	-0.604766	1.043007	2.015026
O	-0.512835	2.291816	0.234008
Cl	3.233685	0.0	0.0
