16
Coordinates from ORCA-job run
  C   1.02062586207667     -0.13696984570485     -0.31965853166076
  C   -0.48072749877851     -0.48460691832414     -0.29612912543486
  H   1.50365631905782     -0.72370288317889     -1.10287163525099
  H   -0.52451290352767     -1.57376542844440     -0.20000273564867
  N   1.64175186767318     -0.56758872104069      0.98315222650835
  O   1.72454735222875     -1.78294882669763      1.13276431321585
  O   1.95775534608473      0.29193507225349      1.79819034655296
  C   1.23124658301487      1.28783014295191     -0.54536543516843
  N   1.32944701402380      2.43512767604803     -0.77507113539308
  N   -0.98762401081259     -0.13326207667362     -1.61639046297830
  H   -1.19968430531703      0.85807631310391     -1.65702419116375
  H   -1.84437985104116     -0.63843422611358     -1.80446311698262
  C   -1.19831040431269      0.16781024073262      0.88061202679177
  H   -1.10688508612131      1.25692729690571      0.83508771444545
  H   -2.25963157356828     -0.08783727492458      0.84252093353795
  H   -0.80827471068059     -0.16759054089330      1.84464880862913
