16
Coordinates from ORCA-job run
  C   0.94030773067634     -0.44889414559851     -0.11859868212723
  C   -0.58228488131969     -0.26557617439847     -0.29648111652403
  H   1.15290741512536     -1.41821450843265      0.33868037862893
  H   -0.85961513315915     -1.02596690664499     -1.04576949836012
  N   1.47658521354517      0.58697405584937      0.83703385653997
  O   1.29909883921104      0.33589751659801      2.02570730960680
  O   2.00463766537387      1.58632402902181      0.36989009739319
  C   1.62444850284378     -0.33435621809949     -1.40283394007257
  N   2.10664071847329     -0.28401807303252     -2.47242707938933
  N   -0.82353343609171      1.10089034844078     -0.72595362924429
  H   -1.81654932861632      1.29678590274592     -0.71564467052486
  H   -0.48204927254193      1.26074193206575     -1.66697447950250
  C   -1.35699083819068     -0.54574611665625      0.98196841225715
  H   -2.42711432921344     -0.55195981355210      0.75799045538559
  H   -1.09563818087644     -1.51712675781592      1.40570188712208
  H   -1.16185068523950      0.22524492950927      1.72671069881123
