16
Coordinates from ORCA-job run
  C   0.91430019870114      0.28120352478941     -0.00264459875416
  C   -0.51489349064043     -0.27770149312000      0.06307786217979
  H   1.01828705779189      0.98586101936551     -0.83160529149449
  H   -0.51436074243835     -1.02212141428915      0.86424170011766
  N   1.85332061522791     -0.85656700493737     -0.32068883548156
  O   1.86512546735513     -1.78547263449323      0.47741151197316
  O   2.50918178369991     -0.75945487691898     -1.34939056459418
  C   1.33031888473504      0.90040616375111      1.25107019472831
  N   1.62358429763922      1.40719436364991      2.26899991343040
  N   -0.74274224983732     -0.97679386583642     -1.19304003313393
  H   -1.09693521433871     -0.34175310583728     -1.89901044033829
  H   -1.41908628485247     -1.71849019410952     -1.07151867209652
  C   -1.51091501954655      0.83278192873485      0.38171663340798
  H   -2.52049750660259      0.41800840630181      0.41809365452963
  H   -1.48984987321317      1.60156244715433     -0.39748366837525
  H   -1.30483787992746      1.31133660646015      1.34177065464394
