16
Coordinates from ORCA-job run
  C   0.98710056187463     -0.35223980933918      0.01210396985256
  C   -0.52254740046583     -0.36013043753153     -0.30920114776624
  H   1.25322449031219     -1.23617187301436      0.59678856392264
  H   -0.65037793559740     -1.22503585192577     -0.98162033317388
  N   1.32472110944466      0.83510730585885      0.87896922291349
  O   1.06196775712231      0.69807740991280      2.07041297918432
  O   1.79326737504227      1.82882565379656      0.34146992863075
  C   1.77422312171458     -0.30267572513287     -1.21603108717867
  N   2.34888052622666     -0.31398996229208     -2.24001633517952
  N   -0.85958868149621      0.91484864753018     -0.91808071887170
  H   -0.45070448950510      1.00582370590407     -1.84123539374662
  H   -1.86391459870793      0.99981718518765     -1.01059071821657
  C   -1.38086164419274     -0.58143201832305      0.92674708510498
  H   -1.33708526822671      0.28529139050737      1.58545002080040
  H   -1.06128155448360     -1.46307986886514      1.48516957639784
  H   -2.41902336906178     -0.73403575227349      0.61966438732620
