16
Coordinates from ORCA-job run
  C   1.00669420079514     -0.23763803662849     -0.30537200491368
  C   -0.51771805676622     -0.46215576620715     -0.26829482164934
  H   1.44072289949341     -0.90800022082595     -1.04916800553875
  H   -0.64879974087676     -1.53626434617880     -0.10550521591299
  N   1.59084713637494     -0.63597784942458      1.02457153951914
  O   1.57801022114150     -1.84272430552336      1.24767280298713
  O   1.97233025690618      0.24411581309784      1.78803349489062
  C   1.33103860063437      1.14924083880154     -0.61615317213908
  N   1.52204207977880      2.26888475449053     -0.91405721292915
  N   -0.99457045112008     -0.15360847580084     -1.61032425035559
  H   -1.12765712075841      0.84700706011622     -1.71266548419165
  H   -1.88887280712320     -0.59957569653943     -1.77141698478848
  C   -1.18125937911048      0.31706885951568      0.86218060675393
  H   -1.00348310411465      1.39044044780479      0.74924195494953
  H   -2.25961160982902      0.14483167973647      0.83405216839791
  H   -0.81971312542552      0.01235524356553      1.84720458492046
