17

C	-0.549537	0.004633	-1.420905
C	0.0	0.0	0.0
Cl	0.159576	1.307188	-2.405185
H	1.09299	0.0	0.0
N	-0.186468	-1.324913	-2.092028
O	-1.120363	-2.047385	-2.430551
O	1.002072	-1.559153	-2.219333
C	-2.007093	0.134955	-1.456576
N	-3.166182	0.315886	-1.380642
N	-0.418933	-1.271737	0.588774
H	0.402859	-1.675174	1.022591
H	-1.139927	-1.149179	1.289272
C	-0.46761	1.214976	0.7812
H	-0.197607	2.145821	0.27778
H	0.052082	1.202386	1.742811
H	-1.552077	1.21299	0.960457
F	2.586713	0.0	0.0
