17

C	-0.438272	0.026022	-1.461643
C	0.0	0.0	0.0
Cl	0.360961	-1.269996	-2.367979
H	1.101036	0.0	0.0
N	-1.961911	-0.169631	-1.557127
O	-2.415151	-1.269384	-1.826408
O	-2.61499	0.828961	-1.255862
C	-0.145032	1.296866	-2.119692
N	0.061108	2.314269	-2.66826
N	-0.494534	-1.258191	0.58412
H	-0.658754	-1.099478	1.569554
H	0.275722	-1.915787	0.53405
C	-0.491878	1.194041	0.794927
H	-0.270042	2.136565	0.292289
H	0.057602	1.194613	1.740186
H	-1.566786	1.151948	0.999944
F	2.592683	0.0	0.0
