17

C	-0.558926	-0.01081	-1.41148
C	0.0	0.0	0.0
Cl	0.159863	1.262921	-2.43098
H	1.093431	0.0	0.0
N	-0.222828	-1.347816	-2.083636
O	0.934209	-1.717944	-2.005265
O	-1.141291	-1.921731	-2.667221
C	-2.014866	0.139646	-1.432369
N	-3.169365	0.343867	-1.342507
N	-0.452839	-1.255971	0.604492
H	-1.127642	-1.093935	1.341991
H	0.367392	-1.702129	0.99918
C	-0.445559	1.231663	0.768527
H	-1.5269	1.246083	0.962192
H	-0.170722	2.150415	0.245923
H	0.088636	1.228651	1.721761
F	2.588657	0.0	0.0
