17

C	-0.570861	-0.005234	-1.405287
C	0.0	0.0	0.0
Cl	0.124578	1.279334	-2.427462
H	1.094668	0.0	0.0
N	-0.233542	-1.331326	-2.100567
O	0.898161	-1.753903	-1.952491
O	-1.122835	-1.835475	-2.78408
C	-2.028511	0.128716	-1.407113
N	-3.183513	0.326503	-1.309664
N	-0.462379	-1.252606	0.6054
H	0.358919	-1.716466	0.974332
H	-1.111144	-1.080603	1.363631
C	-0.43405	1.232571	0.775044
H	-1.512891	1.249852	0.982613
H	-0.163534	2.151	0.250241
H	0.113026	1.228009	1.721098
F	2.590284	0.0	0.0
