19

C	-0.496312	-0.298435	-1.415225
C	0.0	0.0	0.0
Cl	-2.281835	-0.356059	-1.457967
H	1.092832	0.0	0.0
N	-0.022217	0.777433	-2.421122
O	-0.84447	1.480819	-2.991771
O	1.187434	0.78509	-2.590982
C	0.083606	-1.609345	-1.922668
H	1.16409	-1.601453	-1.752462
H	-0.374825	-2.450348	-1.402102
H	-0.123835	-1.709988	-2.990765
C	-0.416357	-1.050709	1.012893
H	0.038291	-2.004124	0.741676
H	-1.498438	-1.158101	1.092178
H	-0.016072	-0.767927	1.986215
N	-0.462517	1.35896	0.435303
O	-1.055646	1.461865	1.508971
O	-0.198846	2.297382	-0.312804
Cl	3.277278	0.0	0.0
