19

C	-0.369864	-0.011643	-1.492756
C	0.0	0.0	0.0
Cl	0.139483	-1.566841	-2.18547
H	1.091459	0.0	0.0
N	-1.893051	0.069651	-1.647131
O	-2.551377	-0.928513	-1.376623
O	-2.356955	1.158177	-1.983328
C	0.309873	1.103859	-2.255344
H	1.38295	1.012631	-2.070419
H	0.098256	1.008489	-3.321007
H	-0.030766	2.078103	-1.910551
C	-0.534643	-1.119128	0.866733
H	-1.622204	-1.150191	0.887539
H	-0.143407	-2.069121	0.504926
H	-0.156881	-0.967228	1.880695
N	-0.465913	1.317711	0.551975
O	-1.627703	1.368437	0.972473
O	0.318677	2.264745	0.538066
Cl	3.315292	0.0	0.0
