19

C	-0.535929	0.127068	-1.438179
C	0.0	0.0	0.0
Cl	0.23823	1.495069	-2.248039
H	1.098179	0.0	0.0
N	-0.11077	-1.16228	-2.164476
O	0.931863	-1.177787	-2.79753
O	-0.881222	-2.112239	-2.018989
C	-2.04105	0.256977	-1.585212
H	-2.299966	0.219153	-2.645242
H	-2.366055	1.211833	-1.177228
H	-2.554243	-0.548605	-1.065506
C	-0.456885	-1.239429	0.750198
H	-0.118666	-1.143931	1.784037
H	-1.536895	-1.378882	0.744356
H	0.03289	-2.116833	0.329603
N	-0.468385	1.212712	0.750418
O	0.300461	2.161937	0.86044
O	-1.613823	1.177111	1.215919
Cl	3.318691	0.0	0.0
