19

C	-0.400656	0.140373	-1.479011
C	0.0	0.0	0.0
Cl	-0.459326	-1.487187	-2.23561
H	1.103729	0.0	0.0
N	-1.839545	0.647109	-1.617292
O	-2.122592	1.266753	-2.63637
O	-2.625334	0.353665	-0.723734
C	0.550522	0.989004	-2.290988
H	1.560309	0.618372	-2.107436
H	0.490884	2.021894	-1.958904
H	0.302948	0.930132	-3.348738
C	-0.460761	-1.222483	0.77041
H	-0.088019	-1.136793	1.789602
H	-0.013032	-2.111279	0.329235
H	-1.546761	-1.316328	0.779815
N	-0.386386	1.251662	0.738774
O	-0.43013	1.198787	1.963972
O	-0.59546	2.275593	0.08361
Cl	3.288605	0.0	0.0
