19

C	-0.582597	0.099896	-1.422173
C	0.0	0.0	0.0
Cl	0.437837	1.059775	-2.50513
H	1.097406	0.0	0.0
N	-0.542041	-1.342343	-1.959904
O	-1.614387	-1.94796	-1.982538
O	0.545248	-1.809581	-2.25817
C	-2.012545	0.597877	-1.49843
H	-2.645513	0.06181	-0.790818
H	-2.024064	1.661423	-1.273221
H	-2.405097	0.44148	-2.502304
C	-0.452007	-1.23483	0.76223
H	-0.039665	-1.183674	1.767252
H	-1.538853	-1.327175	0.828414
H	-0.035473	-2.121078	0.283646
N	-0.364945	1.241693	0.769627
O	-0.324827	2.317661	0.17629
O	-0.620717	1.123726	1.9694
Cl	3.24605	0.0	0.0
