19

C	-0.382187	0.219167	-1.473356
C	0.0	0.0	0.0
Cl	0.026943	-1.244747	-2.390093
H	1.104726	0.0	0.0
N	-1.900829	0.405222	-1.569323
O	-2.300587	1.564712	-1.648919
O	-2.616204	-0.586818	-1.495287
C	0.340893	1.392339	-2.096341
H	0.068181	2.321894	-1.60587
H	1.410286	1.218538	-1.959254
H	0.096954	1.456006	-3.15797
C	-0.526071	-1.248543	0.674485
H	-0.21006	-1.22903	1.719005
H	-1.61022	-1.327663	0.630894
H	-0.071792	-2.119975	0.206768
N	-0.462548	1.213591	0.757052
O	-1.565091	1.146824	1.308589
O	0.266162	2.202555	0.768231
Cl	3.305652	0.0	0.0
