19

C	-0.445685	-0.125868	-1.459783
C	0.0	0.0	0.0
Cl	-2.190015	-0.491122	-1.590902
H	1.093942	0.0	0.0
N	-0.210444	1.207091	-2.195175
O	0.910345	1.351732	-2.665107
O	-1.125884	2.018089	-2.24039
C	0.363784	-1.195809	-2.163999
H	0.153263	-1.175199	-3.234895
H	0.090013	-2.17611	-1.773384
H	1.424614	-1.011489	-1.983596
C	-0.4236	-1.168412	0.868773
H	-1.504892	-1.262771	0.952263
H	-0.001311	-1.01869	1.86359
H	0.006748	-2.087997	0.468437
N	-0.470563	1.287671	0.600736
O	0.091527	2.312559	0.220874
O	-1.370472	1.24776	1.44199
Cl	3.288403	0.0	0.0
