15

C	0.0	0.0	0.0
C	-0.421123	0.074309	-1.468097
Br	2.011084	0.0	0.0
H	0.033711	-0.731869	-2.046949
H	-1.507266	-0.052576	-1.375807
N	-0.550556	0.963597	0.839832
H	-0.416824	1.83991	0.341138
H	-1.590141	0.701816	0.725675
N	-0.346672	-1.388731	0.548815
O	-0.329182	-2.318461	-0.253539
O	-0.573157	-1.493141	1.744533
N	-0.115702	1.415779	-1.969438
H	-0.826095	1.689471	-2.63468
H	0.782012	1.420674	-2.43531
F	-2.770156	0.0	0.0
