15

C	0.0	0.0	0.0
C	-0.334197	-0.379023	-1.491752
Br	2.012837	0.0	0.0
H	0.528086	-0.909794	-1.89341
H	-0.383805	0.600061	-1.980681
N	-0.654407	1.107998	0.471466
H	-0.516537	1.191469	1.473355
H	-1.69343	0.850028	0.289173
N	-0.221707	-1.266295	0.91371
O	-0.544491	-1.056734	2.078087
O	-0.04053	-2.375576	0.421437
N	-1.517861	-1.140812	-1.806002
H	-2.298275	-0.725374	-1.269162
H	-1.383514	-2.075737	-1.441798
F	-2.936968	0.0	0.0
