14

C	-0.41302	0.0822	-1.468605
C	0.0	0.0	0.0
F	-0.123651	-1.101137	-2.120369
H	1.09472	0.0	0.0
C	-1.865946	0.329295	-1.610041
N	-3.027488	0.49627	-1.670036
C	0.31773	1.1811	-2.129743
N	0.846023	2.046843	-2.720477
C	-0.558925	-1.189832	0.617067
N	-1.011028	-2.127318	1.166745
N	-0.386507	1.255188	0.632756
H	-1.19779	1.163025	1.229089
H	0.406195	1.575341	1.17521
F	2.496588	0.0	0.0
