14

C	-0.422872	0.074643	-1.467077
C	0.0	0.0	0.0
F	-0.137379	-1.112811	-2.11384
H	1.094701	0.0	0.0
C	-1.87594	0.322107	-1.6016
N	-3.034321	0.506294	-1.665877
C	0.306469	1.169949	-2.133419
N	0.865372	2.044736	-2.681069
C	-0.563172	-1.18488	0.622629
N	-1.033827	-2.117847	1.16426
N	-0.382533	1.257585	0.630154
H	-1.184657	1.166478	1.238814
H	0.417162	1.582733	1.15961
F	2.496968	0.0	0.0
