14

C	-0.286581	0.042489	-1.491412
C	0.0	0.0	0.0
F	-1.649498	0.257051	-1.763983
H	1.095969	0.0	0.0
C	0.443037	1.174444	-2.093956
N	0.984854	2.074929	-2.61683
C	0.102579	-1.206156	-2.165837
N	0.378031	-2.202193	-2.723173
C	-0.600669	-1.183161	0.593906
N	-1.077159	-2.140603	1.082996
N	-0.392718	1.216563	0.686718
H	0.403684	1.840865	0.680759
H	-1.197492	1.664582	0.267552
F	2.486323	0.0	0.0
