14

C	-0.408289	0.094961	-1.470285
C	0.0	0.0	0.0
F	-0.115057	-1.082757	-2.1292
H	1.094713	0.0	0.0
C	-1.857769	0.345188	-1.621414
N	-3.014529	0.534165	-1.708621
C	0.32396	1.197619	-2.116219
N	0.868783	2.08556	-2.656978
C	-0.563186	-1.195557	0.603263
N	-1.034386	-2.134492	1.135577
N	-0.389397	1.251415	0.639495
H	0.397776	1.564404	1.194205
H	-1.208627	1.152695	1.224961
F	2.499465	0.0	0.0
