14

C	-0.426844	0.038193	-1.468408
C	0.0	0.0	0.0
F	0.197923	1.09551	-2.090337
H	1.095095	0.0	0.0
C	-0.06016	-1.204361	-2.175071
N	0.194927	-2.196012	-2.749662
C	-1.886174	0.248209	-1.600508
N	-3.046948	0.416743	-1.667868
C	-0.523978	-1.196677	0.637009
N	-0.971043	-2.137038	1.186475
N	-0.414153	1.241976	0.637369
H	-1.168	1.108227	1.297746
H	0.398043	1.608216	1.117572
F	2.495233	0.0	0.0
