13
Coordinates from ORCA-job run
  C   0.81675015556245      0.41218767288902     -0.17290194220804
  C   -0.49519286553011     -0.37695224613198     -0.32168843839207
  Cl  1.79389952530293      0.04796729347102     -1.69341723899278
  H   -0.24400139189037     -1.37541741404509     -0.69302159097906
  H   0.63563663451168      1.48516058877737     -0.24928797755968
  N   1.46044099005169      0.12133191089898      1.04378337260629
  H   1.53966788041413     -0.87099359386351      1.21952049313630
  H   2.36328465814985      0.57022320335081      1.11358641745703
  C   -1.32587563058144      0.28003456429292     -1.35178008068456
  N   -2.04714386331171      0.80822259389189     -2.11357825642644
  N   -1.15706898978285     -0.53206190634126      0.96519641740040
  H   -2.07713360959045     -0.93477989852911      0.83154430633608
  H   -1.26326349330579      0.36607723133894      1.42104451830652
