13
Coordinates from ORCA-job run
  C   0.75859861989883      0.35117327972241     -0.11083898984197
  C   -0.61506342341355     -0.30055370349994     -0.35763838061773
  Cl  1.68252174177590      0.35694179892582     -1.68071618489434
  H   -0.42826776911703     -1.32254102232878     -0.71177961635212
  H   0.62489166668674      1.40120773711978      0.15408079776769
  N   1.42144102239431     -0.33214497433138      0.94634283254587
  H   2.23774781530868      0.17574577435377      1.26085674137997
  H   1.71492067979605     -1.25578605029992      0.64904371837982
  C   -1.33868272894759      0.40943022950246     -1.41744635233367
  N   -1.93909063616165      1.01049244480142     -2.22655682437534
  N   -1.45235453422420     -0.36301003929987      0.82943883281811
  H   -1.78505936353993      0.56438509688896      1.06735682603189
  H   -0.88060309045655     -0.69534057155474      1.59785659949182
