13
Coordinates from ORCA-job run
  C   0.87133848603873      0.39916660340512     -0.21894065100363
  C   -0.47355522345457     -0.32615855233091     -0.33654079120707
  Cl  1.64030776962164      0.44929239631122     -1.83385018542933
  H   -0.24393387811976     -1.33396135458683     -0.69451359263192
  H   0.69485253305777      1.45201211688049      0.04013124217638
  N   1.69250340579617     -0.34109675686779      0.69160155573226
  H   1.14435412079328     -0.52842588305718      1.52394853498576
  H   2.52508999743001      0.18006284518679      0.93379485368221
  C   -1.35435388631782      0.33491134600547     -1.31476600361649
  N   -2.11912850286556      0.87473648610060     -2.02406960342793
  N   -1.07145476745730     -0.42792504024786      0.99266938700476
  H   -1.76148629459673     -1.16830571080380      1.00967468134428
  H   -1.54453375992586      0.43669150400468      1.22986057239072
