13
Coordinates from ORCA-job run
  C   0.92355557423068      0.18548112800432     -0.38792708966631
  C   -0.55362273216265     -0.20726658700432     -0.49869841739710
  Cl  1.87106277504191     -1.40721957980799     -0.60818701496789
  H   -0.68880931893829     -0.75455637509751     -1.44098692807439
  H   1.23533021826672      0.77481680802366     -1.24934921526362
  N   1.16008057974316      0.85819855929835      0.81233593890417
  H   2.12427158477236      1.12311349035044      0.94802675424871
  H   0.79146750971453      0.34331908419001      1.60119836481066
  C   -1.36550522894414      1.01293906841565     -0.57424194234394
  N   -2.04252036450812      1.96712024483056     -0.66605780420411
  N   -0.93075777876272     -0.97144564206227      0.68873293168015
  H   -0.58685823604795     -1.91941600799203      0.59220232654308
  H   -1.93769458240549     -1.00508419114886      0.78395209573060
