13
Coordinates from ORCA-job run
  C   0.88772482272773     -0.12562417349986      0.19173809806306
  C   -0.57273131251852     -0.09093189888713     -0.27018971575185
  Cl  0.99821887247949     -0.62959392148142      1.88869007316128
  H   -0.55879849021304      0.37291380671620     -1.27190039410705
  H   1.39887787164131     -0.91277797742941     -0.37997579428588
  N   1.45099590298745      1.19849140992785      0.06039470654677
  H   1.57129094627294      1.42599348156223     -0.92036226345864
  H   2.35684377015385      1.24181414739606      0.50971625578053
  C   -1.36084905064990      0.79809571947372      0.58767946295265
  N   -2.05294307124149      1.48353919232588      1.24141244447341
  N   -1.14713880527376     -1.42929523898873     -0.26071779116535
  H   -0.81602299649935     -1.95038849487397     -1.06360520208609
  H   -2.15646845986672     -1.38223605224144     -0.31287988012286
