13
Coordinates from ORCA-job run
  C   0.82900296442249     -0.17177712081419      0.13460338733478
  C   -0.57937996756659     -0.14285901346796     -0.48777249056965
  Cl  0.65406668228328     -0.56131379604093      1.92276849155290
  H   -0.41145420682722      0.01413019210465     -1.55926698672354
  H   1.36959624501441     -1.02815802055818     -0.27200855424062
  N   1.53093263938237      1.02060276262745     -0.14387719942765
  H   1.09563538911457      1.82588166757990      0.29079848041078
  H   2.49815008164071      0.96921300978812      0.14590982738214
  C   -1.29105824188968      1.04238700165722      0.01284331279219
  N   -1.80982336289344      2.00996845338269      0.42744974438695
  N   -1.40433665282339     -1.32073255372875     -0.32694069634514
  H   -1.50266674845029     -1.54917509281652      0.65459272585264
  H   -0.97866482140723     -2.10816748971350     -0.80010004240577
