13
Coordinates from ORCA-job run
  C   0.96295679526684     -0.20996454691137      0.03117601996834
  C   -0.54838011686864     -0.08606526408145     -0.25617981640358
  Cl  1.21249613334732     -1.13572692046546      1.52758290505457
  H   -0.60856890427425      0.51663864810729     -1.17960280803567
  H   1.40576794291936     -0.79554734703818     -0.78077100081129
  N   1.66791032003797      1.03790864046978      0.12973446496885
  H   1.29258138464388      1.60624546420830      0.88054765123390
  H   1.61664792985751      1.55061849978028     -0.74253905156964
  C   -1.18502059024119      0.71059345052021      0.79896420959269
  N   -1.68199218604566      1.38382951878784      1.62190380408276
  N   -1.19188799531701     -1.38425733678937     -0.35728170628792
  H   -2.17557509137300     -1.27472568908542     -0.57038014393221
  H   -0.76493562195314     -1.91954711750246     -1.10415452786082
