13
Coordinates from ORCA-job run
  C   0.86576301108190      0.26848823488919     -0.27080173819320
  C   -0.58840648206957     -0.25906389850714     -0.35609603490375
  Cl  1.65974558314084     -0.08345315542486     -1.83691933613005
  H   -0.53100265394841     -1.32236759171852     -0.61858298692134
  H   0.84415844054988      1.35609905673175     -0.16263387375693
  N   1.65363545606469     -0.28051930069288      0.79009557347646
  H   1.62503278049749     -1.29184134752250      0.80825809346294
  H   1.40041461058105      0.10475120570922      1.68869474387764
  C   -1.31630854086501      0.42966734333490     -1.42902410876143
  N   -1.89693304379389      1.02948015176013     -2.25384090491892
  N   -1.35399011860779     -0.13512070594029      0.87269460238303
  H   -1.45186080415028      0.83520264947501      1.14747537553131
  H   -0.91124823848090     -0.65232264209402      1.62068059485424
