13
Coordinates from ORCA-job run
  C   0.91637845853367     -0.10793020220835      0.04129684481020
  C   -0.55580145498738     -0.04828170605872     -0.36072856381536
  Cl  1.08419980389594     -1.01694681997496      1.56897453159582
  H   -0.59547033014193      0.54810868480232     -1.28109205902956
  H   1.42847250854965     -0.71472741429415     -0.71382900387143
  N   1.41993959869925      1.22809728221909      0.24359076307760
  H   1.46973749233952      1.70802541342171     -0.64871978860624
  H   2.35221608282232      1.19787487252923      0.63766335603424
  C   -1.34652782245757      0.66595829957139      0.66101540603239
  N   -2.05741315543156      1.17068730791230      1.44761045482701
  N   -1.04311076884302     -1.37827614066375     -0.68417299596040
  H   -1.97623522717393     -1.31910354328339     -1.07305510732750
  H   -1.09738518580494     -1.93448603397272      0.16144616223323
