13
Coordinates from ORCA-job run
  C   0.85894611557418      0.16732956942178     -0.36497279652896
  C   -0.60642394409085     -0.25679836997396     -0.58233984279612
  Cl  1.87575465389725     -1.35012440044782     -0.61596503846138
  H   -0.65604481390841     -0.79903052436668     -1.53155218759977
  H   1.17607314332160      0.83910944103477     -1.16281473661442
  N   1.03871066081692      0.78344959229292      0.89072778859054
  H   0.91756849797229      0.12825893708039      1.65126580582310
  H   1.94513321643583      1.22227935693612      0.97596589683875
  C   -1.40907039509934      0.96586502403997     -0.72697073529584
  N   -2.03053961456085      1.95279184237742     -0.85460410495038
  N   -1.19186493873752     -1.09785122566980      0.44203914579650
  H   -1.26392023736286     -0.60859124128577      1.32450138517655
  H   -0.65432234425825     -1.94768800143933      0.55571942002144
