13
Coordinates from ORCA-job run
  C   0.84078015550656      0.43125173559137     -0.15640724227520
  C   -0.51318906170180     -0.23428118337975     -0.41963694820021
  Cl  1.75811255870410      0.50551070832914     -1.68060023720564
  H   -0.30982044892379     -1.15957965178822     -0.97350404686431
  H   0.67516120297548      1.46928730665457      0.15401080254216
  N   1.55368705260308     -0.38889025564177      0.79798584466393
  H   1.13589068207290     -0.22568041435197      1.70788222056488
  H   2.52435433841341     -0.10279940007624      0.84084091559137
  C   -1.35554297805973      0.62628829930541     -1.25363882698296
  N   -2.05358953089779      1.32053970771374     -1.89243840659626
  N   -1.15556533314960     -0.46378171230980      0.87781974982192
  H   -0.94071623306916     -1.40282142080303      1.18742867725270
  H   -2.16056240447365     -0.37404371924344      0.81125749768763
