13
Coordinates from ORCA-job run
  C   0.91966220337098      0.35042237549935     -0.29713589389647
  C   -0.48262300160445     -0.29135165680845     -0.23252334392581
  Cl  1.64193458583849     -0.03477374523779     -1.87685072765609
  H   -0.34411565577509     -1.37276160854224     -0.33113939090336
  H   0.80865795751355      1.43798848422063     -0.25580056601497
  N   1.80662468992493     -0.07253829196456      0.75152365548786
  H   2.03869889664551     -1.05214699178277      0.62720854979198
  H   1.30791553678384      0.02467201021162      1.63022109358573
  C   -1.34317107741341      0.16887826092690     -1.33608350869846
  N   -2.07473280963619      0.57991556039811     -2.15832297300503
  N   -1.04567967578384     -0.01356411615296      1.08587086802397
  H   -1.80687040729548     -0.65119132220965      1.28413431076349
  H   -1.42530124256885      0.92645104144182      1.10889792644715
