13
Coordinates from ORCA-job run
  C   0.89587948042065     -0.18244861413505      0.10407991813308
  C   -0.56847122244183     -0.07538735431842     -0.39209780300855
  Cl  0.89256302681471     -1.01241173934142      1.69162125671034
  H   -0.50669451345755      0.38982373435254     -1.38487655976974
  H   1.43157546904935     -0.84116385006598     -0.58532750185042
  N   1.61388109906174      1.05068738500046      0.21932500931134
  H   1.80017118026605      1.44912690865291     -0.69234375473238
  H   1.11221440068500      1.71894310885471      0.79255297701801
  C   -1.29280430544006      0.86799084662261      0.47171348126060
  N   -1.82366289700487      1.63966434459234      1.17889584668812
  N   -1.32364363586595     -1.30413210782528     -0.53094677405803
  H   -0.88919543258865     -1.90045923419231     -1.22502490085435
  H   -1.34081264949857     -1.80123342819711      0.35142880515198
