13
Coordinates from ORCA-job run
  C   0.98654701228585     -0.15322736682029     -0.09813066172460
  C   -0.52358003725309     -0.01475574026166     -0.35643598307863
  Cl  1.22585196127720     -1.42299664244907      1.14529445959587
  H   -0.61657489644621      0.74027079133716     -1.14624084749872
  H   1.43190908546900     -0.53388243055579     -1.01890684412823
  N   1.66548144616387      1.03638170891199      0.31366248755501
  H   1.72744277774311      1.70101882657565     -0.44667823495380
  H   1.22180266288592      1.46448447601447      1.11726841646698
  C   -1.18476566019693      0.53536423163892      0.84611928673076
  N   -1.72355515709855      0.96186283658443      1.79900994456603
  N   -1.08602755355388     -1.25132700760700     -0.86285756000357
  H   -2.04456014550530     -1.10849896958787     -1.15615646798599
  H   -1.07997149577101     -1.95669471378093     -0.13594799554112
