13
Coordinates from ORCA-job run
  C   0.80256590436291     -0.11464818727101      0.23617243205717
  C   -0.58348227783173     -0.07930140531788     -0.42891528494103
  Cl  0.64000859712235     -0.60253477633650      1.94543096869306
  H   -0.41453916181438      0.23872781809453     -1.46697176382277
  H   1.37321323750471     -0.92697710118393     -0.23553331440028
  N   1.40835227531601      1.18864311338099      0.18246903121150
  H   2.30732591281134      1.18853603170894      0.64786254875301
  H   1.54323236296945      1.46910560264725     -0.78252528143871
  C   -1.42130511852350      0.94629333304328      0.20718690316460
  N   -2.12153981452283      1.74006429075575      0.71237107095380
  N   -1.30654353504577     -1.33575893314943     -0.47581922243370
  H   -0.78131281776325     -2.02234636529895     -1.00365601496429
  H   -1.44697556458531     -1.68980342107305      0.46292792716765
