13
Coordinates from ORCA-job run
  C   1.01531380646826      0.10018565047714     -0.42578080672091
  C   -0.48389141806454     -0.28281510514132     -0.50540235211552
  Cl  1.92870535769891     -1.41561737975446     -0.77307060928717
  H   -0.64933556836323     -0.84471833962153     -1.43058027828674
  H   1.26257585601842      0.79319013857238     -1.23195978802061
  N   1.41792720333708      0.64431040736512      0.82175483659623
  H   1.24274829644700      1.63811654139157      0.87311559985527
  H   0.96519169560666      0.14608959567982      1.57823111893915
  C   -1.26220263996474      0.95894576094384     -0.57831471769478
  N   -1.85366962747078      1.97329709731135     -0.60102384523416
  N   -0.85230645585547     -1.06617233989407      0.67141058579777
  H   -1.12180621878213     -2.00388795198218      0.41321705738548
  H   -1.60925028707545     -0.64092407534768      1.18740319878600
