13
Coordinates from ORCA-job run
  C   0.91135343799341      0.45631527629519     -0.13418472267585
  C   -0.43245944966700     -0.27775234205412     -0.32846244043741
  Cl  1.81005869869841      0.39977033177832     -1.66850625758467
  H   -0.19600460698862     -1.31441372148236     -0.58878301364804
  H   0.70654037301729      1.51040130971398      0.07517570990674
  N   1.72668061724982     -0.08300676063342      0.91943643479885
  H   1.13916633033974     -0.17482921667017      1.74213397379001
  H   2.05185429047990     -1.00789290139382      0.65911426780201
  C   -1.21976227370833      0.30937875367802     -1.42629186321628
  N   -1.90206054313851      0.80756072856618     -2.24270128590663
  N   -1.13918467642477     -0.27028548976060      0.94959234196000
  H   -1.59573372732905      0.62468760407356      1.08720807558155
  H   -1.86044847052228     -0.98093357211077      0.95626877962971
