13
Coordinates from ORCA-job run
  C   0.85793576059570      0.36717702031505     -0.15445602613464
  C   -0.53817150787910     -0.24202539583819     -0.43944323908720
  Cl  1.78839323959626      0.32063047135399     -1.68398542961527
  H   -0.37296366349328     -1.24473204765239     -0.85136402492314
  H   0.73950654236197      1.42029982931084      0.11384149305594
  N   1.61002086106470     -0.28442253770979      0.87402030332469
  H   1.66145682007254     -1.28600387846090      0.73841541575461
  H   1.26383390436280     -0.06124559633174      1.79617617666039
  C   -1.24143587418606      0.55425440175386     -1.45215315661717
  N   -1.80524732041344      1.23625627540645     -2.22304657387380
  N   -1.39772433613071     -0.36584743953932      0.72603106615132
  H   -1.59904425262326      0.54094678320036      1.13006361165749
  H   -0.96556017332813     -0.95528788580822      1.42490038364678
