13
Coordinates from ORCA-job run
  C   0.93136922998604     -0.13268602920054     -0.05351154273732
  C   -0.54653755484997     -0.12149492084897     -0.43711094622950
  Cl  1.08097583936422     -0.92278999780498      1.60128199688945
  H   -0.57245038065571      0.29133482037871     -1.45063505915889
  H   1.44399358762035     -0.81849331495741     -0.72691543367550
  N   1.48723086529621      1.16332648603573     -0.13116023584497
  H   2.49110255593832      1.14708264982018     -0.01257860469740
  H   1.08414342262907      1.78970922595792      0.55580041871800
  C   -1.27854396393231      0.81926100114170      0.43806073069179
  N   -1.87201002383108      1.55558904007672      1.13496900127678
  N   -1.08493810018200     -1.46645696066308     -0.48269497239852
  H   -2.01223758258864     -1.45561436269343     -0.88863651276235
  H   -1.15309789479450     -1.84776763724256      0.45313115992842
