13
Coordinates from ORCA-job run
  C   0.90613285259624      0.46808265435902     -0.13066238872739
  C   -0.42364971089018     -0.29033368238998     -0.32831707118417
  Cl  1.82703080816447      0.39332192231882     -1.65121653387408
  H   -0.16769909805020     -1.32802389459641     -0.56508605868252
  H   0.68281278123605      1.52310008238012      0.05341182457003
  N   1.71437123824554     -0.03697814285162      0.94483593949613
  H   1.11771702328590     -0.11915954432962      1.76190748696211
  H   2.05602569592308     -0.96248980457612      0.70910447984951
  C   -1.20425602874401      0.26209519757050     -1.44897405914369
  N   -1.88191889349962      0.73188494583415     -2.28584421178554
  N   -1.14854266150459     -0.26847874280200      0.93919050500643
  H   -1.85570728469755     -0.99304262912249      0.95179657637086
  H   -1.62431672206514      0.62002163820563      1.05085351114232
