13
Coordinates from ORCA-job run
  C   0.93218413767767      0.23641058796298     -0.35931510635488
  C   -0.50081521762197     -0.28413076130551     -0.54508762852399
  Cl  2.07094674059167     -1.12446434165197     -0.81990367323516
  H   -0.53088868274190     -0.89316721663064     -1.45130012025789
  H   1.14417886839480      1.02567281760327     -1.08044167728363
  N   1.09810926526377      0.71377121739633      0.96005899563258
  H   1.97911449451609      1.19484998494502      1.07929631203138
  H   1.04522469106619     -0.05852915965625      1.61341985679429
  C   -1.39738806554366      0.87028339648758     -0.74658165530043
  N   -2.12834549031889      1.77934776504726     -0.88290855432933
  N   -0.87464814795762     -1.11042422736936      0.59297043831100
  H   -1.55094639568027     -1.81043068241451      0.32129091368900
  H   -1.28572619764588     -0.53918938041418      1.32050189882706
