13
Coordinates from ORCA-job run
  C   0.95624371021220      0.05341533480803     -0.35640015530213
  C   -0.54592194460795     -0.25932607726482     -0.60179113295999
  Cl  1.83764584053851     -1.50312368947217     -0.51196245358695
  H   -0.63235464389126     -0.72384224571307     -1.58985671877214
  H   1.31758558653197      0.69139400697074     -1.16599346246168
  N   1.28885545103404      0.66642004976013      0.89048449376561
  H   0.99024751770039      1.63305381111459      0.91445562039317
  H   0.90806912114549      0.15886295247427      1.67785597789020
  C   -1.23988232139104      1.03501746403569     -0.64361260160778
  N   -1.72198575247842      2.10532944448948     -0.64382820214764
  N   -1.20475287383436     -1.12461984752051      0.35576916277290
  H   -0.73634049258350     -2.02104015816097      0.39535487837473
  H   -1.21740919837605     -0.71154104552138      1.27952459364171
