13
Coordinates from ORCA-job run
  C   0.86441164998154      0.17807287923278     -0.34673302837364
  C   -0.59832748247211     -0.23493281700688     -0.59954316439406
  Cl  1.88228674803807     -1.33107476089291     -0.63758043098015
  H   -0.63590375555355     -0.74315921804517     -1.56794197494523
  H   1.19346790298383      0.87768335601258     -1.11532774553432
  N   1.02729961706806      0.74860784832975      0.93281523251944
  H   0.89561119501431      0.06645525932137      1.66753555342508
  H   1.93285833545963      1.18264746136513      1.04587466133092
  C   -1.39693940060480      0.99369548225901     -0.71311992874355
  N   -2.01457782120798      1.98594611814445     -0.81512605837695
  N   -1.19973389512133     -1.10996904718825      0.38640283097179
  H   -1.28390062699741     -0.65116790422570      1.28398215203883
  H   -0.66455246658824     -1.96380465730615      0.47876190106184
