13
Coordinates from ORCA-job run
  C   0.79416095268530     -0.12977639427501      0.25320176813372
  C   -0.58302685316580     -0.08653125227825     -0.42988785212033
  Cl  0.59514950510357     -0.47854124114751      1.99203337525504
  H   -0.39123154234359      0.14720953722089     -1.48627178658679
  H   1.33356274259216     -0.99888382082294     -0.14930053618092
  N   1.45598878032759      1.13928756928073      0.10827016091171
  H   2.34337334801000      1.14081088086241      0.59552802013057
  H   1.62590147789633      1.33100974749444     -0.87301086009202
  C   -1.38257322141377      1.01713520975762      0.11844268725722
  N   -2.05335909968534      1.87416023840840      0.55534560457237
  N   -1.35766497497213     -1.31213941325743     -0.39305478534510
  H   -0.85445756249750     -2.05818169491660     -0.85759859444691
  H   -1.52582355253684     -1.58655936632675      0.56730279851144
