13
Coordinates from ORCA-job run
  C   0.90181666013473     -0.10862980079474      0.16836274155933
  C   -0.51684251172209     -0.12961063390962     -0.39673151692537
  Cl  0.87101470539204     -0.60560909552224      1.88330667078128
  H   -0.43528487961493      0.21472873322656     -1.43553665232537
  H   1.46351192030548     -0.89407018147309     -0.34963176065279
  N   1.43835188507282      1.22727647885720      0.08636936411104
  H   2.32060025238627      1.28457977792422      0.57986085482619
  H   1.60369386418620      1.46538643757794     -0.88569732453601
  C   -1.37696718329400      0.83286362311013      0.31956840946033
  N   -2.14134552015738      1.53324045950055      0.87088109369583
  N   -1.02570663277395     -1.49000569668650     -0.42956208395099
  H   -1.19477878984690     -1.81210160551044      0.51646351595692
  H   -1.90806377006830     -1.51704849629998     -0.92565331200039
