13
Coordinates from ORCA-job run
  C   0.90624815165679     -0.14657790362908      0.06591815279473
  C   -0.58269862664770     -0.10686032666211     -0.36331832094186
  Cl  1.00899246273560     -0.93747928692898      1.66999640815858
  H   -0.58339580758293      0.33272669529013     -1.36953149966420
  H   1.43438492652739     -0.80077042613000     -0.63363799725343
  N   1.58033533799676      1.11512939374295      0.11923852645548
  H   1.70963064348101      1.49751487807513     -0.80897740401119
  H   1.07979635895625      1.77821490705637      0.69934728535404
  C   -1.30125176621431      0.83268396609452      0.50890871551149
  N   -1.82700842873152      1.60469092028191      1.21982831393905
  N   -1.29670653995856     -1.36543328930853     -0.43570727412677
  H   -1.25581987759418     -1.83831781386300      0.45895831850887
  H   -0.87150683462460     -1.96452171401930     -1.13302322472478
