13
Coordinates from ORCA-job run
  C   0.88153114956103      0.01704486356039     -0.29168722337165
  C   -0.60822413861807     -0.24509534744098     -0.60343832241720
  Cl  1.75969538625212     -1.53353106604255     -0.38013469422890
  H   -0.67437061130605     -0.67647061238065     -1.60716423879938
  H   1.31655628032151      0.64283469578917     -1.08039383735133
  N   0.99533970067712      0.54361984504935      1.04986765998468
  H   0.66767005756377      1.50455041644973      1.06058193841281
  H   1.96205308077792      0.53816964735332      1.35055235827099
  C   -1.26278254567890      1.07385174621404     -0.63599562979768
  N   -1.71314007802678      2.15802347827927     -0.63218273031057
  N   -1.29929044438337     -1.11250179804180      0.32640289440740
  H   -1.03135838124118     -0.84448710266413      1.26767980972979
  H   -0.99367945589912     -2.06600876612516      0.17791201547103
