13
Coordinates from ORCA-job run
  C   0.87509229325930     -0.17491134460069      0.22407580814072
  C   -0.55148661809550     -0.18149256467207     -0.38157421528311
  Cl  0.73539230418265     -0.40053089830650      1.99588485755771
  H   -0.40749749828353     -0.09587457451004     -1.46677589243841
  H   1.40000999813317     -1.05551317370469     -0.15698309659826
  N   1.66715390525614      0.98750789606641     -0.04129657753445
  H   1.18225621461831      1.83557984850164      0.22796651284519
  H   1.92807512365197      1.03411367691156     -1.01813258350067
  C   -1.25380793284949      1.03579793902990      0.04884790612633
  N   -1.76658548780168      2.02938742789548      0.40548556144799
  N   -1.37992740718891     -1.34561347540735     -0.14104693311583
  H   -1.47651957594739     -1.50154108006553      0.85501799209721
  H   -0.95115531893505     -2.16590967713796     -0.55246933974503
