13
Coordinates from ORCA-job run
  C   0.94744966207839      0.06203961670220     -0.37837170268515
  C   -0.55934589391113     -0.25062372229989     -0.59313936686866
  Cl  1.82858215400315     -1.48922713262446     -0.58265577449576
  H   -0.66873831108175     -0.69862989023828     -1.58652763822953
  H   1.28788903822585      0.71534166995564     -1.18480526750403
  N   1.30836035110620      0.65363872294676      0.87097232551628
  H   1.00844412253140      1.61897858773219      0.91935377612687
  H   0.94767049849417      0.13107395693661      1.65804836747432
  C   -1.25720430431933      1.04236494984408     -0.59641098411681
  N   -1.74249090381203      2.11086657819214     -0.56714110067173
  N   -1.19298430497085     -1.13358728700616      0.36533515253077
  H   -1.18560575187494     -0.73533573249439      1.29563015468551
  H   -0.72102635646912     -2.02890031764646      0.37971205823793
