19

C	0.0	0.0	0.0
C	-0.562477	-0.17957	-1.424853
F	1.422757	0.0	0.0
H	-1.435	-0.834416	-1.305206
N	-0.444684	1.227227	0.546606
H	-0.20971	1.985193	-0.081057
H	-0.048657	1.372113	1.465466
C	-0.410706	-1.154947	0.889907
H	-1.497854	-1.148869	0.988131
H	0.057044	-1.051046	1.874325
H	-0.080932	-2.102719	0.454631
C	0.450268	-0.830545	-2.353204
H	-0.021819	-1.070863	-3.311535
H	1.287601	-0.152073	-2.529906
H	0.843278	-1.757075	-1.928305
N	-0.993253	1.11611	-1.967169
H	-1.885963	1.311648	-1.511892
H	-1.204848	0.980786	-2.950395
Br	-4.079378	0.0	0.0
