19

C	0.0	0.0	0.0
C	-0.282802	-0.198684	-1.502709
F	1.414783	0.0	0.0
H	0.123847	0.720303	-1.97002
N	-0.451469	1.255538	0.518529
H	-1.417419	1.162062	0.818169
H	-0.424136	1.963722	-0.206945
C	-0.480658	-1.133272	0.871771
H	-0.109202	-2.076888	0.47488
H	-0.105332	-0.979401	1.885744
H	-1.573504	-1.153709	0.891059
C	-1.746309	-0.323834	-1.858941
H	-1.859857	-0.333674	-2.949
H	-2.361233	0.480302	-1.4622
H	-2.169591	-1.24723	-1.465233
N	0.427828	-1.394685	-1.96672
H	1.424732	-1.230581	-1.911561
H	0.185112	-1.563684	-2.935329
Br	-4.68022	0.0	0.0
