19

C	0.0	0.0	0.0
C	-0.289732	0.305064	-1.500849
F	1.409489	0.0	0.0
H	0.409424	-0.349726	-2.037249
N	-0.459954	0.954988	0.965809
H	-1.459388	0.818397	1.100746
H	-0.321593	1.897446	0.622515
C	-0.468322	-1.378367	0.405965
H	-0.100897	-2.124556	-0.303616
H	-1.55995	-1.409655	0.432601
H	-0.074421	-1.603568	1.399372
C	0.067613	1.74831	-1.842265
H	1.035337	2.035803	-1.425133
H	0.094631	1.863751	-2.926628
H	-0.702348	2.428839	-1.467234
N	-1.616456	0.024383	-2.013657
H	-2.342384	0.47138	-1.457032
H	-1.822201	-0.964185	-1.932567
Br	-4.306867	0.0	0.0
