18
Coordinates from ORCA-job run
  C   0.63118422693338      0.43916304835989      0.29388134864324
  C   -0.66826693904571     -0.36416721672969      0.36160574257693
  F   0.75816418735719      1.00474842956018      1.61267224455886
  H   -0.52787927927175     -1.09490909762710      1.17327368952288
  C   1.87698413205059     -0.39520940358242      0.10235432683204
  H   1.90695311023537     -0.82283373169348     -0.89903065631673
  H   1.91845643111093     -1.19294229879912      0.84624987397944
  H   2.75652693346561      0.23881952531318      0.23762578318986
  N   0.52409268715855      1.45546880940802     -0.68071612094223
  H   1.30892567872387      2.09198888688566     -0.63631116559631
  H   -0.34834118213203      1.95376667140372     -0.54778936025949
  C   -0.96946104343741     -1.09903564415197     -0.93382077397127
  H   -0.19510407442045     -1.83177717254592     -1.16608986204180
  H   -1.91694273330326     -1.63965687321817     -0.84859377179972
  H   -1.04234063914087     -0.38886011399731     -1.75764623492421
  N   -1.74623855787908      0.58502686490943      0.64822840788179
  H   -1.62448534859900      0.94651161774871      1.58673189643649
  H   -2.64022758980594      0.11089769875638      0.61037463223023
