18
Coordinates from ORCA-job run
  C   0.64269050870521      0.48480538860261      0.06115478116521
  C   -0.51653845388451     -0.52313571497895     -0.02551173726281
  F   0.10532039072202      1.59245712923287      0.74916094024043
  H   -0.10658217454150     -1.42700692529965     -0.49377525573820
  C   1.80874653038155     -0.03197746592693      0.87516955894261
  H   2.56698991226001      0.74989761955757      0.93297845495635
  H   1.47122752871517     -0.30572882847080      1.87143884166438
  H   2.24110760130450     -0.91901848929127      0.40408889457610
  N   1.12459980780718      0.99129580041765     -1.19246526600926
  H   0.37235555421576      1.20843997571500     -1.83093416767675
  H   1.76254726251032      0.34016610503291     -1.62811901420135
  C   -1.67541682135404     -0.00390058485746     -0.88085692496456
  H   -1.41750187094665      0.08879821013262     -1.93919654297275
  H   -2.51691846404264     -0.69837874302323     -0.81915110057743
  H   -2.00917738858686      0.96910424596305     -0.51281089851055
  N   -0.91256177379292     -0.88087261609734      1.33646489361953
  H   -1.29427169978068     -0.05528110348489      1.78490183628079
  H   -1.64661644969193     -1.57866400322377      1.30646270646826
