18
Coordinates from ORCA-job run
  C   0.61611222190815      0.43740797938580     -0.01480502892990
  C   -0.50012626536460     -0.60600657514773      0.07585892964309
  F   0.00411833791970      1.67921866675634      0.35773621358806
  H   -0.01827276480699     -1.57975358970770     -0.06397942678062
  C   1.73214940992756      0.20064584282156      0.97681416603467
  H   1.31869882200256      0.11106248313193      1.97831984087672
  H   2.26725141973495     -0.71524660909197      0.72137622142595
  H   2.43055101022125      1.04112989563219      0.94766027970902
  N   1.13070524170449      0.52014156716857     -1.33697579943740
  H   1.92508336687783      1.14760552449264     -1.36343847464204
  H   0.42832329024621      0.87256507586683     -1.97441912090786
  C   -1.55735984074717     -0.41791863270816     -1.01435252192581
  H   -1.95925498213373      0.59833288788583     -0.98161041694821
  H   -1.16124129010815     -0.61682381809615     -2.01310887119978
  H   -2.38394450546641     -1.11323146462579     -0.84854124329287
  N   -1.03858014702182     -0.57156207498946      1.43451798474076
  H   -1.72995919370687     -1.30370105381024      1.54325538356279
  H   -1.50525413118694      0.31713389503553      1.57569188448343
