18
Coordinates from ORCA-job run
  C   0.59718608831703      0.48190005672999      0.44140705487047
  C   -0.67204214714012     -0.37553202653045      0.35662928740192
  F   0.61860500452045      0.90251682947210      1.79980700638700
  H   -0.58031198340096     -1.14420192739966      1.13971477309937
  C   1.88193925955751     -0.28815660612851      0.23145596051114
  H   1.98157693530588     -0.63662671629261     -0.79789272720091
  H   2.71984534484094      0.37053076805290      0.46609799430738
  H   1.91954686063996     -1.14755882239154      0.90276200781608
  N   0.54685184146452      1.64824012264686     -0.36875029885793
  H   1.09741717019994      1.57334679958612     -1.20933929177183
  H   -0.41231008774554      1.90264334757968     -0.56869968788983
  C   -0.83122169411452     -1.05092561126094     -0.99494074703816
  H   -1.78107563668000     -1.59139732216580     -1.03854978331239
  H   -0.03561140974638     -1.77432058929058     -1.18120337251722
  H   -0.83320955514236     -0.30568557775979     -1.79305310564388
  N   -1.80536798481375      0.52309833784045      0.58025264759928
  H   -1.73905340122301      0.90760838747515      1.51570280715743
  H   -2.67376460483958      0.00552054983662      0.51859947508208
