18
Coordinates from ORCA-job run
  C   0.60670438432266      0.28256828920092      0.56440294297233
  C   -0.81161014777321     -0.22480426493983      0.30422922089793
  F   1.08844419903845     -0.40599984473800      1.68118872020497
  H   -1.29259205594881     -0.19961712280550      1.29215638316279
  C   1.58022726939268      0.03057728411654     -0.57070771092317
  H   1.74753616999424     -1.03713096896202     -0.72014951006737
  H   2.53973650457369      0.49721832108101     -0.33562151311922
  H   1.18524046092359      0.46408132446300     -1.49103340555064
  N   0.51084964209378      1.67282474077680      0.97334021656988
  H   1.40067397884005      1.94471284657225      1.37850665663813
  H   0.36925630469909      2.23651771496929      0.14220861828396
  C   -0.84492791584376     -1.64572870885340     -0.23048673326844
  H   -0.22926842709703     -2.30390947564975      0.38464958151958
  H   -0.48481925396747     -1.68264691362435     -1.26136142305871
  H   -1.86865255193235     -2.03012781195300     -0.21446513190821
  N   -1.44579520807800      0.69469935497170     -0.64633614481689
  H   -2.21361405396090      0.22994152829434     -1.11537035986760
  H   -1.83638929927669      1.47782370708000     -0.13615040766932
