18
Coordinates from ORCA-job run
  C   0.67186011280051      0.29716796797270      0.55062911382679
  C   -0.77763617637870     -0.17231195410441      0.36805958731552
  F   1.23295707993389     -0.53351929757303      1.53559550288175
  H   -1.23112462005297     -0.01648358663494      1.35273199364439
  C   1.54621157824561      0.12288047086492     -0.67961951090667
  H   2.55621650823325      0.47006677909699     -0.44664050799531
  H   1.16231491196116      0.72112570700970     -1.50883403057346
  H   1.61639560336666     -0.92274817405452     -0.98387657408474
  N   0.63682241080348      1.62883478771491      1.07279275215191
  H   -0.08975184803512      2.13702785915777      0.58228590329421
  H   1.52385393256677      2.09866557110122      0.94171565489992
  C   -0.88525431852349     -1.64691449325179     -0.00101025004274
  H   -0.30752176708417     -2.26833021990138      0.68448291414173
  H   -1.93018607273536     -1.96503542495414      0.04132503964564
  H   -0.52521085415460     -1.82508753753843     -1.01857532970807
  N   -1.45164047946663      0.73684429850867     -0.56569422123494
  H   -2.45127475567637      0.71195377971261     -0.40696629935108
  H   -1.29703124580395      0.42486346687313     -1.51840173790486
