18
Coordinates from ORCA-job run
  C   0.72017824282193      0.31974937138502      0.50307109118517
  C   -0.74228444735464     -0.11395296921529      0.30439500002231
  F   1.20790814576181     -0.44103208704428      1.56940700688385
  H   -1.24416698158717      0.15496041102993      1.24229736023264
  C   1.60322160669649      0.06041407227218     -0.69791735270236
  H   1.27239555127929      0.65284988208635     -1.55342153886172
  H   2.61742056771231      0.36514513578100     -0.44075022285037
  H   1.60675744564068     -0.99665671766949     -0.96749303407949
  N   0.85092709261074      1.70138553048758      0.90627691378108
  H   0.40737612443788      1.80544108178284      1.81402185723392
  H   0.31252574733063      2.25351579116485      0.24613988262295
  C   -0.91608531655076     -1.61177173426898      0.07410880947650
  H   -0.50559174569082     -1.90843548839517     -0.89526502225303
  H   -0.41669562552945     -2.19248415844574      0.85111133604375
  H   -1.97842297808001     -1.87040855191991      0.07757474858885
  N   -1.31696960790367      0.72974313427087     -0.75013390433855
  H   -1.15839517077927      0.29690036791913     -1.65357147652121
  H   -2.32009865081599      0.79663692877912     -0.63085145446429
