18
Coordinates from ORCA-job run
  C   0.58109962692177      0.41818956866110      0.32999604105651
  C   -0.68215286605967     -0.44767838277673      0.42129299254089
  F   0.75203948212935      0.94166358254649      1.65329529122917
  H   -0.48748475765385     -1.16001636330148      1.23165072437390
  C   1.84259976068283     -0.36067206846045      0.03175265301881
  H   2.71135043451023      0.27821567997093      0.20910408228179
  H   1.85710149543562     -0.69638261605347     -1.00450742556157
  H   1.91882783641508     -1.22336547819361      0.69591610387595
  N   0.41225815314475      1.48244887961672     -0.59543411740375
  H   -0.34687642231538      2.08207211790822     -0.29827472474451
  H   1.25447558560369      2.04154327556312     -0.65287269789569
  C   -0.95379597029703     -1.21147910841371     -0.86461169485566
  H   -1.03428979920452     -0.51977242870201     -1.70644856318011
  H   -0.16126636576438     -1.92763641426858     -1.08623772946380
  H   -1.89241446146588     -1.75886253979352     -0.76250923612640
  N   -1.87709553880923      0.29930916298150      0.79820459988952
  H   -1.67500045685677      0.91219854777095      1.57862378990363
  H   -2.21637573641661      0.85222458494454      0.02005991106132
