18
Coordinates from ORCA-job run
  C   0.63983990561059      0.45960781516586      0.40448019120882
  C   -0.66461716657757     -0.34786009824289      0.39623412373520
  F   0.75426213926782      0.88378926628382      1.75682255567129
  H   -0.55825103814454     -1.11745490225377      1.17656314246514
  C   1.87954375120604     -0.36098243279836      0.12626336256659
  H   1.90549103189659     -0.71790265264748     -0.90465718284684
  H   2.75447361162298      0.26568855016969      0.30738127521800
  H   1.92297552443440     -1.21808139786655      0.80013120648696
  N   0.58917895741083      1.62388796408324     -0.40849594767370
  H   1.08799310771516      1.52492751351437     -1.27838060428271
  H   -0.36909013468863      1.91534014814774     -0.55501815427962
  C   -0.92667412118215     -1.02072117244020     -0.94051121044983
  H   -1.89852839421262     -1.52227990992950     -0.92762065982145
  H   -0.17288076417281     -1.77671189456555     -1.16689053886213
  H   -0.94333674926774     -0.27890632391397     -1.74161432661054
  N   -1.74741147554797      0.59512799906734      0.67892050638511
  H   -2.63769327772476      0.11244448744364      0.66854805304717
  H   -1.61327490764564      0.98008704078257      1.60684420804253
