18
Coordinates from ORCA-job run
  C   0.59450121159386      0.32405926724534      0.43956518357754
  C   -0.82211780683312     -0.26481499616878      0.34148141303169
  F   1.28408905949294     -0.47027559788096      1.39840607318885
  H   -1.23594093331025     -0.18006037880012      1.35663281506304
  C   1.40689903668542      0.25494518516053     -0.83436246629580
  H   1.55927418521598     -0.78174210535244     -1.13321090791962
  H   0.91125676751298      0.79887391479885     -1.63849029517995
  H   2.38989683822866      0.70225703047104     -0.66763193693000
  N   0.49891469248168      1.67147946956842      0.89887728389943
  H   0.07132814527651      1.68904419989788      1.81818333703106
  H   1.41816141258229      2.09147661773606      0.96829379671916
  C   -0.82806968509548     -1.73555990758603     -0.04131786617665
  H   -0.16848199543872     -2.31358847337910      0.60529295758347
  H   -0.50563997073547     -1.87284648284006     -1.07789573630056
  H   -1.84365559582765     -2.12521198367239      0.04366991557455
  N   -1.70249015387517      0.47758625391987     -0.55153101984096
  H   -1.46957255805861      0.26646905183733     -1.51500530502882
  H   -1.55935264989586      1.47090893504456     -0.40995724199642
