12

C	0.0	0.0	0.0
C	-0.486362	-0.027951	-1.44668
Cl	1.784788	0.0	0.0
H	-1.279288	0.686815	-1.606927
H	-0.349888	-0.88065	0.521921
H	0.342791	0.089393	-2.153347
C	-0.448644	1.203802	0.69934
N	-0.585659	2.203732	1.301745
N	-1.071926	-1.352756	-1.792674
O	-1.795712	-1.384727	-2.781449
O	-0.709399	-2.338185	-1.159099
F	-2.36786	0.0	0.0
