12

C	0.0	0.0	0.0
C	-0.543442	0.030348	-1.411517
Cl	1.782541	0.0	0.0
H	-1.669715	0.105855	-1.159675
H	-0.357167	-0.926044	0.443951
H	-0.280323	-0.878114	-1.949838
C	-0.458097	1.106624	0.845543
N	-0.647871	1.985568	1.601415
N	-0.038309	1.151637	-2.212993
O	0.124234	0.954656	-3.421349
O	0.150887	2.234541	-1.658751
F	-2.610471	0.0	0.0
