18

C	0.047065	-0.045812	-0.007125
C	-0.425677	-0.266726	-1.480227
Cl	1.812612	0.414741	-0.023768
H	0.351142	-0.892961	-1.939124
C	-0.731486	1.016625	0.749134
H	-0.451284	1.016045	1.80428
H	-1.80703	0.848461	0.642116
H	-0.512069	1.997413	0.327098
C	-0.009403	-1.331519	0.693107
N	-0.062999	-2.374796	1.23202
C	-0.531788	1.053914	-2.230469
H	-0.68514	0.834563	-3.2887
H	0.367979	1.662848	-2.12081
H	-1.405111	1.606908	-1.877512
N	-1.691789	-0.953985	-1.584684
H	-1.69276	-1.829164	-1.075557
H	-2.463321	-0.368589	-1.25661
Cl	-4.047081	1.227332	-0.554966
