18

C	0.047444	-0.041393	-0.026226
C	-0.416678	0.288353	-1.482038
Cl	1.813891	0.388393	0.133057
H	0.363649	-0.130429	-2.131788
C	-0.733531	0.676402	1.060305
H	-0.51067	1.742858	1.023693
H	-0.458337	0.292843	2.044705
H	-1.808921	0.561337	0.895706
C	-0.013785	-1.493358	0.158676
N	-0.072367	-2.661326	0.277536
C	-0.516621	1.791458	-1.702604
H	0.385058	2.315431	-1.379121
H	-1.387916	2.182648	-1.172533
H	-0.669011	1.971568	-2.768362
N	-1.681997	-0.309708	-1.836853
H	-1.697247	-1.306445	-1.660565
H	-2.460333	0.134549	-1.344881
Cl	-4.048265	1.318614	-0.066657
