18

C	0.047553	-0.048987	-0.015368
C	-0.413564	-0.133237	-1.506586
Cl	1.81982	0.383897	0.02273
H	0.359362	-0.728756	-2.011015
C	-0.723221	0.95451	0.824102
H	-0.486053	1.964971	0.491012
H	-1.799856	0.811102	0.694047
H	-0.453503	0.857883	1.877594
C	-0.033973	-1.390066	0.568541
N	-0.109037	-2.474897	1.014798
C	-0.490725	1.249243	-2.139798
H	-0.64113	1.125974	-3.213924
H	-1.35546	1.786434	-1.743736
H	0.419356	1.829067	-1.972974
N	-1.688679	-0.787237	-1.682772
H	-2.458932	-0.209825	-1.338446
H	-1.720041	-1.693751	-1.233245
Cl	-4.023023	1.319979	-0.456002
