15

C	0.0	0.0	0.0
C	-0.426093	-0.091004	-1.473209
F	1.41783	0.0	0.0
H	-1.522317	-0.007379	-1.445568
C	-0.370797	1.326695	0.538816
N	-0.543145	2.394527	0.992367
N	-0.468339	-1.025326	0.861639
H	-0.30282	-1.92877	0.428002
H	-1.482001	-0.893747	0.942004
C	-0.061832	-1.428441	-1.982478
N	0.271635	-2.464501	-2.426957
N	0.147174	0.998672	-2.240114
H	1.130352	0.831794	-2.408098
H	-0.331222	1.093609	-3.125513
Cl	-3.460922	0.0	0.0
