15

C	0.0	0.0	0.0
C	-0.359914	-0.074482	-1.511375
F	1.406378	0.0	0.0
H	0.394909	-0.760731	-1.911478
C	-0.373203	1.285959	0.623723
N	-0.607025	2.309291	1.150937
N	-0.510284	-1.128253	0.67017
H	-0.821364	-0.916214	1.605986
H	-1.287119	-1.510791	0.137305
C	-0.104318	1.234332	-2.153909
N	0.077691	2.238549	-2.735645
N	-1.655289	-0.65656	-1.71995
H	-2.440361	-0.175107	-1.257026
H	-1.86249	-0.774229	-2.702008
Cl	-4.167008	0.0	0.0
