15

C	0.0	0.0	0.0
C	-0.180952	0.05297	-1.559334
F	1.410674	0.0	0.0
H	0.496998	0.863005	-1.865687
C	-0.391384	1.281598	0.611966
N	-0.496925	2.363199	1.055978
N	-0.483205	-1.11923	0.693621
H	-1.486447	-0.951021	0.833609
H	-0.402566	-1.908043	0.056875
C	-1.458773	0.391043	-2.199065
N	-2.17995	0.712568	-3.072228
N	0.261963	-1.255185	-2.059188
H	-0.049086	-1.381285	-3.013113
H	1.273007	-1.282724	-2.035681
Cl	-3.338638	0.0	0.0
