15

C	0.0	0.0	0.0
C	-0.388723	-0.301044	-1.509638
F	1.380357	0.0	0.0
H	0.5877	-0.577295	-1.925299
C	-0.356908	1.363809	0.466705
N	-0.529786	2.440565	0.904733
N	-0.476424	-1.052413	0.831341
H	-1.501106	-1.004645	0.783677
H	-0.206213	-0.857653	1.789997
C	-0.798985	0.911698	-2.228914
N	-1.062885	1.869803	-2.854034
N	-1.301495	-1.383252	-1.789131
H	-0.981707	-2.192529	-1.269092
H	-2.22051	-1.123519	-1.425595
Cl	-3.495556	0.0	0.0
