15

C	0.0	0.0	0.0
C	-0.441118	0.216595	-1.470706
F	1.378656	0.0	0.0
H	-1.537455	0.155331	-1.451652
C	-0.396043	1.193807	0.786776
N	-0.558316	2.191018	1.383963
N	-0.470278	-1.184397	0.632313
H	-0.263218	-1.978184	0.032937
H	-1.488821	-1.091541	0.704174
C	0.087973	-0.905667	-2.258648
N	0.525864	-1.815519	-2.858112
N	-0.033262	1.479253	-2.064278
H	0.916636	1.697397	-1.784472
H	-0.645438	2.206389	-1.714949
Cl	-3.442856	0.0	0.0
