15

C	0.0	0.0	0.0
C	-0.372711	-0.103068	-1.538569
F	1.377134	0.0	0.0
H	0.586805	-0.305579	-2.026111
C	-0.384804	1.301638	0.591463
N	-0.547726	2.356198	1.080563
N	-0.482768	-1.057701	0.810961
H	-0.50914	-1.892739	0.231235
H	-1.457896	-0.84707	1.034476
C	-0.837135	1.177846	-2.108222
N	-1.153001	2.1537	-2.68306
N	-1.241023	-1.239595	-1.776859
H	-2.159595	-1.022422	-1.36998
H	-1.355633	-1.36406	-2.775641
Cl	-3.532575	0.0	0.0
