15

C	0.0	0.0	0.0
C	-0.491143	-0.494914	-1.358655
F	1.382185	0.0	0.0
H	-1.58803	-0.430761	-1.307552
C	-0.342559	1.443988	0.162206
N	-0.501297	2.582573	0.402172
N	-0.484382	-0.847262	1.032948
H	-1.508626	-0.839102	0.959786
H	-0.235905	-0.452838	1.9336
C	-0.089845	-1.902062	-1.540075
N	0.262588	-2.991483	-1.803762
N	0.007661	0.378538	-2.40826
H	-0.550839	0.262471	-3.243142
H	0.970061	0.152321	-2.625135
Cl	-3.501988	0.0	0.0
