15

C	0.0	0.0	0.0
C	-0.354089	-0.125148	-1.541141
F	1.365299	0.0	0.0
H	0.564885	-0.591147	-1.915957
C	-0.371795	1.29371	0.629133
N	-0.56396	2.290821	1.220541
N	-0.508559	-1.145067	0.678855
H	-1.531345	-1.082743	0.619375
H	-0.263141	-1.081694	1.661812
C	-0.409134	1.204666	-2.165638
N	-0.404201	2.25526	-2.68999
N	-1.455948	-0.939437	-1.975245
H	-1.295176	-1.881918	-1.63982
H	-2.326908	-0.608458	-1.551329
Cl	-3.679755	0.0	0.0
