15

C	0.0	0.0	0.0
C	-0.461788	0.019808	-1.481018
F	1.359811	0.0	0.0
H	0.40476	0.41033	-2.029483
N	-0.265412	1.428276	0.590113
O	-0.087339	2.380824	-0.165592
O	-0.503202	1.500151	1.789171
N	-0.519865	-1.027685	0.747849
H	-0.252849	-0.896462	1.71651
H	-1.570749	-0.845584	0.611155
C	-1.597609	0.865398	-1.880027
N	-2.290667	1.55768	-2.531305
C	-0.685255	-1.350563	-1.953664
N	-0.813031	-2.419298	-2.421131
F	-2.617703	0.0	0.0
