15

C	0.0	0.0	0.0
C	-0.377453	-0.141191	-1.492283
F	1.387711	0.0	0.0
H	0.386965	0.442718	-2.015365
N	-0.291166	1.469682	0.423702
O	-0.436659	1.672013	1.622787
O	-0.245442	2.329946	-0.450648
N	-0.52068	-0.957915	0.832618
H	-0.268824	-0.737837	1.788615
H	-1.568244	-0.786703	0.679413
C	-1.662943	0.360852	-2.004464
N	-2.409356	0.768362	-2.81972
C	-0.193502	-1.539938	-1.892043
N	-0.041302	-2.636809	-2.280964
F	-2.617386	0.0	0.0
