15

C	0.0	0.0	0.0
C	-0.638739	0.060171	-1.379677
F	1.350258	0.0	0.0
H	-1.769199	0.177365	-1.024871
N	-0.295874	1.361298	0.735337
O	-0.733527	2.317478	0.109522
O	-0.015467	1.358633	1.93298
N	-0.503807	-1.0811	0.719869
H	-1.533756	-0.959402	0.664278
H	-0.182647	-1.008836	1.678097
C	-0.490836	-1.223393	-2.05227
N	-0.399166	-2.24011	-2.634099
C	-0.127497	1.115646	-2.238485
N	0.278587	1.91792	-2.995469
F	-2.781242	0.0	0.0
