13

C	-0.580458	0.055726	-1.400092
C	0.0	0.0	0.0
Br	0.010132	1.597304	-2.392212
H	1.095696	0.0	0.0
H	-1.666882	0.099896	-1.354327
H	-0.355469	-0.939159	0.433754
N	-0.268913	-1.229321	-2.139007
O	0.538298	-1.253613	-3.054248
O	-0.89859	-2.194898	-1.703446
N	-0.567606	1.116995	0.76946
H	0.025864	1.9236	0.604857
H	-0.452018	0.893338	1.751034
Br	3.630516	0.0	0.0
