13

C	-0.473175	0.007028	-1.433289
C	0.0	0.0	0.0
Br	-0.148039	-1.671201	-2.341899
H	1.092435	0.0	0.0
H	-0.004961	0.798465	-2.014362
H	-0.366951	-0.895441	0.507466
N	-1.95594	0.267612	-1.501612
O	-2.36242	0.949064	-2.440494
O	-2.661778	-0.224715	-0.625464
N	-0.460697	1.256135	0.593124
H	0.300905	1.663159	1.12286
H	-1.242816	1.094678	1.213949
Br	3.575068	0.0	0.0
