13

C	-0.454366	-0.032178	-1.438359
C	0.0	0.0	0.0
Br	-2.397708	0.039568	-1.608192
H	1.097562	0.0	0.0
H	-0.13308	-0.934495	-1.949921
H	-0.347053	0.924408	0.467876
N	0.092402	1.122745	-2.220836
O	-0.005298	2.23784	-1.719866
O	0.586641	0.862449	-3.314997
N	-0.46543	-1.217895	0.663417
H	-1.128444	-0.996731	1.393399
H	0.33625	-1.668848	1.0895
Br	3.566161	0.0	0.0
