16

C	0.0	0.0	0.0
C	-0.543001	0.140129	-1.418591
Cl	1.783532	0.0	0.0
H	-1.632934	0.260182	-1.20079
H	-0.268656	0.916139	0.529063
N	-0.557733	-1.193823	0.571114
H	-0.335102	-1.191945	1.561623
H	-1.583428	-0.965433	0.47904
C	-0.253292	-1.035123	-2.317952
H	0.817377	-1.160719	-2.488378
H	-0.642347	-1.923459	-1.822626
H	-0.746247	-0.911686	-3.282717
N	-0.05776	1.420706	-2.00603
O	-0.160959	2.436087	-1.316922
O	0.392884	1.418369	-3.15503
F	-2.830573	0.0	0.0
