16

C	0.0	0.0	0.0
C	-0.187368	0.063226	-1.569657
Cl	1.844449	0.0	0.0
H	0.481937	0.84414	-1.931657
H	-0.287779	0.985907	0.367527
N	-0.640595	-0.979585	0.763879
H	-1.663606	-0.674131	0.663362
H	-0.539333	-1.874446	0.301638
C	-1.560831	0.26721	-2.180843
H	-1.478974	0.138072	-3.266834
H	-1.884803	1.286173	-1.965944
H	-2.310826	-0.358409	-1.702357
N	0.383823	-1.169211	-2.207323
O	1.165136	-1.017031	-3.145937
O	-0.000842	-2.266866	-1.803382
F	-2.929467	0.0	0.0
