16

C	0.0	0.0	0.0
C	-0.412416	0.383571	-1.454245
Cl	1.839564	0.0	0.0
H	0.49157	0.402924	-2.066221
H	-0.226472	0.87531	0.615611
N	-0.53787	-1.213659	0.493559
H	-0.353997	-1.232553	1.492147
H	-1.569943	-0.989598	0.368241
C	-1.112651	1.725651	-1.486165
H	-2.032314	1.588042	-0.913336
H	-1.329134	2.03267	-2.50988
H	-0.458192	2.473491	-1.025175
N	-1.223265	-0.663573	-2.172683
O	-2.207071	-0.308547	-2.814403
O	-0.758552	-1.801353	-2.182037
F	-2.722543	0.0	0.0
