16

C	0.0	0.0	0.0
C	-0.522407	0.123736	-1.432337
Cl	1.779189	0.0	0.0
H	-1.605253	0.286604	-1.243403
H	-0.272043	0.927695	0.509409
N	-0.567576	-1.181636	0.57896
H	-0.357428	-1.168754	1.571957
H	-1.594248	-0.946361	0.471883
C	-0.257669	-1.081775	-2.298031
H	-0.648591	-0.924739	-3.304737
H	-0.768725	-1.9264	-1.838919
H	0.806968	-1.305847	-2.370762
N	0.033015	1.370156	-2.032147
O	-0.162678	2.420784	-1.418902
O	0.653532	1.304587	-3.096069
F	-2.824141	0.0	0.0
