16

C	0.0	0.0	0.0
C	-0.522965	0.065292	-1.444119
Cl	1.789614	0.0	0.0
H	-1.607148	0.223192	-1.237989
H	-0.293483	0.936865	0.468475
N	-0.55178	-1.06712	0.771996
H	-1.578021	-0.848437	0.674382
H	-0.358608	-1.950114	0.310576
C	-0.271703	-1.164233	-2.281555
H	-0.651883	-1.021069	-3.293132
H	0.790353	-1.4107	-2.346301
H	-0.816835	-1.997502	-1.835874
N	0.006963	1.290438	-2.102341
O	0.573965	1.194331	-3.195346
O	-0.156665	2.358042	-1.509711
F	-2.811432	0.0	0.0
