16

C	0.0	0.0	0.0
C	-0.412696	0.346578	-1.458962
Cl	1.83899	0.0	0.0
H	0.456723	0.193796	-2.109042
H	-0.245318	0.870442	0.610683
N	-0.486245	-1.229937	0.519288
H	-1.518568	-1.047031	0.401705
H	-0.290739	-1.220966	1.516237
C	-0.918933	1.773891	-1.51225
H	-1.067193	2.119805	-2.535145
H	-0.195333	2.42805	-1.019158
H	-1.860898	1.755913	-0.967541
N	-1.414509	-0.578073	-2.111588
O	-2.279016	-0.070784	-2.819986
O	-1.190035	-1.782429	-2.047899
F	-2.651284	0.0	0.0
