16

C	0.0	0.0	0.0
C	-0.433709	0.523113	-1.406116
Cl	1.78653	0.0	0.0
H	0.450502	0.530295	-2.050995
H	-0.26391	0.796459	0.701824
N	-0.519401	-1.275471	0.373405
H	-0.317423	-1.386603	1.363005
H	-1.549304	-1.057983	0.289894
C	-1.035579	1.907621	-1.279774
H	-0.331807	2.551388	-0.741951
H	-1.95879	1.761787	-0.714501
H	-1.240652	2.348302	-2.255353
N	-1.352068	-0.377365	-2.194269
O	-2.267199	0.143787	-2.82379
O	-1.025449	-1.556731	-2.294169
F	-2.701535	0.0	0.0
