19

C	0.0	0.0	0.0
C	-0.586111	0.047439	-1.402194
Cl	1.83218	0.0	0.0
H	-1.603327	0.423157	-1.226933
N	-0.290708	1.305323	0.779063
O	-0.613718	2.301207	0.149038
O	-0.137119	1.245587	1.993458
N	-0.518445	-1.013978	0.787658
H	-0.195363	-0.995033	1.741643
H	-0.515095	-1.926113	0.367294
C	-0.729417	-1.361673	-1.974514
H	0.214726	-1.918149	-1.933823
H	-1.02669	-1.289728	-3.023453
H	-1.52209	-1.903232	-1.456178
C	0.173304	0.94124	-2.378574
H	1.098924	0.46361	-2.711279
H	-0.458917	1.108313	-3.255086
H	0.414681	1.91113	-1.949169
Cl	-3.87475	0.0	0.0
