10
Coordinates from ORCA-job run
  C   -0.17047095573640     -0.09672830764905     -0.38786926214303
  C   0.90042137048546      0.40276487799550      0.25383887440633
  H   -0.14742724549725     -0.15121414718875     -1.47504314820191
  H   0.92088159209982      0.47587586463311      1.33804676594735
  C   -1.40164063082133     -0.58584737140515      0.30315333325075
  H   -1.58508494613179     -1.63740598138574      0.06473961070665
  H   -2.27943543680396     -0.02555365764192     -0.03137201467264
  H   -1.31951214894938     -0.48610567245105      1.38682951898155
  C   2.06157069325354      0.86163840060681     -0.44408064064057
  N   3.02069770810129      1.24157599448624     -1.00824303763447
