10
Coordinates from ORCA-job run
  C   -0.17869166345040     -0.27917110117205     -0.73227374989297
  C   1.12212377584145      0.00323585526644     -0.53111518601372
  H   -0.45695541783262     -0.65933742850706     -1.71327472531356
  H   1.85319046204225     -0.14535099597158     -1.31936890841603
  C   -1.27215340782038     -0.11677568570115      0.27248984820528
  H   -0.89779407663489      0.26785530128309      1.22198431461157
  H   -2.03657935871218      0.56881368910137     -0.10431402376895
  H   -1.76596799468660     -1.07543738034774      0.45529126615371
  C   1.61383914125669      0.50914240394847      0.71414100396976
  N   2.01998853999668      0.92502534210022      1.73644016046491
