13

C	0.0	0.0	0.0
C	-0.510141	0.382476	-1.371158
F	1.368296	0.0	0.0
H	-1.613039	0.349822	-1.32082
H	-0.186415	1.404058	-1.577277
N	-0.37083	1.068097	1.034544
O	-0.444041	0.694789	2.196823
O	-0.423391	2.220596	0.625824
C	-0.437813	-1.317731	0.469509
N	-0.57414	-2.43363	0.811683
C	0.013342	-0.524316	-2.383237
N	0.43048	-1.231869	-3.222231
Br	-3.510326	0.0	0.0
