13

C	0.0	0.0	0.0
C	-0.509549	-0.264688	-1.400502
F	1.358116	0.0	0.0
H	-1.612036	-0.282477	-1.347562
H	-0.190473	0.56408	-2.035635
N	-0.37732	1.411866	0.459093
O	-0.462952	1.583742	1.666964
O	-0.42191	2.269598	-0.412933
C	-0.43874	-0.97999	0.99998
N	-0.561227	-1.838039	1.79344
C	0.029748	-1.519624	-1.905891
N	0.462087	-2.522683	-2.336698
Br	-3.506788	0.0	0.0
