13

C	0.0	0.0	0.0
C	-0.530459	0.021137	-1.42315
F	1.345712	0.0	0.0
H	-1.593063	0.306063	-1.37406
H	-0.495001	-1.001761	-1.808991
N	-0.370105	1.281104	0.75464
O	-0.574598	2.27615	0.074653
O	-0.295541	1.217662	1.975131
C	-0.453712	-1.164147	0.770218
N	-0.620748	-2.154328	1.379999
C	0.255093	0.888157	-2.292759
N	0.868497	1.558608	-3.035616
Br	-3.507886	0.0	0.0
