13

C	0.0	0.0	0.0
C	-0.606391	0.131081	-1.370501
F	1.386405	0.0	0.0
H	-1.688712	0.315382	-1.097025
H	-0.336572	0.82773	0.623036
H	-0.359318	-0.934539	0.432497
N	-0.526209	-1.001305	-2.238531
H	-1.319971	-1.592876	-2.021404
H	0.33206	-1.518792	-2.098376
N	-0.047632	1.356989	-2.021631
O	0.43888	1.289925	-3.150131
O	-0.12168	2.398351	-1.362114
H	-2.985936	0.0	0.0
