13

C	0.0	0.0	0.0
C	-0.380674	0.026639	-1.469778
F	1.381793	0.0	0.0
H	0.317096	0.697224	-1.986943
H	-0.368338	0.898547	0.49502
H	-0.373396	-0.891994	0.496793
N	-1.715586	0.314216	-1.714235
H	-2.465696	0.065195	-0.986038
H	-2.025557	0.181669	-2.671182
N	0.110875	-1.349304	-2.053722
O	-0.183038	-2.390281	-1.472133
O	0.714879	-1.295925	-3.13059
H	-3.568317	0.0	0.0
