16

C	0.0	0.0	0.0
C	-0.281416	0.034885	-1.542141
F	1.389167	0.0	0.0
H	-0.035248	-0.991059	-1.854711
H	-0.292831	0.958529	0.458056
N	-0.592613	-1.13966	0.617983
H	-0.475867	-1.047871	1.623477
H	-1.606464	-0.960581	0.443186
C	0.694969	0.99071	-2.235209
H	0.561238	2.00335	-1.831783
H	1.743158	0.715942	-2.119555
H	0.437893	1.018471	-3.297838
N	-1.60696	0.366672	-2.034706
H	-1.662964	1.382523	-2.049863
H	-2.321296	0.10103	-1.319159
F	-3.086824	0.0	0.0
