16

C	0.0	0.0	0.0
C	-0.224644	0.353396	-1.51525
F	1.393971	0.0	0.0
H	0.495397	-0.310071	-2.020609
H	-0.344023	0.807427	0.650444
N	-0.57677	-1.215395	0.459994
H	-1.590015	-0.959729	0.464285
H	-0.461263	-1.91101	-0.272493
C	0.218105	1.793734	-1.771809
H	1.227095	1.982788	-1.394618
H	-0.479036	2.484647	-1.285916
H	0.187832	1.995193	-2.845289
N	-1.534245	0.139257	-2.112722
H	-1.612114	-0.843885	-2.348785
H	-2.243651	0.263895	-1.354745
F	-2.979036	0.0	0.0
