16

C	0.0	0.0	0.0
C	-0.175442	0.035733	-1.556161
F	1.413407	0.0	0.0
H	0.546171	0.803751	-1.885196
H	-0.321739	0.94352	0.445082
N	-0.603768	-1.071223	0.689421
H	-0.531863	-1.880568	0.078093
H	-1.616199	-0.776019	0.640509
C	-1.523005	0.383631	-2.155059
H	-1.464035	0.257127	-3.246943
H	-1.763372	1.429048	-1.945604
H	-2.32592	-0.184996	-1.683398
N	0.24253	-1.298035	-2.031678
H	1.231749	-1.406524	-1.839827
H	0.11647	-1.338408	-3.036206
F	-2.979083	0.0	0.0
