16

C	0.0	0.0	0.0
C	-0.452054	0.221393	-1.434392
F	1.39932	0.0	0.0
H	-1.535867	0.34924	-1.330673
H	-0.273693	0.898279	0.568122
N	-0.562187	-1.202464	0.521606
H	-1.588273	-0.96777	0.38934
H	-0.40132	-1.207066	1.52468
C	-0.129571	-0.987898	-2.308396
H	-0.625935	-1.879249	-1.924572
H	-0.461182	-0.810342	-3.338254
H	0.950378	-1.175464	-2.320447
N	0.156307	1.47119	-1.915443
H	1.155772	1.315757	-2.009774
H	-0.203717	1.662176	-2.844391
F	-2.857984	0.0	0.0
