16

C	0.0	0.0	0.0
C	-0.174375	0.035077	-1.556675
F	1.413416	0.0	0.0
H	0.545662	0.804664	-1.885479
H	-0.322017	0.94367	0.44441
N	-0.604128	-1.07114	0.68888
H	-1.616554	-0.775211	0.641188
H	-0.532887	-1.880173	0.077094
C	-1.522951	0.379023	-2.155561
H	-1.76453	1.424761	-1.949504
H	-1.466269	0.249012	-3.247217
H	-2.325018	-0.188603	-1.681237
N	0.246814	-1.298172	-2.031424
H	0.125155	-1.337139	-3.03646
H	1.235429	-1.405171	-1.835655
F	-2.979981	0.0	0.0
