16
Coordinates from ORCA-job run
  C   0.88847111057418      0.24687575229627      0.39302721644784
  C   -0.35367406807101      0.32784815558509     -0.47930471433717
  Br  2.17540080119571      1.59048056760924     -0.21671510650265
  H   -0.08590313767166      0.24863382347897     -1.53444528521240
  H   0.62696037929597      0.54733038344960      1.40878128085623
  C   1.53910642945462     -1.12430181185910      0.36722283039346
  H   0.88046841007231     -1.86642039045821      0.82459059488831
  H   2.47228679869543     -1.10957896174371      0.93073267969851
  H   1.76422784280311     -1.43122488801986     -0.65678790465761
  N   -0.96895304179738      1.69129141591958     -0.34128611327852
  O   -1.20940512140921      2.07405239688300      0.80123881005122
  O   -1.22483265810689      2.30199818215060     -1.37492018009187
  C   -1.42287094115803     -0.68637908461914     -0.09619177717571
  H   -2.34092372117828     -0.48227422874735     -0.65151300020666
  H   -1.09826398284911     -1.69672079886523     -0.34526726578717
  H   -1.64109509984974     -0.62961051305976      0.97183793491421
