16
Coordinates from ORCA-job run
  C   0.68522998993353     -0.86203369198952     -0.10166500031983
  C   -0.67747964250745     -0.25525460593673     -0.45606984501677
  Br  0.38466832049856     -2.51477919837428      0.89985198939769
  H   -1.24778672818885     -0.99752144305161     -1.01838020073097
  H   1.15503507614301     -1.18956092454686     -1.03016639629546
  C   1.60333183970505      0.06173199594173      0.67502754534891
  H   2.57741586703179     -0.40878224044361      0.81385105197342
  H   1.19655024216584      0.29485678226795      1.65937666224595
  H   1.74893838270641      0.99668724183988      0.12649813743268
  N   -0.37717577171013      0.82037054612692     -1.47625432221060
  O   -0.44262721024778      1.99718675767625     -1.12848011436741
  O   -0.04210810491927      0.42354741770669     -2.59091653615019
  C   -1.48273394816148      0.30634012304309      0.69362290286673
  H   -1.70302614132426     -0.49150367419350      1.40359546563894
  H   -0.95192784886748      1.10788919267319      1.20361227542742
  H   -2.42630432225748      0.71182572126043      0.32549638475949
