16
Coordinates from ORCA-job run
  C   0.77075706661628     -0.71744455529199     -0.33725703720585
  C   -0.63993764828322     -0.15495561196891     -0.54614189464792
  Br  0.62159756573495     -2.62493732772911      0.06933564832021
  H   -1.12226325149176     -0.72452876912408     -1.34321838797053
  H   1.28766665640099     -0.68498339620371     -1.29740533346451
  C   1.57738436683740     -0.01426344104551      0.73717448463241
  H   1.13268658297509     -0.14826393690209      1.72358021587734
  H   2.59151703216034     -0.41454598379332      0.76558355122737
  H   1.63711903770165      1.05656022560076      0.52278577218779
  N   -0.43241033940033      1.21493921929721     -1.15369751060115
  O   -0.04107564862704      1.23100739011535     -2.31930894802545
  O   -0.62149091116040      2.20547843338809     -0.45145429552945
  C   -1.51843716208475     -0.06907427424566      0.68116849655507
  H   -1.67190167309722     -1.07020016770595      1.08535702100103
  H   -1.07980544863431      0.56683144007265      1.44769377758814
  H   -2.49040622564766      0.34938075553625      0.41580444005547
