16

C	0.0	0.0	0.0
C	-0.563591	0.366014	-1.361181
Br	1.947285	0.0	0.0
H	-0.332111	1.427333	-1.495585
H	-1.653246	0.271172	-1.243738
C	-0.528146	0.912719	1.083296
H	-0.137355	0.620839	2.056167
H	-1.621636	0.838898	1.077806
H	-0.226916	1.938855	0.863141
N	-0.376424	-1.437718	0.370024
O	-0.218425	-1.77167	1.538612
O	-0.784923	-2.171015	-0.524875
N	0.001108	-0.373811	-2.485321
H	-0.494039	-1.252545	-2.55931
H	-0.181307	0.153098	-3.330247
Br	-3.998444	0.0	0.0
