17
Coordinates from ORCA-job run
  C   0.70022714950330      0.17647839508376     -0.36802791202819
  C   -0.79254646290770      0.33923241264189     -0.01195636528547
  H   0.82029661164805      0.52562001255067     -1.39959876640706
  H   -1.06924701981175      1.39508024317197     -0.01137793632168
  N   1.18622145805213     -1.19143031375117     -0.30454575085947
  H   0.62285715161802     -1.82547067669169     -0.85812589855304
  H   1.20684124043994     -1.51866277013456      0.65353623257299
  C   1.53616479444719      1.05164645339320      0.55284608520970
  H   1.38272538630083      0.75945367232971      1.59378447668274
  H   2.59125909107532      0.93513515761393      0.30167167643360
  H   1.26383746722502      2.10453481194429      0.44990996362886
  N   -1.11772533874617     -0.27465286610195      1.22588159035592
  H   -1.05809770708344     -1.28079719306141      1.13893310077044
  H   -2.05641232170639     -0.03818478173951      1.51898407178332
  N   -1.56997559201661     -0.23777167325195     -1.19525644879844
  O   -1.92170685436201     -1.41615278026333     -1.12069994510205
  O   -1.72671905367573      0.49594189626614     -2.16695817408216
