17
Coordinates from ORCA-job run
  C   0.57880496587206      0.37257733225410      0.00614060417017
  C   -0.80100665590870     -0.26474227584962     -0.20601904898945
  H   0.43090171035359      1.20888430729227      0.70103487023914
  H   -0.71600910039320     -1.30608976061383     -0.52897199076626
  N   1.02966047198115      0.95239269226002     -1.25646598373140
  H   2.00710371396399      1.20789189928185     -1.17625794972321
  H   0.94193401124779      0.27837116016750     -2.00803176035502
  C   1.54651368259383     -0.62922387632705      0.63385653587405
  H   1.72131158536535     -1.46331296544057     -0.05208558130434
  H   1.17530532449503     -1.03376526125141      1.57803975439194
  H   2.50667667880067     -0.14513898318078      0.83114832714464
  N   -1.60597223748367      0.47338367365918     -1.10502413637387
  H   -2.56582401997948      0.15613367110213     -1.11432072018635
  H   -1.56271529680002      1.46563183103555     -0.92021334624203
  N   -1.41397187435888     -0.39425109069940      1.19671099654145
  O   -1.36945421757933     -1.49962041464457      1.73474256055386
  O   -1.90125874217018      0.62287806095466      1.68371686875670
