14

C	-0.51008	0.00917	-1.432209
C	0.0	0.0	0.0
Br	0.19133	-1.516777	-2.393274
H	1.093646	0.0	0.0
H	-0.327292	0.938392	0.462825
N	-1.938409	0.054549	-1.664251
H	-2.328049	-0.834017	-1.370937
H	-2.314773	0.779932	-1.061119
N	0.012343	1.311282	-2.058933
O	0.825989	1.299809	-2.965245
O	-0.496298	2.315136	-1.559187
C	-0.585425	-1.107306	0.722028
N	-1.081074	-2.004452	1.299868
F	2.51516	0.0	0.0
