14

C	-0.076187	0.307061	-1.485394
C	0.0	0.0	0.0
Br	-1.853471	0.94503	-2.152681
H	1.105702	0.0	0.0
H	-0.440264	-0.961896	0.246909
N	0.938092	1.187422	-1.826127
H	1.0896	1.231796	-2.824166
H	1.791241	0.905398	-1.290403
N	0.036692	-1.069933	-2.255213
O	0.659531	-1.041961	-3.310783
O	-0.506195	-2.060005	-1.779676
C	-0.521399	1.064529	0.826264
N	-0.939899	1.901138	1.537811
F	2.614225	0.0	0.0
