14

C	-0.38751	0.245012	-1.4125
C	0.0	0.0	0.0
Br	-2.528965	0.001444	-1.625847
H	1.099831	0.0	0.0
H	-0.348023	-0.975596	0.33319
N	0.038531	1.428286	-1.936961
H	-0.249113	1.624122	-2.881495
H	0.010476	2.206639	-1.297372
N	0.037257	-0.898476	-2.326641
O	0.158209	-2.00668	-1.827845
O	0.196801	-0.616914	-3.509935
C	-0.491703	1.059469	0.849007
N	-0.841556	1.959194	1.521773
F	2.482797	0.0	0.0
