14

C	-0.120675	0.093642	-1.507779
C	0.0	0.0	0.0
Br	-1.918638	0.755828	-2.118356
H	1.089955	0.0	0.0
H	-0.285879	0.98441	0.378737
N	0.912799	0.916866	-1.948995
H	1.7725	0.678611	-1.395566
H	1.042076	0.862055	-2.949694
N	-0.057693	-1.299646	-2.209327
O	-0.21284	-2.312599	-1.536081
O	0.176165	-1.271968	-3.415566
C	-0.714614	-1.011973	0.737296
N	-1.312778	-1.744728	1.434529
F	2.621293	0.0	0.0
