15
Coordinates from ORCA-job run
  C   -0.72054304968619     -0.31302087426075      0.10102090635009
  C   0.79206244870106     -0.53801147852160      0.00237352818631
  Br  -1.53456450991944     -2.03961249679930      0.45847016021788
  H   1.14878500626311     -1.06528179253426      0.88722872226518
  N   -0.95952229136642      0.50987471982284      1.41130177184962
  O   -1.93483242121811      1.24428153862793      1.40484910009534
  O   -0.16758718290991      0.33509530537864      2.32904939692449
  N   -1.28877023482564      0.24926551736761     -1.04435633609811
  H   -0.91690631146996      1.17775878241862     -1.20683585521986
  H   -2.29816765652972      0.27901977706571     -0.98860644602700
  N   1.56350452532811      0.77748701980808      0.01022878996950
  O   0.93133022379003      1.81109201636582     -0.18359647365100
  O   2.76336911366000      0.67499138501945      0.20718056028641
  C   1.14926433105068     -1.25971824646624     -1.21064497829099
  N   1.47257800913240     -1.84422117329254     -2.17666284685785
