15
Coordinates from ORCA-job run
  C   -0.77306283763207     -0.15769349892882      0.06769939838589
  C   0.66650090896719     -0.68310551324717      0.09181279186609
  Br  -1.93779531255888     -1.66019560366188      0.46441732160573
  H   0.85650616358838     -1.20526685646241      1.02950993200435
  N   -0.91754997863982      0.78746120623720      1.30745889830247
  O   -1.70589846626959      1.71096442018469      1.18138884706271
  O   -0.24726270901096      0.51309377681829      2.29493443851476
  N   -1.14696259405811      0.42257796519422     -1.14652053479375
  H   -2.13204143555612      0.65072028172964     -1.16829850212800
  H   -0.58982406419881      1.24823086747471     -1.33290337166892
  N   1.68468387154037      0.45225431499774      0.07794899659249
  O   1.28263673684521      1.57589208857949     -0.20779397825778
  O   2.82830390191905      0.12785956830258      0.35340143066864
  C   0.94084785204132     -1.54372858049818     -1.05004595938822
  N   1.19091796302286     -2.23906443672009     -1.96300970876646
