15
Coordinates from ORCA-job run
  C   -0.54737247853373      0.08966385407734      0.43991339501304
  C   0.74737616959810     -0.03657186689850     -0.38859204628813
  Br  -0.21536659777039      0.40223813791860      2.30116384526409
  H   0.46086802508375     -0.08837493891366     -1.44221026801463
  N   -1.21880687400026      1.38485238187538     -0.18462885081190
  O   -1.28912723044874      2.42096754566005      0.45236632737100
  O   -1.61992062967944      1.18951700038315     -1.32987844647235
  N   -1.33682654631746     -1.05814479585497      0.27067590374525
  H   -1.56120552013626     -1.22707065434518     -0.70283001747371
  H   -2.17032652325515     -1.04535206925957      0.84338118891636
  N   1.40722828722682     -1.36474452427197     -0.08985552510143
  O   1.11265335377170     -2.27273260423416     -0.85839516182467
  O   2.14632427527614     -1.42002498234462      0.88291799220882
  C   1.67057989944079      1.06308884229191     -0.16545556150611
  N   2.41192238974411      1.96368867391619     -0.02757277502562
