15
Coordinates from ORCA-job run
  C   0.74795014613454      0.07194901302615      0.06136700317733
  C   -0.61424226314469      0.18240445603945      0.02631207951283
  N   1.51980715039106      1.13143895361313      0.59188585116425
  H   2.17823538364194      0.76781691630567      1.27140858336412
  H   2.07326863948054      1.56920442662192     -0.13731230091832
  N   1.44952968164658     -1.10574415153308     -0.40052231234913
  O   2.67087863813211     -1.12541856811556     -0.20480842954627
  O   0.82483497400046     -2.01922224623141     -0.94786310289954
  N   -1.16303121939934      1.37247444258285      0.41808919245766
  H   -0.52197394040686      1.97949948838295      0.91077132853674
  H   -2.11197154316181      1.34982826055027      0.75156820123857
  C   -1.58144005981889     -0.84499422492426     -0.48184930490475
  H   -1.43971212421117     -1.01026652298494     -1.54996269976938
  H   -1.42613206954888     -1.80835077497509      0.00142008347649
  H   -2.60700139373557     -0.51061946835806     -0.31150417254061
