15
Coordinates from ORCA-job run
  C   0.76502208737895      0.04833411676325     -0.02068228715342
  C   -0.58013050374528      0.02799529781527      0.21429460145020
  N   1.65005014725377      0.15412135662807      1.07573776280720
  H   2.43441915768854     -0.47438591402446      0.95198409136122
  H   2.02377759183027      1.09355044726866      1.16049225985086
  N   1.35746542600838     -0.14756415045574     -1.33091324643126
  O   2.59271424266309     -0.19915661114216     -1.36386178994514
  O   0.63920330408901     -0.31610125576572     -2.31890300646130
  N   -0.99705339420909      0.17906721571012      1.51579785313831
  H   -0.27002510004378      0.00931911301497      2.19815361620466
  H   -1.90545091265986     -0.20180438040082      1.72725447916414
  C   -1.70724163381526     -0.02531165690085     -0.77707014174664
  H   -2.51029159474341      0.62393528974671     -0.42236922779316
  H   -2.09545463773070     -1.04737732995982     -0.83907532092059
  H   -1.39700417996463      0.27337846170252     -1.77083964352509
