15
Coordinates from ORCA-job run
  C   0.73829360720558      0.05122812330127     -0.16099946662764
  C   -0.55530329046841     -0.25934130519078      0.16115026848574
  N   1.08380553597403      1.13386180073007     -0.99482056993263
  H   2.08700952001027      1.26473281007680     -0.96956146953990
  H   0.61953379384170      1.98782753086759     -0.71691027732292
  N   1.84778260663014     -0.74724288088840      0.26480712667275
  O   1.63587376496116     -1.81654390618299      0.86180131294884
  O   2.98563899319308     -0.32765418370061      0.01043142092256
  N   -0.98263401535637     -1.38729163593774      0.81137437019933
  H   -0.26089982973080     -1.93950956958281      1.24979244701201
  H   -1.84975933524523     -1.29969710703681      1.31561904624376
  C   -1.62968129933592      0.65690508103227     -0.35239823620261
  H   -1.49106730353535      1.68536897203419     -0.00687338163984
  H   -1.61256949425308      0.67371133331301     -1.44578301502014
  H   -2.61702325389080      0.32464493716495     -0.02862957619932
