15
Coordinates from ORCA-job run
  C   0.75299555870254      0.08130951635440      0.05502219946422
  C   -0.61557056829075      0.13659500660995      0.10531829296413
  N   1.50920500161779      1.15927388439098      0.57557081372951
  H   2.14419983528224      0.83007889920142      1.29496956443641
  H   2.09825900770676      1.53926849260871     -0.15877613335119
  N   1.46801469314404     -1.01013083583495     -0.55985155628793
  O   0.84788301778132     -1.96314228617302     -1.04388304720710
  O   2.70010609699373     -0.89697035890439     -0.60647154852764
  N   -1.17670499755541      1.21721602437546      0.69681687845241
  H   -2.17051989888866      1.34393475711678      0.71397124110967
  H   -0.56405067889186      1.95421203375969      1.00741622420579
  C   -1.57097950927300     -0.89685961018113     -0.41649356000994
  H   -1.43737238785844     -1.03360792640480     -1.48937130882750
  H   -2.60130411156510     -0.59540403746062     -0.21646507985209
  H   -1.38416105890521     -1.86577355945848      0.04322701970124
