15
Coordinates from ORCA-job run
  C   0.73076884502852      0.16041090954608     -0.02962013687348
  C   -0.55231191237985     -0.25954802083787      0.20401731295286
  N   1.00896760993384      1.37959250812369     -0.68245561871343
  H   2.01262303725702      1.50624714779469     -0.72394327947606
  H   0.63008205631168      1.39693561918468     -1.62054834531300
  N   1.87432621523214     -0.55508866786706      0.45297036809166
  O   2.99320584970622     -0.11792938003346      0.15072158473660
  O   1.70745703337129     -1.57581107887990      1.14210801027067
  N   -0.93271005410590     -1.34754566863920      0.93676388479964
  H   -1.82778974993446     -1.74697679144420      0.70810740897343
  H   -0.19580998852366     -1.98941639256140      1.18656502966153
  C   -1.65299079172143      0.61212807758269     -0.32865333260436
  H   -1.53224298854894      1.62790251150367      0.05602316916599
  H   -1.63002384647510      0.67597973105579     -1.42050296562497
  H   -2.63255131515136      0.23511949547180     -0.03055309004708
