15
Coordinates from ORCA-job run
  C   0.76785054611069      0.00213917937127     -0.16149090344166
  C   -0.53369559897302     -0.20136806884188      0.20812036779660
  N   1.21025990911433      1.01381694065496     -1.03519200350917
  H   0.51420524819162      1.73185536343517     -1.16801202937896
  H   2.08288607555745      1.41666730731491     -0.71861148276001
  N   1.82148603736024     -0.89303621006001      0.21785269205588
  O   1.54356119342439     -1.95576154596323      0.79912644339064
  O   2.97694479824342     -0.54663127695980     -0.05378247781944
  N   -0.99793592142486     -1.23127549872405      0.98587393122005
  H   -0.37350141090368     -2.01454273107646      1.09692502969153
  H   -1.97823694259578     -1.44067020276202      0.90436688207291
  C   -1.55769417512132      0.82609007049200     -0.19414062929065
  H   -1.24193442629784      1.83081301170274      0.09938211137918
  H   -1.72039536468776      0.82792893013043     -1.27637877402031
  H   -2.51379996799788      0.63297473128595      0.29396084261341
