15
Coordinates from ORCA-job run
  C   0.79323538060464      0.10930882155835     -0.14859597842061
  C   -0.49186694570993     -0.03261526188820      0.27442703633680
  N   1.82000052333909      0.67736975994293      0.60274565884602
  H   1.67004452733571      0.65538994244577      1.59742923756635
  H   2.22773896855268      1.53050929739864      0.25496903341177
  N   1.22890573131964     -0.36113529796242     -1.45084537548886
  O   2.23637176906317      0.18484458637050     -1.90615100735656
  O   0.57306583171874     -1.22393197392404     -2.04022000055398
  N   -0.83861341131144      0.53787360112610      1.50226013328330
  H   -1.83238543587357      0.64777028332319      1.63039035890072
  H   -0.34021920490134      1.39206268108394      1.71237049035159
  C   -1.55644417357925     -0.86519697923379     -0.38028870083721
  H   -1.67543007088398     -0.60924344140334     -1.43278613005557
  H   -2.51172708945215     -0.71766767062332      0.12901423873050
  H   -1.30367640022202     -1.92533834821431     -0.34571899471425
