15
Coordinates from ORCA-job run
  C   0.80498093407094      0.12518418468304     -0.01129034984412
  C   -0.52752118422999     -0.06041980782202      0.18999261461521
  N   1.76627372841183      0.14506084185216      0.99680635539077
  H   2.46202864402592     -0.58349779697943      0.98539498959066
  H   1.40852291446927      0.37322806497248      1.90915176698658
  N   1.35655955497443      0.35605194015142     -1.33425077976064
  O   0.62368937740745      0.76119805723749     -2.24007215874599
  O   2.55080267813530      0.08098625426076     -1.47014984221752
  N   -0.95047139087721     -0.37532264832463      1.48419606349295
  H   -0.28992176618866     -0.93407224992888      2.00721453504493
  H   -1.87890499910593     -0.76578119617607      1.52270574261934
  C   -1.61987543999078      0.17214634143282     -0.81392119651354
  H   -1.67987081527270      1.22390150504501     -1.09477987405539
  H   -2.58192492749750     -0.13333402779114     -0.39583091622070
  H   -1.44336730833238     -0.38432946261301     -1.73416695038253
