15
Coordinates from ORCA-job run
  C   0.71939021891074      0.12871120581381     -0.13967626039541
  C   -0.56800111160372     -0.18265621665541      0.22100714802845
  N   1.00857607114386      1.17126877778563     -1.04457222930282
  H   1.59372091732679      1.86924061155123     -0.59913880950075
  H   1.54043593688802      0.81290458134225     -1.82947633691131
  N   1.85077206923308     -0.62397133717910      0.36567888538233
  O   2.96899428643070     -0.29984954822974     -0.04669683060811
  O   1.66673150218849     -1.55058076092111      1.17190124244586
  N   -0.93093899679331     -1.11432600161028      1.13880513934866
  H   -1.89152459122093     -1.41090783099251      1.13786084904570
  H   -0.22694608802721     -1.76657462468789      1.44583525321535
  C   -1.71206413348948      0.60165487061168     -0.35420752046768
  H   -1.35290402712200      1.34537201954083     -1.05802257514329
  H   -2.40603507531676     -0.07495808875430     -0.86318702857673
  H   -2.26020697854828      1.09567234238490      0.45288907343974
