15
Coordinates from ORCA-job run
  C   0.71934298689313      0.17712618060737     -0.07180941583553
  C   -0.57002583252592     -0.23538071858178      0.15704681666492
  N   1.00785774432787      1.36481911183710     -0.77668438766826
  H   1.58582245513179      1.15754303421945     -1.58334661547292
  H   1.54948053730862      1.99355066750745     -0.19403035861357
  N   1.85492215171989     -0.61178939945493      0.36252731974623
  O   1.67073514734821     -1.66446819668237      0.99549889003238
  O   2.97737230712451     -0.18778244864287      0.06927545551258
  N   -0.93801629235182     -1.32105611455323      0.88257703628870
  H   -0.22242174155278     -1.98857571151987      1.12252051701269
  H   -1.88462345723059     -1.64415594260101      0.78261978210721
  C   -1.71708043383026      0.59344817971216     -0.34634824171168
  H   -2.33857674688244     -0.00675204874671     -1.01876614611613
  H   -1.35521805624447      1.46827874453125     -0.87646070948473
  H   -2.34157076923575      0.90519466236801      0.49538005753811
