15
Coordinates from ORCA-job run
  C   0.72718109860936      0.07626803294283     -0.14055901195542
  C   -0.58031691741258     -0.16070098562114      0.20578253786710
  N   1.11649822135811      1.24672309677470     -0.82486192876443
  H   1.57941315992649      1.00315655180253     -1.69310310729132
  H   1.79441512319681      1.76365849119474     -0.27610661507528
  N   1.77050731094651     -0.89094257296075      0.13590016301514
  O   2.90758964225116     -0.61907773285759     -0.26272096888505
  O   1.49741354028984     -1.93809040355545      0.74560530101968
  N   -1.03053468156875     -1.22182500254410      0.92053597134170
  H   -0.40102168130195     -1.99599892322943      1.06005045277480
  H   -2.01981960386387     -1.39933199029095      0.91380374538839
  C   -1.63563152947067      0.85121772098871     -0.13692393324613
  H   -1.20837955820771      1.67835500451391     -0.69430743171303
  H   -2.42222618844762      0.37817192302831     -0.73350396562752
  H   -2.09508793630513      1.22741678981368      0.78140879115137
