15
Coordinates from ORCA-job run
  C   0.77582345743176      0.04853594773107     -0.03600979737038
  C   -0.55447774825735      0.03775741755982      0.24913688742753
  N   1.75784912331464      0.05472027607061      0.93816405192434
  H   2.54897574488406     -0.55220377460612      0.85895063840631
  H   1.78196291890518      0.81780207999453      1.58707117520049
  N   1.24989067683479     -0.04135843705708     -1.40685601912935
  O   0.56569188879337      0.41733378242997     -2.32455941765346
  O   2.32355922684195     -0.63063084729162     -1.56289830490178
  N   -0.91828351333440      0.02189240837527      1.58891850431892
  H   -0.19227085538411     -0.34873941176539      2.18950403746810
  H   -1.82347083145763     -0.38781631683206      1.76030947916800
  C   -1.66414904198655      0.11451211196353     -0.76079336804085
  H   -2.59763844058641     -0.25876755379827     -0.33717293563100
  H   -1.82862672208707      1.14761190627040     -1.07581597362204
  H   -1.42383588391224     -0.43864958904466     -1.66694895756483
