15
Coordinates from ORCA-job run
  C   0.72854642720667      0.14072840226856     -0.06075820129490
  C   -0.58353028370744     -0.20687042672704      0.14629311370716
  N   1.08809452405029      1.29973511705189     -0.77993871037933
  H   1.63811926133909      1.91807486902590     -0.19416494250896
  H   1.67923035436588      1.05164645386803     -1.56512417307919
  N   1.81605076566962     -0.68968689638421      0.41763726233183
  O   2.96354697172129     -0.32374376877127      0.14351156562782
  O   1.56879764110971     -1.71926406377692      1.06688581370370
  N   -1.01820706519227     -1.25872350620044      0.88470462244145
  H   -1.97624005873488     -1.53999143980711      0.76849235817196
  H   -0.34078652224319     -1.95393544670621      1.15481678707014
  C   -1.67875374732176      0.66452516058403     -0.39813910052236
  H   -1.26540955391744      1.49368539139575     -0.96296646063971
  H   -2.33457629295758      0.07383174146720     -1.04574381384008
  H   -2.28488242138797      1.04998841271185      0.42649387921046
