15
Coordinates from ORCA-job run
  C   0.72281790159082      0.17674151337949     -0.02037773129077
  C   -0.57798027091887     -0.24401442185055      0.10553153051779
  N   1.05227794232980      1.41528724434562     -0.60946581828893
  H   1.67840242111834      1.27127457462416     -1.39346878747171
  H   1.55490919649473      1.99505693500135      0.05325962009366
  N   1.83165434996066     -0.65404999655936      0.40685619075614
  O   2.96942851588015     -0.21799575090368      0.20431050047859
  O   1.61101173890731     -1.75169566034812      0.94441484591600
  N   -0.98757291437863     -1.38135925969252      0.72185490781155
  H   -0.28819227052674     -2.07187149681303      0.94385658906903
  H   -1.92735783937386     -1.68992181276122      0.54258610213566
  C   -1.69400525670888      0.63210200699322     -0.38665103783310
  H   -1.30117075225658      1.52988058525231     -0.85253460636294
  H   -2.34051492415677      0.90741838353913      0.45129506587238
  H   -2.30370783796146      0.08314715579319     -1.11146737140335
