15
Coordinates from ORCA-job run
  C   0.72423589664611      0.17238973368570     -0.01402809032240
  C   -0.58304449098111     -0.22788475831401      0.11300906979447
  N   1.08410173930108      1.31834014155742     -0.75352208614854
  H   1.56475050450277      1.98297256587011     -0.15763541041110
  H   1.73785408108357      1.06791524112480     -1.48651494207763
  N   1.80922798421316     -0.58816314759078      0.57364984705714
  O   2.95644932169740     -0.17875850151951      0.36869038393262
  O   1.56038238762040     -1.60433749402927      1.24311027574430
  N   -1.02381387177017     -1.27129086917556      0.85907128294570
  H   -0.33895759812528     -1.92370623383547      1.20604654920084
  H   -1.95914574510807     -1.59918311952237      0.69186428437992
  C   -1.67276888897449      0.57116121253359     -0.54249145513934
  H   -2.24250924680637     -0.06957171997483     -1.22320873011311
  H   -1.25683860660251      1.40573671751579     -1.09728740042818
  H   -2.36292346669650      0.94438023167438      0.21924642158532
