15
Coordinates from ORCA-job run
  C   0.72299653403937      0.13511294199289     -0.01037254323104
  C   -0.58692896277908     -0.25879279840884      0.10086069972129
  N   1.04445115255015      1.45473198053193     -0.38929019942431
  H   1.62813583307042      1.88857406942835      0.31746821197263
  H   1.59011318835132      1.45108601722290     -1.24394743085338
  N   1.81740132439440     -0.77965116110161      0.21070299272127
  O   1.58196406486123     -1.95112321517540      0.55418799132732
  O   2.96009512847140     -0.34167140987722      0.04106866624593
  N   -1.01579507926200     -1.47661107202114      0.50778198475484
  H   -0.32796892035970     -2.21058019378874      0.57939981911551
  H   -1.97189259766061     -1.72502461650115      0.32501819895360
  C   -1.66080232580791      0.75408944468812     -0.19068690915390
  H   -1.63667873075125      1.04556371792981     -1.24174368053728
  H   -2.64823086062318      0.35318934605514      0.04711903614646
  H   -1.49685974849455      1.66010694902497      0.39043316224108
