15
Coordinates from ORCA-job run
  C   0.71758811474427      0.17967137645232     -0.08308416661487
  C   -0.56911680963317     -0.22361734830084      0.17627401492681
  N   1.00085081808607      1.25652485782248     -0.94921311427039
  H   1.60167426323291      0.94608764808255     -1.70437571634493
  H   1.51554883663203      1.97659067313993     -0.45459525199679
  N   1.85674570209175     -0.51039778880572      0.48843415198840
  O   1.67715553412770     -1.45964392719868      1.26917696006235
  O   2.97803271033921     -0.11097642898555      0.15820777905132
  N   -0.93391625697637     -1.19840713219454      1.04630424182511
  H   -0.21170309481184     -1.80587998838669      1.39937731076831
  H   -1.87174350673686     -1.55338887558836      0.97685264671116
  C   -1.71861967048200      0.49811371941418     -0.46628383239738
  H   -1.36021309719530      1.27777968909000     -1.13037349952187
  H   -2.35325440299291      0.93905683430369      0.30752293659418
  H   -2.33002914042549     -0.21051330884479     -1.03422446078140
