15
Coordinates from ORCA-job run
  C   0.72243321054006      0.16538193563815     -0.07005583570318
  C   -0.57271475150464     -0.26781027484597      0.07104190958532
  N   1.02941954298506      1.44673097970666     -0.57340964356199
  H   1.59636525196063      1.36751846938338     -1.41018938880977
  H   1.58623304045784      1.96022815860131      0.10016991546942
  N   1.84446708812046     -0.65834843879662      0.33577124831168
  O   1.64458235073325     -1.80157713318563      0.77803566360744
  O   2.97153346020424     -0.16588377503217      0.22198644079858
  N   -0.95544946817593     -1.50486927822635      0.47679307410020
  H   -1.91209723686654     -1.62010817131552      0.76338348408259
  H   -0.25460238863025     -2.09985047785459      0.88920448446124
  C   -1.70629323025442      0.63426281444578     -0.32450273333301
  H   -2.28595349975154      0.16556333183880     -1.12463233976114
  H   -2.37581418698936      0.78293054452263      0.52880857973652
  H   -1.33310918282887      1.59583131512016     -0.66140485898391
