15
Coordinates from ORCA-job run
  C   0.72103433170517      0.20218145588164     -0.08706456820316
  C   -0.56246043539652     -0.06418947775741      0.30111492791595
  N   1.63859277805667      0.72636980058606      0.85257093159673
  H   2.49425984869096      0.18326999754472      0.83569956976897
  H   1.89730034466484      1.67630900182485      0.60696001982323
  N   1.20169449569135     -0.05022155782798     -1.42797546940370
  O   2.41107189365785      0.12861299592694     -1.61697497884750
  O   0.41610008923321     -0.42794818339638     -2.30224313234064
  N   -0.92673971257880      0.29083474641602      1.57100427371395
  H   -1.69153095643503     -0.21577477870782      1.98422426226401
  H   -0.14701796660455      0.51005371642823      2.17615532893350
  C   -1.65453472182837     -0.63469717607398     -0.55396937982303
  H   -2.54817319146048     -0.81145073932637      0.04833356512169
  H   -1.90709230201698      0.05148771742769     -1.36244206369363
  H   -1.34250449537931     -1.56483751894621     -1.02639328682639
