16
Coordinates from ORCA-job run
  C   0.66281964108046     -0.14669184793622     -0.09500101527718
  C   -0.69144916418189     -0.03722346740449     -0.28811859944919
  C   1.42035719530560      0.47262020163376      1.03892352211692
  H   0.80632920400626      1.19210787782155      1.57788063976149
  H   1.77658107544211     -0.28395927105945      1.74318217750692
  H   2.30332292323480      0.99299688159382      0.66308910338082
  N   1.46898142126567     -0.97184615260073     -0.95086579344679
  O   2.65023388710514     -1.13777051299625     -0.62867005446601
  O   0.97148397421364     -1.48964851488451     -1.96811050529120
  C   -1.51689536730983      0.76913936930907      0.68329746301258
  H   -1.27919608355808      1.83228533498032      0.60246120342517
  H   -1.33914975738500      0.46091958027080      1.71385261841361
  H   -2.58184895198099      0.65357141074676      0.47404853056341
  N   -1.38275132207105     -0.52148577968238     -1.35259363543450
  H   -0.89136198685438     -1.15930053990459     -1.96096582444850
  H   -2.37745668831247     -0.62471456988746     -1.25340983036754
