16
Coordinates from ORCA-job run
  C   0.65501048835332     -0.02690711280691      0.21347201700601
  C   -0.71072027812031      0.10191920026954      0.15375666429220
  C   1.55268903322761     -0.58082658927105     -0.85242683763873
  H   0.98972325281169     -1.04833315364054     -1.65584431862580
  H   2.22431845197615     -1.32844680899388     -0.42646062537464
  H   2.18506429174482      0.20122703866153     -1.27925624168516
  N   1.38995092148843      0.48883082102248      1.34406357217600
  O   2.62295208527157      0.45730173935980      1.27752236205993
  O   0.78496063037375      0.93929417753132      2.33306489218403
  C   -1.50552551634804     -0.33543002018157     -1.04885948187893
  H   -2.33099132020513     -0.97342712228939     -0.72354774709559
  H   -1.93657092664183      0.54278791795216     -1.54051585770337
  H   -0.92594867260827     -0.87896886032744     -1.78670966107794
  N   -1.50893155782551      0.55841764290377      1.15916459581908
  H   -1.05409878494026      1.02031334515784      1.93125017062448
  H   -2.43288209855796      0.86224778465233      0.90232649691845
