16
Coordinates from ORCA-job run
  C   0.67510772376563     -0.07281468675906      0.07258156753693
  C   -0.66496193817056      0.03802763131007     -0.14274630797131
  C   1.65925404636718      0.96626835941753     -0.36826300479791
  H   1.60525962165179      1.87415576235675      0.24356285331154
  H   2.67396938282468      0.58377388839456     -0.28502712388275
  H   1.48111180244590      1.24011386451171     -1.41254859497730
  N   1.20613987618194     -1.18422634366730      0.82881527638713
  O   0.56395852162883     -2.23819477112213      0.88934472979728
  O   2.29856171555576     -1.01509962767375      1.37971332715134
  C   -1.72417677906363     -0.94672949357775      0.26375159571976
  H   -2.71117996689376     -0.48159200790886      0.20348081953760
  H   -1.56568098389310     -1.31457635316629      1.27559980787292
  H   -1.70709629445639     -1.81833893905210     -0.39165036802998
  N   -1.13608187409417      1.11206400581288     -0.87162156992623
  H   -2.11073907864760      1.33100661613360     -0.75134046721683
  H   -0.54544577520251      1.92516209499015     -0.93565254051217
