16
Coordinates from ORCA-job run
  C   0.65192562334284     -0.02519188487840      0.21297724506606
  C   -0.70871015667200      0.15106438843537      0.18988000216423
  C   1.45628445741193     -0.62533638134891     -0.89871232638512
  H   0.81393058315825     -1.09881100526745     -1.63928199364600
  H   2.07434757159883      0.12593594565524     -1.39764861272217
  H   2.13745411990092     -1.38230052591655     -0.50534490983959
  N   1.44381488892898      0.45945630999059      1.30897231242041
  O   0.88933373953940      0.91914415074899      2.32441531675497
  O   2.67203439020573      0.39782502328177      1.19016297084117
  C   -1.49544258531685     -0.29233575576094     -1.01836872074245
  H   -1.50189026607653     -1.38194544203845     -1.09640591730343
  H   -2.53313215796188      0.03802167239495     -0.94530999763498
  H   -1.07620034547410      0.11080826470579     -1.94044443938534
  N   -1.46598666406737      0.61540964416507      1.21811765256081
  H   -2.38447916922478      0.96014796524243      0.99998654942073
  H   -0.97228402929335      1.02710763059052      1.99600486843068
