16
Coordinates from ORCA-job run
  C   0.65877771543908     -0.04057159825977      0.17548721862651
  C   -0.66456774759489      0.09251532835103     -0.11771627251559
  C   1.71727328563755      0.83082793440370     -0.42706624313064
  H   1.89627980468096      0.59595255000271     -1.48263626731768
  H   2.66091472021496      0.69326942996401      0.09576331079754
  H   1.43203285387299      1.88421524312797     -0.34869405986299
  N   1.11625746467743     -1.10791761266582      1.03638320304155
  O   2.29260736541952     -1.46283453170935      0.91170490425195
  O   0.33156020347466     -1.61116410026538      1.84745769169762
  C   -1.79379577778037     -0.73061912760130      0.43375782574215
  H   -1.55145685999576     -1.79146192955124      0.44531726668937
  H   -2.00505071412584     -0.44726964807896      1.46553497477944
  H   -2.69584947639706     -0.57672316073197     -0.16359940375058
  N   -1.06317588366936      1.12618255045028     -0.94234671192528
  H   -0.36902619665828      1.52882233278771     -1.55078569404758
  H   -1.96378075719560      1.01677633977637     -1.37756174307580
