16
Coordinates from ORCA-job run
  C   0.67228558953346     -0.08912102371820      0.07352400807499
  C   -0.66461298575971      0.05139650608139     -0.14543045813573
  C   1.68791767444640      0.89650601412337     -0.41602651071824
  H   1.49873744579673      1.14737594288964     -1.46396140310599
  H   1.68491158313381      1.82229572451543      0.17067354692507
  H   2.68780279886181      0.47464361855198     -0.34270579101138
  N   1.17237147540975     -1.17585152903031      0.88487364543231
  O   2.27341096507263     -1.01253048964058      1.42040715822076
  O   0.49724384940090     -2.20353934031532      1.00669446917103
  C   -1.75037359936792     -0.88438552743466      0.30481217776968
  H   -2.72586782517474     -0.40167624058400      0.20719150224266
  H   -1.74723751109640     -1.79305999227652     -0.29817129437122
  H   -1.60996500260264     -1.19650438457416      1.33798520120207
  N   -1.10617691785154      1.10624801792499     -0.92029975583700
  H   -2.07480299961561      1.35503737844341     -0.80865735995195
  H   -0.49564454018692      1.90216532504353     -1.00990913590707
