16
Coordinates from ORCA-job run
  C   0.66853103545457     -0.05325276326357      0.12715146763891
  C   -0.66975532132778      0.10473518404501     -0.06961569108160
  C   1.69652922551039      0.81012430644324     -0.53669324553714
  H   1.79727613581575      0.58774786901319     -1.60526762290903
  H   2.67211641135133      0.65054371594248     -0.08331881543882
  H   1.43475992126187      1.86660909327722     -0.42481272505677
  N   1.16734430484987     -1.13918698812364      0.94044043800644
  O   2.32533205175406     -1.51225365166097      0.72740518745945
  O   0.43407384159461     -1.63929994527333      1.80017710884789
  C   -1.77041308715220     -0.70799598105273      0.55086989036425
  H   -2.71110221913381     -0.52876834739655      0.02443153083605
  H   -1.54722625319771     -1.77291676108218      0.52810452119341
  H   -1.89963652879404     -0.43881844986825      1.59979935761798
  N   -1.10847412898505      1.15672217004941     -0.85032807320587
  H   -2.03775242822730      1.06327479194742     -1.22518971767551
  H   -0.45160296077458      1.55273575700325     -1.50315361105964
