16
Coordinates from ORCA-job run
  C   0.65195418398166     -0.19110182442048     -0.09660738922650
  C   -0.69902134282725     -0.02173092495495     -0.27033960996160
  C   1.46728466367039      0.47425357440109      0.96909886021888
  H   2.37038586884138      0.90934678654498      0.53697831398648
  H   1.79470116145427     -0.24112993547747      1.72836508418240
  H   0.90657243811394      1.27015999179087      1.45627994880429
  N   1.39019475266927     -1.13050649826811     -0.89312077949316
  O   0.84053007654308     -1.70368561582625     -1.85212852650019
  O   2.56870318004817     -1.33333082021693     -0.58243619003640
  C   -1.45442446949220      0.91105687652404      0.64303462472996
  H   -1.15856079555330      1.94772846176497      0.46683953346966
  H   -1.26904326086059      0.68113102213038      1.69256611719265
  H   -2.52889046706190      0.84047000062419      0.46513560847614
  N   -1.44124916876449     -0.55481016421410     -1.27514777858330
  H   -2.43797609279462     -0.58835090069572     -1.15189493481727
  H   -1.00116072796782     -1.26850002970652     -1.83662288244204
