16
Coordinates from ORCA-job run
  C   0.67617708619091     -0.06810277881038      0.11511371497089
  C   -0.65846048035777      0.05750583746724     -0.12254072120044
  C   1.68742116549587      0.86797370364822     -0.47092400672127
  H   1.74363822697893      0.76186204772103     -1.56069451974800
  H   1.43996694606319      1.90951346244724     -0.24188441725442
  H   2.67207136194511      0.65938412081790     -0.06058617430934
  N   1.16393567208550     -1.08554377264382      1.02244849508950
  O   2.26958687452413     -0.90680838803252      1.54121293619226
  O   0.46755683702340     -2.08567413414481      1.22689529428334
  C   -1.76848185330509     -0.74808137706433      0.48971259927789
  H   -2.70522932371014     -0.18994979965799      0.41891800282917
  H   -1.88004580103793     -1.70438683281384     -0.02495364460220
  H   -1.57441078286011     -0.97751698800560      1.53494044819458
  N   -1.09174567608642      1.08213316190830     -0.94256633490136
  H   -2.01467573540838      0.96878507900958     -1.32863611634302
  H   -0.42530451754119      1.45890665815377     -1.59745555575758
