16
Coordinates from ORCA-job run
  C   0.66246480663598     -0.06419811616357      0.05849224683750
  C   -0.67810122053182      0.10367901280971     -0.11203291538713
  C   1.73820275070771      0.84710004908919     -0.44556831232175
  H   2.46318224416541      0.30187397552702     -1.05500052012111
  H   1.33413691924872      1.66713501395650     -1.03881660064428
  H   2.28593705214453      1.28357013324297      0.39097093780799
  N   1.16286785861298     -1.16250628738160      0.85967269607167
  O   0.46007570354348     -2.16287300907219      1.03663220307590
  O   2.30937987531449     -1.04380194511599      1.30515935692990
  C   -1.76049752176479     -0.71847898751762      0.53283261358956
  H   -1.49864695770820     -1.02146955297719      1.54337599865735
  H   -1.94000321798327     -1.63396338894300     -0.03432694612188
  H   -2.68194913577203     -0.13225922624919      0.56995497519603
  N   -1.17075307475921      1.15968237507456     -0.86027999111813
  H   -2.11843575239017      1.04129104760898     -1.17968119838023
  H   -0.56586032946381      1.53421890611142     -1.57238454407139
