16
Coordinates from ORCA-job run
  C   0.67129312073779     -0.12295034175117      0.02866485107146
  C   -0.66965753818653      0.08256930688953     -0.09373820802394
  C   1.69336224943654      0.78238204320372     -0.58683836513576
  H   2.67927904924991      0.32596419555630     -0.53781829790036
  H   1.45333189088703      0.96798728526670     -1.63815106145336
  H   1.75778633394770      1.74652602951630     -0.06943664038622
  N   1.17583812600521     -1.20315081909953      0.84589800506664
  O   2.32152152166983     -1.08095647156632      1.29082973016120
  O   0.45923501393839     -2.18684694546080      1.06016831349402
  C   -1.76465548901441     -0.76621093798974      0.48753095105036
  H   -2.71430914339634     -0.22651524768632      0.45462944983679
  H   -1.86963002493712     -1.69334015229087     -0.07724331361872
  H   -1.55232961216563     -1.05045448813785      1.51628661559719
  N   -1.11501692605825      1.12090866586010     -0.88755115613339
  H   -0.47036340592140      1.87063505513690     -1.07847899071198
  H   -2.05568516619271      1.43345282255305     -0.71475188291395
