16

C	0.0	0.0	0.0
C	-0.452712	0.150355	-1.446232
F	1.422711	0.0	0.0
H	-1.5432	0.230471	-1.402094
H	-0.307164	0.87244	0.581298
N	-0.492002	-1.175324	0.603732
H	-0.477881	-1.142309	1.610206
H	-0.011617	-1.995676	0.265268
C	-0.074795	-1.065143	-2.282118
H	1.003407	-1.253389	-2.238374
H	-0.347162	-0.87289	-3.32052
H	-0.612676	-1.952724	-1.942937
N	0.088575	1.364122	-2.072957
H	1.068144	1.439278	-1.819084
H	-0.384153	2.168701	-1.674887
Cl	-4.022809	0.0	0.0
