16

C	0.0	0.0	0.0
C	-0.302007	0.301638	-1.489819
F	1.404361	0.0	0.0
H	0.376675	-0.377589	-2.028137
H	-0.337795	0.808243	0.654713
N	-0.484548	-1.235202	0.522193
H	-0.412108	-1.958742	-0.184416
H	-1.470391	-1.121316	0.747128
C	0.088845	1.737314	-1.81918
H	-0.00313	1.905934	-2.89395
H	-0.594008	2.429565	-1.314473
H	1.109531	1.957376	-1.500186
N	-1.642007	0.053408	-1.979007
H	-1.904901	-0.910301	-1.810295
H	-2.337074	0.57199	-1.445835
Cl	-4.165875	0.0	0.0
