16

C	0.0	0.0	0.0
C	-0.340924	-0.156744	-1.482309
F	1.413407	0.0	0.0
H	0.163233	0.674075	-2.003663
H	-0.316785	0.976664	0.375988
N	-0.486694	-1.027616	0.850375
H	-0.548617	-1.882145	0.308139
H	-1.414572	-0.786048	1.178633
C	-1.828128	-0.093712	-1.74918
H	-2.021396	-0.103414	-2.8268
H	-2.294139	0.798265	-1.33227
H	-2.35672	-0.931462	-1.298609
N	0.181756	-1.464015	-1.898704
H	1.192957	-1.427353	-1.929938
H	-0.159822	-1.681595	-2.826345
Cl	-4.748813	0.0	0.0
