16

C	0.0	0.0	0.0
C	-0.425184	-0.012551	-1.470174
F	1.404702	0.0	0.0
H	-1.517355	-0.031816	-1.457595
H	-0.316919	0.94708	0.44681
N	-0.475639	-1.057791	0.837542
H	-1.473542	-0.880194	0.966561
H	-0.401898	-1.938799	0.340865
C	0.104624	-1.227762	-2.220063
H	-0.253592	-2.165568	-1.787633
H	-0.240712	-1.179548	-3.2538
H	1.19792	-1.239618	-2.219248
N	0.000529	1.204045	-2.177843
H	-0.578415	1.972629	-1.856508
H	0.953706	1.411195	-1.896867
Cl	-3.642209	0.0	0.0
