16

C	0.0	0.0	0.0
C	-0.343273	-0.085441	-1.487084
F	1.413416	0.0	0.0
H	0.185279	0.75228	-1.971729
H	-0.3137	0.959306	0.419862
N	-0.488009	-1.064818	0.80189
H	-1.411688	-0.832107	1.149615
H	-0.562235	-1.890564	0.217346
C	-1.827613	0.033363	-1.754856
H	-2.260678	0.933737	-1.319338
H	-2.012108	0.059305	-2.834405
H	-2.391311	-0.794565	-1.329122
N	0.144999	-1.387243	-1.95791
H	-0.20015	-1.557113	-2.894298
H	1.157266	-1.375423	-1.987569
Cl	-4.767396	0.0	0.0
