19

C	0.0	0.0	0.0
C	-0.349788	0.148295	-1.526434
Cl	1.814143	0.0	0.0
H	0.420551	0.823966	-1.911269
N	-0.437951	1.206718	0.675453
H	-1.458275	1.174912	0.67258
H	-0.145707	1.159117	1.646894
C	-0.502711	-1.272122	0.655748
H	-0.225072	-1.275414	1.714005
H	-1.595914	-1.275338	0.583317
H	-0.100777	-2.17223	0.189089
N	-1.617171	0.763867	-1.850272
H	-2.415893	0.276567	-1.44712
H	-1.641935	1.70655	-1.482915
C	-0.245858	-1.180455	-2.264441
H	0.695707	-1.69586	-2.060974
H	-0.322295	-0.986851	-3.336022
H	-1.077842	-1.832467	-1.986431
Br	-4.321072	0.0	0.0
