19

C	0.0	0.0	0.0
C	-0.513661	0.192751	-1.444252
Cl	1.798797	0.0	0.0
H	-1.574916	0.428549	-1.293213
N	-0.452947	1.0425	0.897875
H	-1.468276	0.940442	0.959036
H	-0.267341	1.951681	0.488276
C	-0.455939	-1.33109	0.56797
H	-1.548551	-1.367524	0.524631
H	-0.134673	-1.396237	1.608589
H	-0.023586	-2.154111	1.2e-05
N	-0.356899	-1.038812	-2.230688
H	-1.125399	-1.65475	-1.983342
H	-0.497911	-0.803083	-3.207914
C	0.149503	1.337738	-2.193247
H	-0.436767	1.57844	-3.085868
H	0.21225	2.245261	-1.58946
H	1.159093	1.055338	-2.498759
Br	-3.943309	0.0	0.0
