19

C	0.0	0.0	0.0
C	-0.324752	0.061822	-1.548606
Cl	1.807583	0.0	0.0
H	0.37635	0.810766	-1.941162
N	-0.457337	1.154021	0.731152
H	-1.463894	1.04866	0.853077
H	-0.30007	1.994692	0.185259
C	-0.543796	-1.233971	0.682191
H	-0.329737	-1.177254	1.751434
H	-0.108424	-2.147239	0.278343
H	-1.631042	-1.247292	0.542191
N	-1.649658	0.506664	-1.931908
H	-1.834823	1.443563	-1.596358
H	-2.39524	-0.062283	-1.532733
C	-0.059647	-1.265947	-2.249361
H	0.910227	-1.691716	-1.990962
H	-0.842064	-1.982956	-1.990024
H	-0.105742	-1.108266	-3.327978
Br	-4.35293	0.0	0.0
