19

C	0.0	0.0	0.0
C	-0.315736	0.03051	-1.532605
Cl	1.810535	0.0	0.0
H	0.316684	-0.754975	-1.962881
N	-0.489307	1.202329	0.630643
H	-1.503049	1.203117	0.504585
H	-0.323616	1.143907	1.630455
C	-0.462516	-1.285478	0.663029
H	-0.069967	-1.347977	1.682303
H	-1.555556	-1.278586	0.705247
H	-0.125201	-2.16457	0.107584
N	0.063888	1.284106	-2.179016
H	1.004789	1.528408	-1.891584
H	-0.537658	2.011543	-1.807104
C	-1.756177	-0.276353	-1.893949
H	-2.470065	0.438922	-1.484708
H	-2.084411	-1.254875	-1.543889
H	-1.831878	-0.248794	-2.984615
Br	-4.632283	0.0	0.0
