19

C	0.0	0.0	0.0
C	-0.372267	0.849594	-1.225427
Cl	1.897892	0.0	0.0
H	0.21285	0.454276	-2.067399
N	-0.512117	0.585525	1.15447
H	-0.264883	0.115095	2.010942
H	-0.342869	1.582434	1.173394
C	-0.399522	-1.45391	-0.124878
H	-0.052098	-1.867877	-1.072988
H	0.03799	-2.041981	0.68418
H	-1.48783	-1.519876	-0.065567
N	-0.023713	2.24299	-0.927458
H	0.959679	2.400798	-1.107699
H	-0.565483	2.856822	-1.521001
C	-1.856128	0.745558	-1.550555
H	-2.093782	1.423192	-2.378802
H	-2.495943	0.987689	-0.700892
H	-2.135081	-0.259091	-1.869538
Br	-5.148856	0.0	0.0
