19

C	0.0	0.0	0.0
C	-0.295993	-0.066979	-1.525557
Cl	1.836908	0.0	0.0
H	0.2876	-0.912931	-1.919709
N	-0.474765	1.189397	0.628832
H	-0.43226	1.935233	-0.06005
H	-1.447816	1.048829	0.889084
C	-0.473273	-1.225994	0.74713
H	-0.11447	-2.137635	0.264783
H	-1.567143	-1.234651	0.767935
H	-0.099114	-1.194335	1.771869
N	0.121244	1.208096	-2.119808
H	-0.333433	1.322151	-3.016349
H	1.122874	1.217975	-2.26398
C	-1.761199	-0.289076	-1.844115
H	-2.143862	-1.226307	-1.444564
H	-2.402236	0.492507	-1.440476
H	-1.887029	-0.318708	-2.933187
Br	-4.691969	0.0	0.0
