14
Coordinates from ORCA-job run
  C   -1.04691488228865     -0.15179822473104     -0.13819180717294
  C   0.43780106279615     -0.13934852115311     -0.59819626597216
  Br  -2.22844596422953     -0.14255931208215     -1.70383641062044
  H   0.56721854279242     -1.01813795240082     -1.24015242278169
  C   -1.34324256767901      1.02377912630381      0.67750072434055
  N   -1.53992780194318      1.97413044342026      1.34160029553276
  C   -1.31360302957676     -1.37466643851689      0.61739334837329
  N   -1.48204135155178     -2.37316166117837      1.21521896755404
  C   1.39683148141865     -0.20856939048817      0.59502976984824
  H   1.27370470678103      0.66074945100641      1.24373248116995
  H   2.42490635354782     -0.22037022548931      0.22954856913088
  H   1.22514235179993     -1.11826593816942      1.17296899160874
  C   0.69245674591248      1.05902008015569     -1.39824473533726
  N   0.93711435222041      2.02919856332310     -2.01337150567395
