14
Coordinates from ORCA-job run
  C   -0.94547893826240     -0.36037979777709      0.19578061664312
  C   0.51801919615426     -0.32731912702360     -0.33574655145224
  Br  -1.11321953833099     -1.76683360327703      1.55879390704389
  H   0.73013826920706     -1.33619306031474     -0.70787020793096
  C   -1.87428602221728     -0.68837846034196     -0.88392355929153
  N   -2.59818494419129     -0.95976852095501     -1.76998467733197
  C   -1.30166989459891      0.91808912123333      0.80668485578964
  N   -1.54930200058709      1.95795813566274      1.29678000701855
  C   1.54122308514822      0.07519588560496      0.72733761382620
  H   1.52657632792222     -0.62644629518998      1.56090909773917
  H   2.53807698609350      0.06685115767115      0.28385291924799
  H   1.33923046987238      1.08180371220496      1.09777331714757
  C   0.56553856230128      0.60164092161044     -1.46851500064278
  N   0.62333844148903      1.36377993089182     -2.36087233780665
