14
Coordinates from ORCA-job run
  C   -0.94450083490525      0.00692820954232      0.31102055493683
  C   0.42616075984130      0.23625217121408     -0.39015304446782
  Br  -0.79128315912236      0.26094144819490      2.25042876971913
  H   0.22202705503392      0.12252022230411     -1.46327407912654
  C   -1.39857874582082     -1.36056888442595      0.06260322542252
  N   -1.75974301370768     -2.45563043679751     -0.16727995243389
  C   -1.93463581101885      0.95688367519479     -0.19304047576013
  N   -2.72412854309933      1.71167428592646     -0.62917607528109
  C   1.49955928664879     -0.76921600256978      0.02789665385850
  H   2.40404287922819     -0.58792892663431     -0.55483981415332
  H   1.16321281403352     -1.78938537141358     -0.16594582087728
  H   1.74280091525652     -0.66415435259668      1.08494864401583
  C   0.86277982185528      1.61464469703145     -0.16572333611281
  N   1.23228657577677      2.71803926502968     -0.00646524973993
