14
Coordinates from ORCA-job run
  C   -1.03824149410155     -0.14538449360219     -0.20132082029934
  C   0.47839093430295     -0.25897815594623     -0.52309116041765
  Br  -2.08617936214244     -0.39242041527725     -1.83994135159497
  H   0.62170334120548     -1.24391692491484     -0.98214748460306
  C   -1.34804782201387      1.16779170664482      0.36004276399065
  N   -1.55858455408739      2.22639187487195      0.82681823213835
  C   -1.41779395912299     -1.19892270433873      0.73871595101953
  N   -1.67888987309599     -2.06082177286724      1.49472683579405
  C   1.33281079298117     -0.13476054547959      0.74280427816662
  H   1.18919913513135      0.83892639973705      1.21492481986408
  H   2.38621709325887     -0.23434565172211      0.47663885454591
  H   1.08047744614116     -0.92245194718698      1.45468574042581
  C   0.84962910479401      0.76417542613069     -1.50137730900257
  N   1.19130921674924      1.59371720395065     -2.25947935002742
