14
Coordinates from ORCA-job run
  C   -0.94906244221086     -0.32181824410528      0.24144051002707
  C   0.49979922624353     -0.35973863904633     -0.32884613258485
  Br  -1.11415386409089     -1.63790452113074      1.69241995947773
  H   0.67593380018228     -1.39419910694944     -0.64517784113695
  C   -1.91423134942587     -0.69065095941771     -0.79232214706397
  N   -2.66612710694919     -1.00108937087722     -1.64162731550411
  C   -1.25550539695065      1.00067740317032      0.78189239014680
  N   -1.46233335733727      2.07391819051652      1.21563022770907
  C   1.56174413358717      0.07676045701095      0.68151457231895
  H   1.55713537701010     -0.57878741629733      1.55198180377993
  H   1.39136710141620      1.10598506156355      1.00266429742450
  H   2.54475461367063      0.02262992489174      0.21106040064337
  C   0.53870297740771      0.49939034588138     -1.51575112566545
  N   0.59097628744714      1.20482687478959     -2.45387959957209
