15

C	0.0	0.0	0.0
C	-0.291182	-0.010901	-1.537989
Br	1.959664	0.0	0.0
H	0.417769	-0.737666	-1.937938
C	-0.617689	1.13678	0.645446
N	-0.669776	2.258451	1.03688
C	-0.259773	-1.377336	0.657026
H	0.182777	-1.365622	1.652251
H	-1.326716	-1.576988	0.715089
H	0.264991	-2.142311	0.078883
C	0.052423	1.268887	-2.149948
N	0.350944	2.26852	-2.690288
C	-1.63227	-0.380114	-2.01446
N	-2.644734	-0.508	-2.600349
H	-2.066347	0.0	0.0
