15

C	0.0	0.0	0.0
C	-0.483459	-0.137452	-1.440663
F	1.396257	0.0	0.0
H	-1.581843	-0.182943	-1.388285
H	-0.105164	0.707385	-2.01208
N	-0.423619	1.317722	0.412216
H	-0.05425	1.507378	1.328616
H	-1.454018	1.221118	0.481215
N	-0.447305	-1.121549	0.770073
H	-0.243735	-0.92323	1.745139
H	-1.472598	-1.078681	0.675068
N	0.03976	-1.361581	-2.093088
O	1.056969	-1.243706	-2.780915
O	-0.567379	-2.416339	-1.927367
H	-3.00728	0.0	0.0
