15

C	0.0	0.0	0.0
C	-0.46342	0.102758	-1.44896
F	1.39626	0.0	0.0
H	-1.561517	0.133225	-1.429212
H	-0.060115	-0.743086	-2.000664
N	-0.440095	1.164931	0.712751
H	-0.227741	1.023221	1.695925
H	-1.469361	1.126772	0.622792
N	-0.458066	-1.286179	0.459816
H	-1.48863	-1.174742	0.458212
H	-0.167876	-1.385892	1.430057
N	0.051547	1.327935	-2.101354
O	1.166702	1.263222	-2.627927
O	-0.655515	2.334992	-2.091855
H	-3.003641	0.0	0.0
