15

C	0.0	0.0	0.0
C	-0.423548	0.200898	-1.460346
F	1.408849	0.0	0.0
H	-1.513735	0.359149	-1.43681
H	-0.139206	-0.667001	-2.048799
N	-0.421292	1.005523	0.927889
H	-0.164763	1.917653	0.564572
H	-1.450394	0.942601	0.895817
N	-0.490883	-1.290413	0.362798
H	-1.51713	-1.191698	0.248806
H	-0.334627	-1.371136	1.364797
N	0.243342	1.362649	-2.084312
O	0.954795	1.159696	-3.071411
O	0.047366	2.480388	-1.599042
H	-2.987901	0.0	0.0
