15

C	0.0	0.0	0.0
C	-0.442282	0.083835	-1.459889
F	1.413621	0.0	0.0
H	-0.133082	-0.818424	-1.98472
H	-1.536573	0.19685	-1.434969
N	-0.459673	1.134658	0.722062
H	-1.481202	1.133749	0.575929
H	-0.312547	0.915732	1.703444
N	-0.446297	-1.225733	0.59931
H	-0.181974	-2.015065	0.016467
H	-1.476884	-1.139962	0.583324
N	0.170748	1.209044	-2.203601
O	1.090331	0.936806	-2.98404
O	-0.271808	2.340464	-2.018269
H	-3.001611	0.0	0.0
