15

C	0.0	0.0	0.0
C	-0.451328	0.248776	-1.441722
F	1.397867	0.0	0.0
H	-1.546836	0.388681	-1.382611
H	-0.186694	-0.598174	-2.069456
N	-0.423222	0.962434	0.974818
H	-0.169042	1.888168	0.648783
H	-1.449956	0.89562	0.952493
N	-0.486883	-1.308443	0.312349
H	-1.513258	-1.212886	0.204674
H	-0.320781	-1.436256	1.307225
N	0.16832	1.431954	-2.074558
O	0.600764	1.301211	-3.223194
O	0.193847	2.498553	-1.455603
H	-2.996285	0.0	0.0
