15

C	0.0	0.0	0.0
C	-0.430791	-0.055287	-1.465868
F	1.414709	0.0	0.0
H	-1.521873	-0.186596	-1.458337
H	-0.129068	0.863547	-1.966049
N	-0.4508	1.209043	0.62607
H	-0.187884	2.013321	0.06328
H	-1.481365	1.119455	0.60566
N	-0.460168	-1.153478	0.691418
H	-0.310524	-0.963094	1.678171
H	-1.482288	-1.145494	0.546223
N	0.214411	-1.153623	-2.223319
O	-0.232999	-2.291495	-2.096313
O	1.167638	-0.853609	-2.950828
H	-2.998137	0.0	0.0
