15

C	0.0	0.0	0.0
C	-0.438058	0.140094	-1.46495
F	1.378758	0.0	0.0
H	-1.527794	0.301981	-1.439474
H	-0.161807	-0.752223	-2.020312
N	-0.431421	1.044902	0.882892
H	-0.179155	1.943031	0.483005
H	-1.458673	0.975579	0.857629
N	-0.498441	-1.275073	0.419853
H	-0.343244	-1.306221	1.424852
H	-1.525423	-1.176923	0.305701
N	0.230712	1.272333	-2.138835
O	0.037443	2.411265	-1.701076
O	0.946253	1.024707	-3.11395
H	-3.003932	0.0	0.0
