19

C	-0.489993	0.034636	-1.457302
C	0.0	0.0	0.0
Br	0.04573	-1.647367	-2.355896
H	1.090891	0.0	0.0
C	-1.997193	0.14975	-1.639939
H	-2.234495	0.203951	-2.705478
H	-2.367482	1.064485	-1.164853
H	-2.521851	-0.697244	-1.200557
C	0.264907	1.158984	-2.155706
H	-0.074028	2.12246	-1.763042
H	1.33555	1.054134	-1.955715
H	0.074744	1.136346	-3.231588
N	-0.562493	-1.200133	0.707769
O	0.150307	-2.1885	0.853842
O	-1.732045	-1.116076	1.100762
N	-0.34655	1.160814	0.770092
H	-1.180293	1.644111	0.473187
H	0.457829	1.776388	0.790047
H	2.798974	0.0	0.0
