19

C	-0.484066	-0.036665	-1.468888
C	0.0	0.0	0.0
Br	-0.02531	1.737923	-2.243118
H	1.09034	0.0	0.0
C	0.291513	-1.067954	-2.273666
H	1.3603	-0.943323	-2.081262
H	0.078055	-0.957266	-3.340262
H	0.001811	-2.071457	-1.956156
C	-1.989813	-0.192001	-1.618226
H	-2.539471	0.56793	-1.05693
H	-2.295477	-1.174252	-1.246536
H	-2.273628	-0.111082	-2.670646
N	-0.482247	-1.289817	0.614507
O	0.180898	-2.307036	0.400373
O	-1.525271	-1.270332	1.275303
N	-0.422631	1.081924	0.825897
H	-1.269976	1.533939	0.512257
H	0.338001	1.749698	0.855774
H	2.775681	0.0	0.0
