19

C	-0.547001	0.028785	-1.427058
C	0.0	0.0	0.0
Br	0.266548	-1.397128	-2.549464
H	1.100308	0.0	0.0
C	-2.055947	-0.131286	-1.494382
H	-2.508155	0.652034	-0.876694
H	-2.362152	-1.109354	-1.124762
H	-2.409393	-0.016355	-2.52318
C	-0.09081	1.331912	-2.073532
H	-0.36884	1.341957	-3.130395
H	0.993265	1.423418	-1.984741
H	-0.558241	2.16809	-1.55501
N	-0.414929	-1.149384	0.797519
O	-0.392573	-1.023139	2.036908
O	-0.660952	-2.227387	0.235527
N	-0.31048	1.240933	0.691227
H	0.583704	1.583352	1.048699
H	-0.875397	1.025009	1.503663
H	2.502831	0.0	0.0
