19

C	-0.412012	0.044374	-1.458962
C	0.0	0.0	0.0
Br	-2.431587	-0.00295	-1.589725
H	1.097162	0.0	0.0
C	0.04689	1.380121	-2.015381
H	-0.189341	1.451863	-3.080295
H	-0.404579	2.205781	-1.471162
H	1.13338	1.4211	-1.871124
C	0.139529	-1.086534	-2.307334
H	-0.031291	-0.865622	-3.364935
H	1.215805	-1.138665	-2.105584
H	-0.304181	-2.047784	-2.065293
N	-0.389471	-1.275486	0.681372
O	0.006303	-2.334879	0.192731
O	-1.023943	-1.208781	1.74177
N	-0.409364	1.147313	0.746163
H	-1.280639	0.959353	1.229551
H	0.310513	1.323184	1.440156
H	2.63576	0.0	0.0
