19

C	-0.370999	0.005755	-1.476921
C	0.0	0.0	0.0
Br	-2.380871	0.16767	-1.703871
H	1.093227	0.0	0.0
C	0.250008	1.240932	-2.101842
H	1.329796	1.183778	-1.906506
H	-0.14071	2.156003	-1.656181
H	0.058138	1.264862	-3.177126
C	0.073072	-1.242534	-2.212292
H	-0.101145	-1.12416	-3.285023
H	-0.446409	-2.134145	-1.866352
H	1.144301	-1.366594	-2.015219
N	-0.472454	-1.269534	0.647677
O	-1.488449	-1.235248	1.341731
O	0.189582	-2.287539	0.433894
N	-0.414162	1.10885	0.788366
H	0.328161	1.795748	0.809326
H	-1.297309	1.506665	0.497106
H	2.716047	0.0	0.0
