19

C	-0.600962	0.010656	-1.413736
C	0.0	0.0	0.0
Br	-0.084895	-1.589288	-2.458357
H	1.091096	0.0	0.0
C	-2.121647	0.05467	-1.393959
H	-2.438526	0.934029	-0.823766
H	-2.542517	-0.840364	-0.927389
H	-2.51476	0.131654	-2.410752
C	0.003052	1.202139	-2.14689
H	-0.321114	1.2095	-3.190652
H	1.093793	1.143148	-2.095723
H	-0.322019	2.11848	-1.651153
N	-0.458633	-1.208955	0.77081
O	0.083252	-2.282207	0.530121
O	-1.352438	-1.064165	1.619571
N	-0.383192	1.214002	0.680987
H	-1.148399	1.021833	1.314295
H	0.428363	1.503941	1.219611
H	2.727698	0.0	0.0
