19

C	-0.489451	0.046973	-1.457749
C	0.0	0.0	0.0
Br	0.030895	-1.637892	-2.361566
H	1.090923	0.0	0.0
C	-1.995302	0.176491	-1.641087
H	-2.357978	1.092187	-1.161381
H	-2.528658	-0.668206	-1.207528
H	-2.230694	0.239165	-2.706641
C	0.276658	1.167821	-2.149385
H	0.086589	1.153301	-3.225411
H	-0.05296	2.132746	-1.751498
H	1.346221	1.051982	-1.9494
N	-0.56321	-1.203701	0.69953
O	0.153952	-2.187259	0.854365
O	-1.737773	-1.127293	1.078494
N	-0.345097	1.156394	0.778949
H	0.461216	1.769717	0.802357
H	-1.175953	1.644711	0.481738
H	2.799004	0.0	0.0
