19

C	-0.481697	0.050662	-1.459532
C	0.0	0.0	0.0
Br	0.008254	-1.653676	-2.345152
H	1.090931	0.0	0.0
C	-1.982457	0.21244	-1.655447
H	-2.32667	1.142863	-1.189659
H	-2.206892	0.268822	-2.723585
H	-2.5379	-0.614438	-1.215915
C	0.313822	1.149504	-2.153081
H	0.129006	1.134197	-3.229863
H	0.003399	2.122688	-1.759841
H	1.379024	1.012737	-1.947084
N	-0.561966	-1.205837	0.697807
O	-1.751336	-1.151063	1.029711
O	0.172534	-2.166203	0.902597
N	-0.348064	1.153559	0.782114
H	0.462569	1.758211	0.824422
H	-1.168779	1.651912	0.476285
H	2.808831	0.0	0.0
