13
Coordinates from ORCA-job run
  C   1.04830893921330      0.32960115751223     -0.21132216604901
  C   -0.29446741245933      0.38546952603762     -0.02520449565670
  H   1.64429001457808      1.18867348588029     -0.49028827426019
  N   1.84752972624193     -0.84769158364502     -0.04540753575998
  O   3.05127922016094     -0.71734122091715     -0.28450740570767
  O   1.32203085135614     -1.90610932595368      0.31286539709657
  N   -0.93569235034263      1.60095323729601     -0.09925394587592
  H   -0.42089284073491      2.36575716003978     -0.50757331551491
  H   -1.90684667113512      1.57718344883587     -0.36259037059606
  C   -1.17598918561468     -0.77034219746225      0.35063164259691
  H   -2.22080405609122     -0.45501042452137      0.38096008176389
  H   -1.06089785547875     -1.59600578823825     -0.34962822224223
  H   -0.89784837969374     -1.15613747486409      1.33131861020528
