13
Coordinates from ORCA-job run
  C   0.90201323182206     -0.51923478983172      0.15528974521121
  C   -0.33215499233331      0.03945105130343      0.01335400077514
  H   1.08163838673414     -1.39603051236802      0.75738636989599
  N   2.09099393766415      0.00513659785640     -0.43454635213059
  O   2.02115986906980      1.02051379656030     -1.14713402014400
  O   3.14366745569642     -0.58881511603643     -0.19386004621597
  N   -0.63753066853210      1.09777632559375     -0.77722562597591
  H   -1.50695395569038      1.57391658217635     -0.61009603630296
  H   0.13608253369967      1.62955211452774     -1.14623388441279
  C   -1.49696204450559     -0.59931103386523      0.71374869952033
  H   -2.24598193647258     -0.91417298641441     -0.01723582882883
  H   -1.18927780111276     -1.46799372793724      1.29368005163193
  H   -1.96869401603951      0.11721169843508      1.39287292697643
