13
Coordinates from ORCA-job run
  C   1.06214843631468      0.33908093477364     -0.09440652046091
  C   -0.29421276848095      0.37572962462607     -0.09024379197255
  H   1.67819405874163      1.21018629199839     -0.27515259781285
  N   1.84811582204121     -0.83994395070979      0.11640841328824
  O   3.07163853945645     -0.67846362783908      0.10608352112274
  O   1.29357705589442     -1.92852613363918      0.29622300179993
  N   -0.93806739987826      1.54583649366165     -0.42239095584696
  H   -0.38112479959269      2.38617192884486     -0.43905190742274
  H   -1.85785266003560      1.67412127055695     -0.03435255247262
  C   -1.20206613879364     -0.79225661032751      0.16564478888699
  H   -2.24481115895891     -0.46873694267814      0.16508033365928
  H   -1.06992196450911     -1.55138860436597     -0.60516606366703
  H   -0.96661702219924     -1.27181067490189      1.11432433089848
