13
Coordinates from ORCA-job run
  C   0.87413742732434     -0.58138330544684     -0.07123652825564
  C   -0.32556888312555      0.05087777155109      0.05771470516161
  H   1.04208126164327     -1.59189254847685      0.26695372572339
  N   2.04083285666718      0.02019150882613     -0.63015064597665
  O   3.06619710600471     -0.66298265240094     -0.65476503334925
  O   1.97990995279171      1.18566461479510     -1.05687106616577
  N   -0.62378161253965      1.28919592320147     -0.40654498345940
  H   -1.44058887277004      1.74511950448125     -0.03838946204831
  H   0.14920702937566      1.86193682023815     -0.70963036959259
  C   -1.46711578298075     -0.69286724757665      0.68969130478113
  H   -1.17173225181065     -1.69492364529516      0.99669416625404
  H   -1.82603161440137     -0.15576779621643      1.57282039350276
  H   -2.29754661617885     -0.77316894768033     -0.01628620657534
