13
Coordinates from ORCA-job run
  C   0.80112653794650     -0.61776040543260     -0.29070279011558
  C   -0.30740964325631      0.06173847249910      0.11621648072100
  H   0.80565047484702     -1.68380612254207     -0.45557243507445
  N   2.05259999770711     -0.00240279703501     -0.59047208778164
  O   2.95876434657470     -0.73919070147362     -0.98399798800286
  O   2.17577492715363      1.22616748295157     -0.45036404672006
  N   -0.36607184605729      1.38614039803944      0.39687529155878
  H   0.42068494767181      1.95079799942393      0.11515382301066
  H   -1.27174687889643      1.81834839178388      0.45285585396072
  C   -1.57110145423491     -0.70884477811420      0.37157391307025
  H   -1.44754753106591     -1.76681352024347      0.14565035803191
  H   -2.38459328471974     -0.31862991816002     -0.24727263598585
  H   -1.86613059367018     -0.60674450169692      1.41905626332714
