13
Coordinates from ORCA-job run
  C   0.80616118452879     -0.63480254606069     -0.23452081691125
  C   -0.32235581551288      0.07297626722170      0.05040953710754
  H   0.81889404720268     -1.71107995367449     -0.30606242693769
  N   2.09210564341471     -0.04814745459661     -0.42774195960884
  O   2.21297889287678      1.18708125634019     -0.36781695435395
  O   3.03128299660681     -0.81621998230669     -0.64366050228972
  N   -0.42137393131810      1.42402742301715      0.09291308442587
  H   0.44068140118054      1.94748154322821      0.08938401950849
  H   -1.22342419500979      1.82400369580767      0.54794899011053
  C   -1.60826521367148     -0.67453149928488      0.25801754072690
  H   -2.34690387968030     -0.36183987610044     -0.48436740626544
  H   -2.01537814727904     -0.45829341493446      1.25031523612236
  H   -1.46440298333872     -1.75065545865665      0.17518165836521
