13
Coordinates from ORCA-job run
  C   0.96455440876809      0.23438850030748     -0.51641811981715
  C   -0.32632884687830      0.34153516134100     -0.11240790692489
  H   1.44918324268609      0.96436395576124     -1.15146460844452
  N   1.83572819899134     -0.85400819352464     -0.18705397288486
  O   1.41906788232170     -1.79433108440776      0.49638646042636
  O   2.98712217431462     -0.77127330128099     -0.62372289537870
  N   -1.09956664895436      1.37316588698130     -0.59356823555841
  H   -1.86379426644409      1.66849299793083     -0.00897283457878
  H   -0.61794581017334      2.13206662956642     -1.05041557224426
  C   -1.05175540662425     -0.63100448335232      0.77165423038885
  H   -1.12220420448235     -1.60450866166053      0.28666204947347
  H   -0.51393895409906     -0.78940254986358      1.70496081400874
  H   -2.06012176942610     -0.27048485779843      0.98436059153417
