13
Coordinates from ORCA-job run
  C   1.01071915448643      0.27062994388010     -0.39592260315381
  C   -0.31481591459906      0.35059962485365     -0.11768505632769
  H   1.55601007332077      1.05025556951150     -0.91153698610620
  N   1.84837886150465     -0.84438362574252     -0.06869109629614
  O   1.36738062287868     -1.83616707435955      0.48799220499755
  O   3.03857649808630     -0.72979337980713     -0.37435989155807
  N   -1.03860321833533      1.42316121296848     -0.58663901561743
  H   -1.85822644470992      1.67284754737980     -0.05849933021830
  H   -0.51503000427030      2.21506755801227     -0.92639336412175
  C   -1.12325459757722     -0.68827077353666      0.60405695592006
  H   -1.13805884991200     -1.61900297900026      0.03713734932657
  H   -2.14999403942453     -0.34275236452853      0.73950409333706
  H   -0.68408214144849     -0.92419125963116      1.57203673981815
