13
Coordinates from ORCA-job run
  C   0.81080084480607     -0.62886047797730     -0.23352886347918
  C   -0.32383557624966      0.07436065586573      0.03693131832542
  H   0.81398145971507     -1.69690302153013     -0.38488039146324
  N   2.11186815168029     -0.04942653154005     -0.31704585790258
  O   3.05218048846251     -0.81447848330810     -0.53870840771549
  O   2.24341135025917      1.17635980021668     -0.16253073180208
  N   -0.41083800235152      1.42112778981167      0.16727140994772
  H   0.45656728549333      1.92877167321779      0.25249255478651
  H   -1.22952383013743      1.79757248796305      0.61299115863734
  C   -1.62739284177565     -0.66647052076848      0.12299772307187
  H   -1.49268203703993     -1.73497958401872     -0.03754834110882
  H   -2.32463399565569     -0.28489974754542     -0.62712701784215
  H   -2.07990329720654     -0.52217404038673      1.10868544654469
