13
Coordinates from ORCA-job run
  C   0.83234953262341     -0.64299190294378     -0.03528999417484
  C   -0.30574192692855      0.09354140683137      0.09900354348736
  H   0.90932852297301     -1.66533500556230      0.30020047372321
  N   2.02276716517049     -0.17102118420540     -0.66415020993803
  O   2.96321335089141     -0.96284206386363     -0.74871196791424
  O   2.06205557111952      0.99318995013313     -1.09682092298008
  N   -0.45062214073036      1.39767861323434     -0.24110932528773
  H   -1.38367697274087      1.76045555889464     -0.33160818247055
  H   0.28076365074566      1.80779472517069     -0.80170860547680
  C   -1.49923875419716     -0.53798403350750      0.75623177573841
  H   -1.77184315841704      0.02203311766734      1.65432501319126
  H   -1.30249974224494     -1.57180212492664      1.03570128285762
  H   -2.35685509826460     -0.52371705692226      0.07693711924442
