13
Coordinates from ORCA-job run
  C   0.99483129688535      0.36470143532229     -0.36001984151223
  C   -0.29588904462602      0.38059726422118      0.05792344232945
  H   1.55311417752443      1.26174682874733     -0.59373269955965
  N   1.77016153607156     -0.82090106912536     -0.57220685759306
  O   1.26346540393028     -1.93212036853132     -0.38981728905064
  O   2.93717774682515     -0.64202314898914     -0.93176665254443
  N   -0.97355155429334      1.57699518781854      0.10869963109453
  H   -0.42319249181171      2.41931891282955      0.04469776457597
  H   -1.73114766420556      1.63330723929623      0.76883449898761
  C   -1.11964881636177     -0.82532980986486      0.40617365945091
  H   -0.62396012578700     -1.43358169146161      1.16098186445270
  H   -1.24876315371564     -1.46269620164073     -0.46840575633751
  H   -2.10359731043571     -0.52001457862209      0.76763823570635
