13
Coordinates from ORCA-job run
  C   0.79122947098832     -0.50755302366969     -0.48651557962268
  C   -0.31692730562675     -0.00826622463005      0.08951999221094
  H   0.81709817029356     -1.42961673023655     -1.04936689772359
  N   2.05449777556670      0.21207605737046     -0.42867012075374
  O   2.54124007450983      0.43027105761233      0.68556081292080
  O   2.56437889282087      0.53818408422024     -1.49893448514659
  N   -0.37943242244153      1.24916751358401      0.67960611554792
  H   -1.02242511579418      1.30347154396858      1.45675855715809
  H   0.52024793078392      1.63074624766387      0.94134642859069
  C   -1.63988179592128     -0.71778726507672     -0.06444934032482
  H   -1.63804267749681     -1.66930250565117      0.47261914150669
  H   -2.45634902122438     -0.10658801412608      0.31970043585485
  H   -1.83563397645826     -0.92380274102924     -1.11717506021855
