13
Coordinates from ORCA-job run
  C   0.92727208153573      0.19519682597143     -0.59524226475776
  C   -0.31418826419477      0.36314279922392     -0.07414160927403
  H   1.39952963599480      0.91791705829478     -1.24764250701113
  N   1.75855532953607     -0.95029663673293     -0.37308824793594
  O   1.34545904336751     -1.89050154187360      0.31269281165247
  O   2.87383066258683     -0.91427771602957     -0.90047768034475
  N   -1.06347336743807      1.45259713092872     -0.45446952703862
  H   -1.75604076831056      1.77047371637659      0.20293403314893
  H   -0.58088531366606      2.19751861973552     -0.93267320377683
  C   -1.01602320428160     -0.59534388997885      0.84394041399990
  H   -1.97580467473384     -0.18247201806268      1.16078218146910
  H   -0.40628571395912     -0.81906954477070      1.71772860426064
  H   -1.19194544643693     -1.54488480308262      0.33865699560801
