16

C	0.0	0.0	0.0
C	-0.587197	0.171238	-1.397244
F	1.376061	0.0	0.0
H	-1.697673	0.203286	-1.257435
C	-0.416954	1.099606	0.89494
N	-0.644454	1.938485	1.683754
C	-0.457077	-1.328585	0.584937
H	-1.547641	-1.365244	0.605847
H	-0.062164	-1.408182	1.599352
H	-0.05296	-2.143111	-0.019558
C	-0.21264	-0.926935	-2.277532
N	0.100899	-1.831361	-2.958391
N	-0.193771	1.460361	-2.079279
O	-0.499423	1.54964	-3.26334
O	0.359741	2.323114	-1.408365
Br	-3.699144	0.0	0.0
