16

C	0.0	0.0	0.0
C	-0.5864	0.206563	-1.39254
F	1.37618	0.0	0.0
H	-1.696682	0.233885	-1.253864
C	-0.414656	1.080521	0.918929
N	-0.612273	1.880036	1.756292
C	-0.458359	-1.34066	0.552548
H	-0.055755	-1.450465	1.560978
H	-1.548908	-1.372654	0.579293
H	-0.063445	-2.139735	-0.077806
C	-0.21107	-0.865488	-2.304055
N	0.081578	-1.746315	-3.024368
N	-0.193121	1.51488	-2.038551
O	-0.533382	1.650421	-3.209315
O	0.398407	2.343752	-1.354934
Br	-3.692525	0.0	0.0
