16

C	-0.284639	-0.039803	-1.514428
C	0.0	0.0	0.0
F	0.152422	1.219759	-1.993832
H	1.095739	0.0	0.0
C	0.596641	-1.080026	-2.167577
H	1.607138	-0.914367	-1.782078
H	0.567584	-0.960009	-3.25525
H	0.252387	-2.082138	-1.903888
N	-1.669352	-0.211188	-1.808653
H	-1.803813	-0.164698	-2.812278
H	-2.200412	0.541244	-1.382633
C	-0.471447	-1.209464	0.652395
N	-0.827577	-2.203493	1.169071
C	-0.569166	1.185795	0.613657
N	-1.040014	2.15211	1.090888
F	2.518543	0.0	0.0
