16

C	-0.310716	-0.040419	-1.506591
C	0.0	0.0	0.0
F	0.143369	1.206391	-2.001929
H	1.095681	0.0	0.0
C	0.534865	-1.104461	-2.168087
H	0.482699	-0.995733	-3.255328
H	0.17738	-2.095967	-1.884879
H	1.556807	-0.955061	-1.809366
N	-1.70499	-0.183565	-1.772641
H	-2.212674	0.570841	-1.323143
H	-1.863398	-0.119467	-2.771655
C	-0.469798	-1.205172	0.661756
N	-0.822151	-2.196754	1.185798
C	-0.55772	1.188699	0.618915
N	-1.018806	2.156585	1.102258
F	2.513915	0.0	0.0
