16

C	-0.300395	-0.001222	-1.515826
C	0.0	0.0	0.0
F	0.000639	1.281571	-1.970488
H	1.096313	0.0	0.0
C	0.670726	-0.940527	-2.208686
H	0.416757	-1.980501	-1.986767
H	0.614723	-0.780066	-3.289212
H	1.670588	-0.721919	-1.821341
N	-1.70213	-0.204265	-1.785386
H	-2.056726	-0.970604	-1.227157
H	-1.82884	-0.442566	-2.761822
C	-0.459094	-1.239464	0.599773
N	-0.82715	-2.269467	1.033144
C	-0.561325	1.155901	0.674729
N	-0.988129	2.097405	1.233318
F	2.523446	0.0	0.0
