16

C	-0.164652	0.022283	-1.543988
C	0.0	0.0	0.0
F	0.072196	-1.325961	-1.945466
H	1.097516	0.0	0.0
C	-1.545231	0.356136	-2.060952
H	-1.829324	1.361977	-1.74836
H	-2.270729	-0.367584	-1.683089
H	-1.544771	0.308215	-3.153224
N	0.840778	0.893346	-2.021074
H	0.943321	0.800388	-3.023733
H	1.720348	0.670363	-1.526204
C	-0.595599	-1.167692	0.616583
N	-1.088454	-2.1046	1.127429
C	-0.487609	1.227639	0.60201
N	-0.886682	2.218362	1.093082
F	2.552281	0.0	0.0
