13

C	0.0	0.0	0.0
C	-0.396999	0.223361	-1.485464
Br	1.966165	0.0	0.0
H	0.05504	1.174378	-1.789376
H	-1.486968	0.299694	-1.399706
C	-0.451488	1.101751	0.84692
N	-0.588238	2.05641	1.520636
C	-0.446823	-1.297062	0.503143
N	-0.598239	-2.387571	0.91669
N	0.040606	-0.897701	-2.295656
H	-0.748083	-1.31986	-2.760309
H	0.739664	-0.63578	-2.973873
F	-2.462107	0.0	0.0
