13

C	0.0	0.0	0.0
C	-0.386332	0.378525	-1.458799
Br	1.965756	0.0	0.0
H	0.159233	1.294947	-1.700787
H	-1.46133	0.546537	-1.369383
C	-0.448115	1.017572	0.948072
N	-0.569926	1.916918	1.696129
C	-0.450828	-1.339456	0.365917
N	-0.597069	-2.469005	0.658069
N	-0.026009	-0.706877	-2.356478
H	0.48338	-0.372765	-3.160591
H	-0.863358	-1.181499	-2.663495
F	-2.439593	0.0	0.0
