13

C	0.0	0.0	0.0
C	-0.399161	-0.003444	-1.500988
Br	1.965143	0.0	0.0
H	-1.488828	-0.085759	-1.420897
H	0.046116	-0.902279	-1.943029
C	-0.444558	1.211254	0.6852
N	-0.596239	2.230757	1.250775
C	-0.452631	-1.209518	0.683293
N	-0.585968	-2.244583	1.22456
N	0.035377	1.226623	-2.136786
H	-0.748685	1.681925	-2.579467
H	0.766519	1.072828	-2.814649
F	-2.461747	0.0	0.0
