17

C	-0.523961	-0.012872	-1.41961
C	0.0	0.0	0.0
F	-1.903377	-0.350638	-1.42362
H	1.092645	0.0	0.0
N	-0.260467	1.154289	-2.129918
H	-0.705616	1.152078	-3.034929
H	-0.444171	1.989671	-1.597529
N	0.044318	-1.157646	-2.266668
O	0.679334	-2.052528	-1.727025
O	-0.228574	-1.095498	-3.465579
C	-0.467369	-1.164303	0.876177
H	-0.126547	-2.104344	0.448754
H	-1.552119	-1.181281	0.998847
H	0.005439	-1.054986	1.854499
C	-0.427453	1.254661	0.602468
N	-0.755388	2.277516	1.083278
H	2.678326	0.0	0.0
