17

C	-0.196326	-0.026667	-1.500406
C	0.0	0.0	0.0
F	-0.138808	1.282837	-2.001071
H	1.098887	0.0	0.0
N	0.733165	-0.889469	-2.063274
H	1.653989	-0.712076	-1.624516
H	0.752111	-0.821669	-3.071518
N	-1.610732	-0.429342	-1.968211
O	-1.715003	-0.858955	-3.115188
O	-2.543758	-0.242632	-1.192231
C	-0.414557	-1.28611	0.709865
H	-1.497295	-1.374625	0.810268
H	-0.024447	-2.137857	0.150732
H	0.044975	-1.298861	1.701245
C	-0.537281	1.18507	0.635736
N	-0.953022	2.118556	1.215898
H	2.703732	0.0	0.0
