17

C	-0.43918	0.082161	-1.442522
C	0.0	0.0	0.0
F	0.032502	-1.036547	-2.103024
H	1.10619	0.0	0.0
N	-1.825529	0.268195	-1.65571
H	-2.358503	-0.35894	-1.069647
H	-2.045292	0.111603	-2.632325
N	0.218252	1.256517	-2.174794
O	0.245526	1.164677	-3.400971
O	0.587165	2.211879	-1.510845
C	-0.353612	-1.355877	0.620191
H	-1.429484	-1.551246	0.687202
H	0.130887	-2.144158	0.04478
H	0.06429	-1.378967	1.628627
C	-0.541317	1.078052	0.803204
N	-0.985981	1.885954	1.533475
H	2.660162	0.0	0.0
