17

C	0.0	0.0	0.0
C	-0.394113	0.147243	-1.498747
F	1.360295	0.0	0.0
H	0.496709	-0.194483	-2.032638
C	-0.525765	0.99543	0.980945
H	-1.617307	0.953752	0.97314
H	-0.144166	0.736024	1.96794
H	-0.162885	1.985044	0.705407
N	-0.326786	-1.4374	0.415215
O	-0.106252	-2.288427	-0.444754
O	-0.633025	-1.649466	1.57912
N	-0.473474	1.621639	-1.844926
O	0.556906	2.255539	-1.622498
O	-1.502288	2.064662	-2.33156
C	-1.517088	-0.578831	-2.084701
N	-2.143447	-1.18777	-2.872418
Cl	-3.494012	0.0	0.0
