17

C	0.0	0.0	0.0
C	-0.389597	0.203077	-1.495675
F	1.360393	0.0	0.0
H	0.511701	-0.105181	-2.033172
C	-0.51468	0.960567	1.021568
H	-0.120543	0.663978	1.993135
H	-0.14866	1.957574	0.776933
H	-1.606073	0.926648	1.026914
N	-0.325282	-1.451974	0.363126
O	-0.119598	-2.270026	-0.530833
O	-0.613441	-1.706576	1.523281
N	-0.483833	1.68826	-1.794486
O	-1.500608	2.12912	-2.309651
O	0.528146	2.330272	-1.517631
C	-1.495191	-0.515099	-2.122029
N	-2.131974	-1.105456	-2.915541
Cl	-3.475221	0.0	0.0
