17

C	0.0	0.0	0.0
C	-0.396908	0.183746	-1.494469
F	1.360443	0.0	0.0
H	0.50111	-0.127146	-2.03627
C	-0.515579	0.972462	1.009786
H	-0.127454	0.68612	1.986618
H	-1.606899	0.932142	1.006835
H	-0.153163	1.967962	0.755486
N	-0.328825	-1.445354	0.379762
O	-0.092064	-2.276469	-0.495914
O	-0.650901	-1.684379	1.534218
N	-0.502755	1.663593	-1.808663
O	-1.527022	2.094201	-2.315958
O	0.508783	2.313683	-1.547979
C	-1.503047	-0.550672	-2.10106
N	-2.131298	-1.148565	-2.895607
Cl	-3.476751	0.0	0.0
