17

C	0.0	0.0	0.0
C	-0.629245	0.051059	-1.384545
F	1.354821	0.0	0.0
H	-1.728222	-0.072517	-1.234913
C	-0.496927	1.119951	0.87639
H	-0.07389	0.975677	1.870256
H	-0.14383	2.068856	0.468783
H	-1.587996	1.102887	0.915451
N	-0.377502	-1.33782	0.652125
O	-1.043407	-2.140286	0.012331
O	0.062921	-1.496876	1.786456
N	-0.169483	-1.026146	-2.340565
O	0.77867	-1.735058	-2.022487
O	-0.79508	-1.080774	-3.393642
C	-0.34324	1.326263	-2.029526
N	-0.074363	2.358719	-2.520799
Cl	-3.625103	0.0	0.0
