17

C	0.0	0.0	0.0
C	-0.62473	0.029109	-1.3865
F	1.361768	0.0	0.0
H	-1.722299	-0.105034	-1.236417
C	-0.495658	1.133169	0.858338
H	-0.07684	1.002915	1.855745
H	-1.587286	1.117212	0.891856
H	-0.140259	2.075164	0.437322
N	-0.374279	-1.329214	0.674632
O	-1.016076	-2.154923	0.039639
O	0.047268	-1.46029	1.819402
N	-0.148482	-1.051196	-2.332101
O	-0.755372	-1.107201	-3.395601
O	0.79225	-1.759846	-1.996323
C	-0.355027	1.302245	-2.042277
N	-0.113643	2.33178	-2.553268
Cl	-3.623736	0.0	0.0
