11
Coordinates from ORCA-job run
  C   -0.59410742346212      0.17985534359500      0.09008786153040
  C   0.88147410224196     -0.19058396234627      0.01302538366871
  F   -0.95638626831719      0.24248332622334      1.42092517531857
  H   1.18714659230508     -0.32401347730276     -1.02893000598530
  H   -0.76256348214519      1.18927609476813     -0.30866484878252
  H   1.00797985052478     -1.14435492678424      0.53054459676117
  N   -1.37792949823997     -0.85923662334128     -0.51747479398980
  H   -2.36126004725740     -0.62632492817481     -0.45045581389375
  H   -1.14208684150784     -0.95942216925123     -1.49669161828603
  C   1.72495679040243      0.82951961770216      0.63097607119662
  N   2.39277622545546      1.66280170491194      1.11565799246192
