11
Coordinates from ORCA-job run
  C   -0.73564496936897      0.32446407716211      0.01079061633125
  C   0.71937102198353      0.76399112270245     -0.10696183539254
  F   -1.04454132711505      0.30722779289293      1.38418299539206
  H   0.86120834669365      1.69286920122487      0.44894625320095
  H   -1.38779707577335      1.08157140909426     -0.43025922049161
  H   0.95768584426546      0.94179629483020     -1.15782266200744
  N   -0.95713847837068     -0.91578390664173     -0.62350585535101
  H   -1.93383622783677     -1.17433170072892     -0.59495923546347
  H   -0.40543335853807     -1.65145603075191     -0.19889009368979
  C   1.61768426532487     -0.25920483019409      0.42520796741143
  N   2.30844195873537     -1.11014342959017      0.84327107006017
