11
Coordinates from ORCA-job run
  C   -0.70339741828819      0.37039055644385     -0.12026719532992
  C   0.78271076258274      0.70431768340813     -0.05603578644974
  F   -1.20384209915470      0.48736993320740      1.18986251485161
  H   0.91547559725787      1.66698026755454      0.44176431792483
  H   -1.22682761005890      1.12808251732625     -0.70781290919302
  H   1.17851494128524      0.77559671368840     -1.07147925228749
  N   -0.92565918818618     -0.90207779127932     -0.68801471704928
  H   -1.91361483615202     -1.09362293935498     -0.78371423772828
  H   -0.49842354376145     -1.63339479214338     -0.13210299067528
  C   1.51843818702013     -0.32440748386727      0.67687484801902
  N   2.07862520745545     -1.18023466498363      1.25092540791754
