16

C	-0.415312	-0.002396	-1.449464
C	0.0	0.0	0.0
Br	-2.405379	0.099575	-1.629777
H	1.093847	0.0	0.0
H	-0.198404	-1.01674	-1.784824
C	0.251718	1.008877	-2.353277
H	1.323066	0.975882	-2.122616
H	-0.11018	2.017753	-2.172512
H	0.085879	0.74366	-3.400584
N	-0.425105	-1.173056	0.692968
H	-1.333015	-1.028306	1.115751
H	0.24672	-1.350811	1.431349
N	-0.392338	1.263223	0.695717
O	-0.056028	2.3291	0.175133
O	-0.966404	1.182402	1.788033
H	2.647805	0.0	0.0
