16

C	-0.515783	-0.117616	-1.426625
C	0.0	0.0	0.0
Br	-0.188616	1.550861	-2.419
H	1.090837	0.0	0.0
H	-1.606051	-0.215787	-1.427411
C	0.18742	-1.259222	-2.141266
H	-0.089008	-2.211364	-1.676694
H	-0.096465	-1.294586	-3.194441
H	1.268775	-1.127576	-2.045409
N	-0.386651	-1.116357	0.822907
H	-1.196474	-1.615339	0.481818
H	0.412513	-1.730771	0.918247
N	-0.597515	1.225504	0.633036
O	0.140299	2.08105	1.106316
O	-1.831824	1.268846	0.654506
H	2.840873	0.0	0.0
