16

C	-0.595842	-0.045742	-1.387242
C	0.0	0.0	0.0
Br	0.187634	1.350435	-2.538876
H	1.096707	0.0	0.0
H	-1.659706	0.19631	-1.357092
C	-0.336199	-1.393781	-2.038783
H	0.737197	-1.596779	-2.043915
H	-0.700825	-1.399931	-3.067919
H	-0.850602	-2.17134	-1.469517
N	-0.352377	-1.223561	0.746061
H	0.423844	-1.85882	0.542009
H	-0.200435	-0.969201	1.719306
N	-0.452645	1.146955	0.771155
O	-1.053433	2.073874	0.208327
O	-0.142289	1.163254	1.97429
H	2.56594	0.0	0.0
