16

C	-0.507295	-0.110517	-1.43156
C	0.0	0.0	0.0
Br	-0.232012	1.575632	-2.405501
H	1.090858	0.0	0.0
H	-1.593859	-0.243113	-1.440154
C	0.236648	-1.22042	-2.155116
H	-0.004876	-2.183573	-1.697129
H	1.312206	-1.051448	-2.052291
H	-0.043605	-1.258996	-3.209871
N	-0.38616	-1.126131	0.809088
H	-1.203631	-1.612308	0.467736
H	0.409025	-1.748882	0.888272
N	-0.605011	1.217096	0.637842
O	-1.839324	1.240677	0.678741
O	0.127239	2.089014	1.090691
H	2.841107	0.0	0.0
