16

C	-0.500481	-0.051227	-1.447318
C	0.0	0.0	0.0
Br	0.217059	-1.642381	-2.33157
H	1.090646	0.0	0.0
H	-0.061499	0.785435	-1.990254
C	-2.013158	-0.075832	-1.553342
H	-2.440767	0.814754	-1.075776
H	-2.324451	-0.089703	-2.600972
H	-2.403512	-0.968725	-1.05825
N	-0.465833	-1.082677	0.813396
H	-1.236869	-0.76411	1.392212
H	0.300599	-1.347756	1.42841
N	-0.409671	1.324674	0.517075
O	-1.015302	1.400098	1.603841
O	-0.090492	2.315122	-0.15729
H	2.617661	0.0	0.0
