16

C	-0.478263	0.003919	-1.452779
C	0.0	0.0	0.0
Br	-0.014815	-1.715189	-2.283945
H	1.090659	0.0	0.0
H	0.1149	0.732077	-2.00141
C	-1.966631	0.251479	-1.638602
H	-2.205745	1.254388	-1.279332
H	-2.568497	-0.473628	-1.086622
H	-2.245414	0.187475	-2.692201
N	-0.451742	-1.055507	0.84293
H	0.349136	-1.632676	1.060246
H	-1.163609	-1.626842	0.41717
N	-0.382679	1.338903	0.556648
O	-0.803839	1.445646	1.708196
O	-0.155361	2.305642	-0.187217
H	2.644389	0.0	0.0
