16

C	-0.399121	-0.00521	-1.454225
C	0.0	0.0	0.0
Br	-2.385359	0.047552	-1.655729
H	1.093839	0.0	0.0
H	-0.147029	-1.009813	-1.794147
C	0.252268	1.033416	-2.338502
H	0.089262	0.785336	-3.389455
H	-0.126751	2.032137	-2.140183
H	1.323063	1.014112	-2.108421
N	-0.440168	-1.169258	0.690226
H	-1.37632	-1.038742	1.046098
H	0.179335	-1.311664	1.478455
N	-0.402776	1.268476	0.681581
O	-1.074595	1.199517	1.7186
O	0.017537	2.324264	0.205772
H	2.658081	0.0	0.0
