16

C	-0.325027	-0.012661	-1.47941
C	0.0	0.0	0.0
Br	-2.291095	-0.164834	-1.811225
H	1.093177	0.0	0.0
H	0.059177	-0.970996	-1.836563
C	0.261363	1.110465	-2.303071
H	1.320461	1.175009	-2.029438
H	0.161521	0.888939	-3.368355
H	-0.214157	2.064711	-2.086744
N	-0.407591	-1.138145	0.751026
H	0.354151	-1.80443	0.754963
H	-1.264113	-1.554032	0.413174
N	-0.500193	1.255122	0.634446
O	-1.409903	1.192192	1.462404
O	0.039561	2.305987	0.275258
H	2.687194	0.0	0.0
