12

C	0.0	0.0	0.0
C	-0.250083	-0.110239	-1.509147
F	1.357628	0.0	0.0
H	0.421055	-0.920968	-1.812741
H	-0.417722	-0.770608	0.637331
H	0.174772	0.80729	-1.924842
N	-0.371872	1.3282	0.600799
O	-0.356431	2.308882	-0.136338
O	-0.505345	1.340873	1.819273
C	-1.512537	-0.361222	-2.204235
N	-2.205398	-0.607346	-3.124039
Cl	-3.090531	0.0	0.0
