12

C	0.0	0.0	0.0
C	-0.541252	-0.160221	-1.398254
F	1.348337	0.0	0.0
H	-1.64073	-0.166812	-1.308636
H	-0.387465	-0.735406	0.701847
H	-0.228683	0.693082	-2.002506
N	-0.37591	1.350667	0.569153
O	-0.476819	1.406224	1.789644
O	-0.423742	2.300114	-0.207034
C	-0.04578	-1.396504	-1.988999
N	0.363634	-2.384802	-2.471917
Cl	-3.453461	0.0	0.0
