12

C	0.0	0.0	0.0
C	-0.531764	0.108602	-1.4116
F	1.348734	0.0	0.0
H	-1.588064	0.399251	-1.34604
H	-0.40019	-0.855155	0.539694
H	-0.507695	-0.890933	-1.855896
N	-0.359098	1.212239	0.830055
O	-0.505631	2.281181	0.246955
O	-0.348543	1.040188	2.045251
C	0.251645	1.008382	-2.250556
N	0.874816	1.691773	-2.973168
Cl	-3.403355	0.0	0.0
