16

C	-0.496804	0.024626	-1.433224
C	0.0	0.0	0.0
Br	0.517321	-1.115646	-2.622508
H	1.094624	0.0	0.0
N	-2.013399	-0.326366	-1.527843
O	-2.449968	-0.835582	-2.54508
O	-2.668197	0.024721	-0.552453
C	-0.411579	1.382172	-1.966124
N	-0.388338	2.441157	-2.475059
N	-0.442681	-1.254257	0.668401
O	-0.405539	-1.266603	1.898432
O	-0.78514	-2.213923	-0.028984
N	-0.353864	1.179141	0.716814
H	0.380205	1.375925	1.384122
H	-1.249252	1.102439	1.180531
F	2.47583	0.0	0.0
