16

C	-0.342761	0.058999	-1.468982
C	0.0	0.0	0.0
F	-1.726639	0.329039	-1.651594
H	1.091423	0.0	0.0
H	-0.157003	-0.914851	-1.922421
C	0.481582	1.140576	-2.127889
H	0.385421	1.11066	-3.214385
H	1.51584	0.977804	-1.813358
H	0.155917	2.122914	-1.776691
N	-0.514064	-1.292433	0.569181
O	-1.189945	-1.289169	1.596505
O	-0.207991	-2.317528	-0.047771
N	-0.44623	1.115977	0.770029
H	-1.253846	1.572016	0.371057
H	0.323069	1.756842	0.887442
F	2.605039	0.0	0.0
