16

C	-0.401045	-0.289093	-1.468038
C	0.0	0.0	0.0
F	-0.701391	0.921954	-2.098231
H	1.090694	0.0	0.0
H	-1.322383	-0.884499	-1.519059
C	0.74142	-0.951411	-2.213281
H	0.613382	-0.79786	-3.288613
H	0.74805	-2.020194	-1.995756
H	1.68428	-0.536916	-1.841616
N	-0.446311	-1.203362	0.797605
O	-1.084379	-1.02469	1.840653
O	-0.162746	-2.321112	0.358852
N	-0.499205	1.221177	0.523869
H	-1.476502	1.150501	0.782326
H	0.03771	1.461736	1.347833
F	2.631024	0.0	0.0
