16

C	-0.430938	0.071878	-1.437514
C	0.0	0.0	0.0
F	-1.84025	0.199114	-1.527496
H	1.095781	0.0	0.0
H	-0.178577	-0.863745	-1.935225
C	0.237288	1.251693	-2.098425
H	0.059601	1.256959	-3.177637
H	1.305927	1.175931	-1.877353
H	-0.148068	2.171713	-1.657672
N	-0.434629	-1.322081	0.587231
O	-0.257102	-2.339391	-0.081705
O	-0.908566	-1.329657	1.727578
N	-0.451922	1.116713	0.76655
H	-1.398089	0.978232	1.099456
H	0.161222	1.225542	1.564611
F	2.58764	0.0	0.0
