16

C	-0.402452	-0.227337	-1.46558
C	0.0	0.0	0.0
F	-0.254258	0.98491	-2.136352
H	1.090732	0.0	0.0
H	-1.466619	-0.495168	-1.559204
C	0.530983	-1.232553	-2.111695
H	0.297645	-2.250771	-1.797047
H	1.544222	-0.986986	-1.775926
H	0.442979	-1.167536	-3.199582
N	-0.511022	-1.237556	0.726383
O	0.17271	-2.259293	0.718521
O	-1.630908	-1.169171	1.258589
N	-0.54577	1.1923	0.555877
H	0.026887	1.470158	1.341181
H	-1.498593	1.047623	0.864224
F	2.634914	0.0	0.0
