15

C	0.0	0.0	0.0
C	-0.263271	0.068338	-1.542098
F	1.400985	0.0	0.0
H	0.444698	-0.689631	-1.904772
N	-0.480874	1.130146	0.685469
H	-0.139411	1.99736	0.296844
H	-0.278572	1.067494	1.671487
N	-0.417263	-1.262221	0.523202
H	-1.418785	-1.195103	0.712237
H	0.11123	-1.451414	1.360832
C	0.181604	1.35922	-2.068184
N	0.521182	2.409062	-2.470278
C	-1.539848	-0.307505	-2.170741
N	-2.126167	-0.653481	-3.136763
Br	-3.621499	0.0	0.0
