15

C	0.0	0.0	0.0
C	-0.484671	-0.093259	-1.464722
F	1.370787	0.0	0.0
H	-1.589953	-0.086831	-1.420425
N	-0.416927	1.27924	0.506801
H	-1.437842	1.269137	0.541503
H	-0.067947	1.379862	1.454926
N	-0.423899	-1.199912	0.667429
H	-1.445761	-1.18852	0.677111
H	-0.103694	-1.161843	1.629785
C	-0.02824	-1.333594	-2.095704
N	0.324212	-2.305392	-2.65163
C	-0.019352	1.053114	-2.248218
N	0.342392	1.942254	-2.923576
Br	-3.646526	0.0	0.0
