15

C	0.0	0.0	0.0
C	-0.478823	-0.203157	-1.454396
F	1.385541	0.0	0.0
H	-1.58363	-0.168114	-1.414673
N	-0.411246	1.315407	0.40583
H	-0.059038	1.487523	1.342007
H	-1.432046	1.310911	0.44351
N	-0.420498	-1.143517	0.75838
H	-0.107735	-1.025429	1.716847
H	-1.442536	-1.138256	0.759339
C	-0.053419	-1.501217	-1.9821
N	0.280026	-2.5209	-2.458271
C	0.016403	0.864732	-2.325091
N	0.411142	1.684351	-3.066541
Br	-3.641897	0.0	0.0
