15

C	0.0	0.0	0.0
C	-0.477622	0.350059	-1.423946
F	1.393129	0.0	0.0
H	-1.582938	0.337843	-1.374689
N	-0.411039	1.063097	0.874165
H	-0.160399	0.804925	1.822123
H	-1.431354	1.111472	0.837759
N	-0.419398	-1.345222	0.268501
H	-0.011079	-1.646713	1.145767
H	-1.437969	-1.326899	0.367123
C	-0.018248	-0.652496	-2.384714
N	0.361925	-1.409869	-3.197206
C	-0.021335	1.677784	-1.838503
N	0.322447	2.73487	-2.214384
Br	-3.642209	0.0	0.0
