17

C	-0.243547	-0.03771	-1.52716
C	0.0	0.0	0.0
Br	0.279932	1.705144	-2.306615
H	1.096695	0.0	0.0
C	0.674568	-1.096374	-2.135158
H	0.33667	-2.086368	-1.815765
H	1.666696	-0.89559	-1.70995
H	0.672212	-1.048093	-3.225434
C	-1.649931	-0.214036	-1.884842
N	-2.78266	-0.388431	-2.152854
C	-0.473333	-1.262651	0.546801
N	-0.861325	-2.272075	1.011428
C	-0.604852	1.175326	0.755065
H	-0.097601	2.09499	0.466436
H	-0.447704	1.028863	1.825982
H	-1.680398	1.282317	0.574448
F	2.59212	0.0	0.0
