17

C	-0.280973	-0.02085	-1.516839
C	0.0	0.0	0.0
Br	0.315595	1.692054	-2.307986
H	1.096695	0.0	0.0
C	0.562898	-1.125158	-2.148852
H	1.575198	-0.974281	-1.75527
H	0.183276	-2.097004	-1.820199
H	0.534663	-1.076607	-3.238443
C	-1.705284	-0.11915	-1.833449
N	-2.855029	-0.224873	-2.062154
C	-0.479945	-1.256766	0.554162
N	-0.872891	-2.261397	1.025306
C	-0.572648	1.179205	0.775785
H	-0.358307	1.040325	1.838277
H	-1.656609	1.283492	0.649702
H	-0.081029	2.097876	0.455652
F	2.581617	0.0	0.0
