17

C	-0.200725	0.078895	-1.511945
C	0.0	0.0	0.0
Br	-2.10797	0.448789	-2.038934
H	1.099001	0.0	0.0
C	0.707482	1.155876	-2.100784
H	0.351389	2.147428	-1.816337
H	1.692669	0.963535	-1.649579
H	0.736709	1.091161	-3.18919
C	0.109597	-1.210583	-2.128915
N	0.374728	-2.240946	-2.629269
C	-0.586237	-1.190376	0.579146
N	-1.061352	-2.135261	1.094971
C	-0.411872	1.256677	0.762243
H	0.214103	2.092571	0.447453
H	-1.467067	1.510603	0.627285
H	-0.220316	1.096243	1.82514
F	2.571948	0.0	0.0
