17

C	-0.202387	0.088993	-1.511855
C	0.0	0.0	0.0
Br	-2.102799	0.485909	-2.032561
H	1.09897	0.0	0.0
C	0.719767	1.154325	-2.097425
H	0.743669	1.094494	-3.185643
H	1.702007	0.948277	-1.650597
H	0.380117	2.147668	-1.804264
C	0.08868	-1.200333	-2.140711
N	0.338721	-2.20946	-2.69109
C	-0.589739	-1.191987	0.572131
N	-1.064454	-2.140841	1.080984
C	-0.405866	1.254151	0.77025
H	-1.459924	1.514154	0.639313
H	-0.212087	1.087893	1.831385
H	0.223375	2.08863	0.457866
F	2.574864	0.0	0.0
