17

C	-0.210977	0.086189	-1.511084
C	0.0	0.0	0.0
Br	-2.107644	0.529116	-2.018223
H	1.098941	0.0	0.0
C	0.732162	1.127131	-2.110162
H	0.415276	2.13094	-1.824293
H	1.713503	0.904539	-1.664619
H	0.747527	1.059298	-3.199053
C	0.040127	-1.212454	-2.134913
N	0.252546	-2.234863	-2.675337
C	-0.588398	-1.189079	0.579812
N	-1.064519	-2.134459	1.093689
C	-0.400214	1.253875	0.773181
H	-1.466424	1.483297	0.692557
H	-0.146701	1.104712	1.825164
H	0.188289	2.101808	0.4202
F	2.576203	0.0	0.0
