17

C	-0.496641	-0.039002	-1.44828
C	0.0	0.0	0.0
Br	0.374992	-1.547807	-2.386622
H	1.107899	0.0	0.0
C	-2.005731	-0.222777	-1.604663
H	-2.304971	-1.16233	-1.137716
H	-2.524185	0.603218	-1.108938
H	-2.29071	-0.238493	-2.658302
C	-0.087309	1.174404	-2.156077
N	0.139649	2.171556	-2.736404
C	-0.510183	-1.148514	0.72116
N	-0.932773	-2.064454	1.328726
C	-0.369186	1.301203	0.71986
H	-1.446247	1.489044	0.800702
H	0.05316	1.253579	1.725744
H	0.111926	2.138241	0.209997
F	2.519323	0.0	0.0
