17

C	-0.462861	0.031544	-1.460566
C	0.0	0.0	0.0
Br	0.327099	-1.506673	-2.419797
H	1.095522	0.0	0.0
C	-1.974955	-0.036615	-1.659842
H	-2.235505	-0.020533	-2.721785
H	-2.359056	-0.957008	-1.216652
H	-2.445279	0.820124	-1.167043
C	0.066288	1.232859	-2.106551
N	0.43139	2.225102	-2.621561
C	-0.543269	-1.165999	0.666844
N	-1.00298	-2.090934	1.23429
C	-0.36115	1.278315	0.764591
H	0.053586	1.197467	1.769847
H	0.130634	2.127073	0.286321
H	-1.43617	1.473391	0.843344
F	2.519788	0.0	0.0
