16

C	0.0	0.0	0.0
C	-0.487809	-0.102564	-1.460963
Br	1.94948	0.0	0.0
H	0.362356	-0.209384	-2.142409
H	-0.283788	0.969231	0.397128
C	-0.503623	-1.102901	0.90746
H	-0.099582	-0.96317	1.914029
H	-1.593129	-0.98609	0.906699
H	-0.218066	-2.085838	0.532032
N	-1.000529	1.318114	-1.90123
O	-0.549426	2.321732	-1.355127
O	-1.751511	1.335829	-2.872037
N	-1.440416	-1.113014	-1.676957
H	-2.263427	-0.821362	-1.066918
H	-1.699553	-1.110933	-2.655455
F	-2.967845	0.0	0.0
