16

C	0.0	0.0	0.0
C	-0.636402	-0.132954	-1.385781
Br	1.95498	0.0	0.0
H	-1.685024	-0.408738	-1.116636
H	-0.296754	0.98629	0.353668
C	-0.478807	-1.048482	0.989506
H	-0.156415	-2.04544	0.686922
H	-0.088194	-0.832492	1.987639
H	-1.572705	-0.955357	0.957548
N	0.022757	-1.235074	-2.152885
O	0.796669	-0.943586	-3.063449
O	-0.228152	-2.388555	-1.795755
N	-0.678902	1.058745	-2.179206
H	0.176491	1.595176	-2.093608
H	-1.460976	1.591173	-1.816406
F	-2.891568	0.0	0.0
