16

C	0.0	0.0	0.0
C	-0.63254	0.040368	-1.373536
Br	1.958786	0.0	0.0
H	-1.73502	-0.030464	-1.071853
H	-0.276639	0.96405	0.423622
C	-0.488645	-1.106286	0.916944
H	-1.582876	-1.034545	0.857839
H	-0.136153	-0.914959	1.93448
H	-0.135311	-2.085818	0.596697
N	-0.258114	-1.191785	-2.175984
O	0.392423	-1.039464	-3.216237
O	-0.635846	-2.28677	-1.76226
N	-0.326492	1.24847	-2.067964
H	0.609902	1.20436	-2.451641
H	-0.973473	1.365568	-2.835867
F	-2.914446	0.0	0.0
