16

C	0.0	0.0	0.0
C	-0.34017	-0.170257	-1.503238
Br	1.953653	0.0	0.0
H	0.296718	-0.96156	-1.909359
H	-0.307541	0.989868	0.333983
C	-0.622996	-1.085271	0.83637
H	-1.708526	-0.923194	0.747369
H	-0.313275	-1.000739	1.879712
H	-0.351659	-2.077659	0.46611
N	0.182308	1.073786	-2.237954
O	0.76365	0.891235	-3.306451
O	-0.084735	2.176413	-1.766791
N	-1.687413	-0.331013	-1.883201
H	-1.847555	-1.290557	-2.146862
H	-2.405879	-0.071715	-1.113796
F	-3.27509	0.0	0.0
