16

C	0.0	0.0	0.0
C	-0.617003	-0.133431	-1.390178
Br	1.95951	0.0	0.0
H	-1.702548	-0.253947	-1.117243
H	-0.294825	0.992899	0.338388
C	-0.494489	-1.034851	0.993483
H	-0.128172	-0.799377	1.996433
H	-1.589059	-0.946064	0.934236
H	-0.163633	-2.037355	0.719377
N	-0.11557	-1.377705	-2.055807
O	-0.613878	-2.447953	-1.698917
O	0.779457	-1.275126	-2.895001
N	-0.43191	0.978373	-2.277419
H	0.503844	1.359855	-2.196757
H	-1.113041	1.679718	-2.017856
F	-2.90099	0.0	0.0
