14
Coordinates from ORCA-job run
  C   -0.54786261950089     -0.46424587751765      0.18384966599721
  C   0.54245337791977      0.48999597529683     -0.26015263958715
  F   -0.34163154290381     -0.76641487352746      1.53776891142348
  H   0.43591545374864      1.41633282397596      0.31491258500170
  H   -0.45491457237612     -1.41519001475968     -0.35439873393272
  H   0.36806968926895      0.74308885456258     -1.31181058879581
  C   -1.94660925526951      0.09131102510633      0.03899404668537
  H   -2.17354068616498      0.29416732748790     -1.01026985967542
  H   -2.04031088360315      1.02086652838190      0.60462576218017
  H   -2.67924037731571     -0.62121162025697      0.42184807057057
  C   1.94224390199526     -0.08613597372846     -0.07651760457238
  H   2.12061500834368     -0.32959122091682      0.97125238691030
  H   2.06958272063931     -1.00049230238939     -0.66241034771363
  H   2.70622978521858      0.62551934828493     -0.39669165449168
