17

C	-0.383471	0.006079	-1.496446
C	0.0	0.0	0.0
F	-0.03218	-1.300626	-1.926572
H	1.092017	0.0	0.0
C	-1.860626	0.148572	-1.785863
H	-2.417892	-0.648039	-1.291281
H	-2.233169	1.114581	-1.448802
H	-2.015197	0.061826	-2.864953
N	0.393529	1.00164	-2.121852
H	1.375045	0.913293	-1.859171
H	0.295021	0.953512	-3.127966
C	-0.558989	-1.145053	0.698282
N	-1.014372	-2.077481	1.247948
N	-0.481588	1.266833	0.644046
O	-1.617387	1.256833	1.12602
O	0.27282	2.230364	0.613724
Br	3.403243	0.0	0.0
