17

C	-0.507763	-0.015107	-1.47529
C	0.0	0.0	0.0
F	-0.207454	1.256494	-1.95054
H	1.090946	0.0	0.0
C	0.291548	-1.029646	-2.259482
H	0.09706	-2.042171	-1.895866
H	-0.004227	-0.959944	-3.307767
H	1.356622	-0.817685	-2.145856
N	-1.916726	-0.200192	-1.654209
H	-2.430677	0.345093	-0.970458
H	-2.156031	-1.174932	-1.528943
C	-0.513481	-1.166857	0.699692
N	-0.930771	-2.143404	1.201883
N	-0.515482	1.241387	0.660545
O	-1.719649	1.255036	0.944253
O	0.262722	2.168829	0.824114
Br	3.436307	0.0	0.0
