17

C	-0.493583	-0.030205	-1.462493
C	0.0	0.0	0.0
F	-0.110364	1.231191	-1.978898
H	1.090796	0.0	0.0
C	0.256464	-1.07899	-2.245749
H	1.328878	-0.90246	-2.159948
H	0.011719	-2.071058	-1.864465
H	-0.044782	-1.016732	-3.295637
N	-1.898622	-0.20888	-1.560292
H	-2.181412	-0.132376	-2.529245
H	-2.380342	0.490438	-1.009564
C	-0.529529	-1.111169	0.76969
N	-0.917949	-2.025964	1.39454
N	-0.450703	1.299997	0.62734
O	0.412752	2.085481	0.984182
O	-1.667014	1.487605	0.716901
Br	3.417153	0.0	0.0
