17

C	-0.47933	0.098496	-1.465152
C	0.0	0.0	0.0
F	-1.815958	0.59566	-1.416754
H	1.090667	0.0	0.0
C	0.34664	1.059932	-2.287597
H	0.019224	1.00321	-3.330529
H	1.400956	0.791136	-2.202903
H	0.210793	2.076191	-1.928874
N	-0.441219	-1.19644	-2.031226
H	-1.084865	-1.830392	-1.574693
H	-0.633217	-1.158335	-3.022593
C	-0.528047	-1.188358	0.656494
N	-0.936481	-2.188122	1.118267
N	-0.438535	1.215132	0.767783
O	0.032206	2.2854	0.400635
O	-1.222309	1.066152	1.701832
Br	3.387743	0.0	0.0
