17

C	-0.374303	0.019137	-1.499566
C	0.0	0.0	0.0
F	-0.040339	-1.291414	-1.933161
H	1.092041	0.0	0.0
C	-1.845406	0.188417	-1.802535
H	-2.423831	-0.596144	-1.312159
H	-2.20259	1.16279	-1.471324
H	-1.989024	0.102224	-2.883243
N	0.423796	1.003718	-2.114319
H	1.401555	0.899164	-1.844167
H	0.333444	0.958855	-3.120279
C	-0.565821	-1.147484	0.68732
N	-1.027939	-2.082966	1.225418
N	-0.481288	1.264282	0.647909
O	-1.621857	1.256349	1.118747
O	0.276841	2.225312	0.630019
Br	3.407086	0.0	0.0
