17

C	-0.502335	-0.042668	-1.477296
C	0.0	0.0	0.0
F	-0.24533	1.236121	-1.958633
H	1.091001	0.0	0.0
C	0.336831	-1.033195	-2.249759
H	1.392005	-0.77687	-2.139429
H	0.187023	-2.047968	-1.872233
H	0.037805	-0.990478	-3.298569
N	-1.902691	-0.279776	-1.65935
H	-2.105737	-1.261949	-1.529919
H	-2.438111	0.249327	-0.979775
C	-0.508413	-1.158845	0.71758
N	-0.92781	-2.127083	1.233806
N	-0.524182	1.246912	0.6412
O	-1.732558	1.264658	0.90086
O	0.253757	2.172216	0.814646
Br	3.432025	0.0	0.0
