17
Coordinates from ORCA-job run
  C   0.83796267964700     -0.49277634644853     -0.03407856050538
  C   -0.62730722438232     -0.33791628889807     -0.41140450134949
  F   1.29426922762204     -1.71466825265383     -0.29693631095430
  H   -0.73547030376374     -0.90767026420563     -1.34089188270416
  N   1.17357586569057     -0.14193481398973      1.40309090869809
  O   0.42553757114292      0.65144462282777      1.95585166892388
  O   2.18505040220959     -0.66082430571884      1.84663833235489
  N   1.63879093404376      0.48038790706146     -0.90207023483068
  O   2.03246655729394      1.51427636620341     -0.38131141866188
  O   1.75574908237477      0.12760721518706     -2.06729207716651
  C   -1.12823294013533      1.07987894060824     -0.60936225746614
  H   -1.00022765216989      1.67424138399580      0.29226154943840
  H   -0.59555383051233      1.55145511800364     -1.43636882392412
  H   -2.18422641303516      1.04014876345827     -0.87005426045128
  N   -1.47975456786726     -1.09119405133095      0.58893420127591
  O   -2.68808086999619     -0.91954911869628      0.50241434744884
  O   -0.90754851816235     -1.85290687540378      1.36157931987391
