17
Coordinates from ORCA-job run
  C   0.84112735462254     -0.39104907153913      0.04602011592404
  C   -0.58363030605543     -0.34248236522051     -0.47924005269686
  F   1.25309828614299     -1.65867596480619      0.15380121535187
  H   -0.55426692360268     -0.79253622973568     -1.47224269392277
  N   1.05534791537372      0.30391771917195      1.37945704932687
  O   0.89786369821508      1.51741500724356      1.33240928674626
  O   1.37050149191641     -0.38665388309090      2.33103014579923
  N   1.82142703748231      0.29763374194652     -0.90045220608365
  O   2.96346289413853      0.38597108143618     -0.47195728902280
  O   1.40459790875830      0.63490924679774     -2.00176224750377
  C   -1.28810106749024      1.00070757720062     -0.49885750984817
  H   -0.72829494285021      1.71506578754439     -1.09933474048321
  H   -2.27160228372075      0.86030611923758     -0.95190380116548
  H   -1.41002624872882      1.39413482400256      0.50791666148546
  N   -1.38562635102315     -1.29150708173954      0.36795506104165
  O   -1.40193569758396     -1.05821898445157      1.57382969005469
  O   -1.98394276559462     -2.18893752399759     -0.21466868500337
