17

C	-0.500785	0.001287	-1.444563
C	0.0	0.0	0.0
Cl	0.387663	-1.10068	-2.446518
H	1.093165	0.0	0.0
N	-1.997126	-0.324238	-1.51683
O	-2.648213	-0.091097	-0.502309
O	-2.448623	-0.741336	-2.573001
N	-0.400791	1.415893	-2.022415
O	-1.451432	2.030681	-2.167987
O	0.725637	1.815975	-2.248711
N	-0.3844	-1.279966	0.580755
H	0.373835	-1.606892	1.165046
H	-1.227312	-1.187656	1.130984
N	-0.40299	1.230616	0.64729
H	-1.317242	1.152474	1.072696
H	0.294726	1.480271	1.33652
Cl	3.325197	0.0	0.0
