17

C	-0.508087	-0.024619	-1.440413
C	0.0	0.0	0.0
Cl	0.367579	-1.190591	-2.397727
H	1.09678	0.0	0.0
N	-2.015568	-0.322904	-1.488056
O	-2.68844	0.266735	-0.653841
O	-2.440702	-1.088567	-2.341014
N	-0.343412	1.351554	-2.082751
O	-1.354417	1.888483	-2.525818
O	0.794045	1.786914	-2.101967
N	-0.496241	-1.245208	0.623388
H	-0.433269	-1.098562	1.624322
H	0.179463	-1.975402	0.412464
N	-0.42897	1.206786	0.651129
H	0.262911	1.476722	1.338854
H	-1.353486	1.119098	1.05357
Cl	3.358433	0.0	0.0
