17

C	-0.474981	0.004241	-1.454907
C	0.0	0.0	0.0
Cl	0.393699	1.184832	-2.399259
H	1.096776	0.0	0.0
N	-0.252725	-1.372708	-2.080123
O	-1.234878	-1.954833	-2.527996
O	0.900016	-1.761619	-2.077868
N	-1.984055	0.257616	-1.548653
O	-2.407695	0.976127	-2.442285
O	-2.661823	-0.324548	-0.713301
N	-0.427803	-1.206193	0.651497
H	-1.362297	-1.127351	1.027748
H	0.247672	-1.464827	1.357638
N	-0.515632	1.243088	0.604274
H	-0.455849	1.111607	1.607757
H	0.145271	1.984237	0.385468
Cl	3.379467	0.0	0.0
