17

C	-0.542282	-0.092612	-1.428368
C	0.0	0.0	0.0
Cl	-2.254323	-0.463375	-1.48536
H	1.097048	0.0	0.0
N	-0.258599	1.240214	-2.123015
O	-1.195471	1.947413	-2.454314
O	0.934944	1.467982	-2.255451
N	0.14875	-1.143788	-2.289008
O	0.181439	-0.931743	-3.494232
O	0.550973	-2.145695	-1.713008
N	-0.510351	-1.109988	0.815604
H	-0.211115	-1.975556	0.377301
H	0.021673	-1.053306	1.679144
N	-0.445565	1.272734	0.520674
H	-1.292795	1.13575	1.05942
H	0.281268	1.670051	1.101334
Cl	3.354538	0.0	0.0
