17

C	-0.578451	-0.04334	-1.409536
C	0.0	0.0	0.0
Cl	-2.320045	-0.268382	-1.388511
H	1.099067	0.0	0.0
N	-0.222191	1.242996	-2.152464
O	0.964077	1.318762	-2.439616
O	-1.092416	2.069003	-2.367875
N	0.020189	-1.145548	-2.276579
O	-0.341485	-1.136932	-3.448118
O	0.800195	-1.923515	-1.751725
N	-0.42522	-1.21059	0.696461
H	-1.071692	-0.978986	1.440009
H	0.396311	-1.648984	1.095054
N	-0.398489	1.273982	0.558052
H	-1.336221	1.249707	0.938157
H	0.261498	1.541292	1.275716
Cl	3.326309	0.0	0.0
