17

C	-0.451369	-0.115852	-1.46403
C	0.0	0.0	0.0
Cl	0.427344	-1.358573	-2.312088
H	1.096101	0.0	0.0
N	-1.953875	-0.388916	-1.612369
O	-2.362767	-0.742015	-2.708964
O	-2.646491	-0.20086	-0.614689
N	-0.261336	1.230337	-2.171139
O	0.889629	1.547569	-2.407196
O	-1.276474	1.880508	-2.393246
N	-0.347073	-1.157235	0.802956
H	-1.261212	-1.535688	0.603682
H	0.367021	-1.867244	0.71334
N	-0.456038	1.274689	0.510703
H	0.241353	1.597134	1.169517
H	-1.332164	1.152423	1.000836
Cl	3.333917	0.0	0.0
