12

C	-0.378328	0.028503	-1.486969
C	0.0	0.0	0.0
F	-0.497111	1.3614	-1.878647
H	1.092482	0.0	0.0
H	-1.358059	-0.421372	-1.684047
H	-0.290956	-0.97226	0.413363
N	0.609958	-0.612822	-2.290343
H	0.384739	-1.585015	-2.443462
H	1.525522	-0.539244	-1.838881
C	-0.593229	1.052268	0.80233
N	-1.086336	1.883933	1.468683
H	2.859009	0.0	0.0
