12

C	-0.481739	0.017576	-1.436683
C	0.0	0.0	0.0
F	-0.091071	-1.213056	-2.006592
H	1.092089	0.0	0.0
H	0.041428	0.786325	-2.009811
H	-0.329341	-0.933128	0.470837
N	-1.889594	0.203854	-1.561435
H	-2.163488	0.115596	-2.53269
H	-2.371736	-0.508563	-1.02617
C	-0.501684	1.133021	0.761399
N	-0.885185	2.042957	1.397917
H	2.835823	0.0	0.0
