12

C	-0.517787	-0.075195	-1.417838
C	0.0	0.0	0.0
F	-1.93131	-0.303921	-1.392703
H	1.091834	0.0	0.0
H	-0.107066	-0.942595	-1.938375
H	-0.331424	0.935833	0.465082
N	-0.21607	1.099974	-2.141777
H	-0.53492	1.919778	-1.643586
H	-0.641882	1.072465	-3.057052
C	-0.493239	-1.112097	0.799712
N	-0.873307	-2.013179	1.449853
H	2.837998	0.0	0.0
