12

C	-0.369728	0.036445	-1.489157
C	0.0	0.0	0.0
F	-0.428706	1.371358	-1.889168
H	1.092231	0.0	0.0
H	-1.366104	-0.37771	-1.687197
H	-0.291364	-0.976347	0.405091
N	0.602569	-0.641573	-2.288548
H	0.376338	-1.623804	-2.361011
H	1.522101	-0.543645	-1.849178
C	-0.599325	1.047419	0.803614
N	-1.098869	1.880312	1.464958
H	2.853298	0.0	0.0
