12

C	-0.379361	0.088056	-1.484894
C	0.0	0.0	0.0
F	-0.351227	1.443167	-1.822535
H	1.09246	0.0	0.0
H	-1.40213	-0.25348	-1.683902
H	-0.384665	0.84838	0.570437
N	0.530685	-0.616676	-2.33346
H	0.267497	-1.59162	-2.386101
H	1.467154	-0.554146	-1.927866
C	-0.486049	-1.250287	0.55761
N	-0.886393	-2.277494	0.965419
H	2.851344	0.0	0.0
