12

C	-0.29272	-0.029293	-1.48929
C	0.0	0.0	0.0
F	-1.667898	-0.060093	-1.730151
H	1.092963	0.0	0.0
H	0.129369	-0.954297	-1.895219
H	-0.367841	-0.896236	0.507319
N	0.270997	1.076005	-2.215752
H	-0.056893	1.934889	-1.78813
H	1.274995	1.02998	-2.043918
C	-0.526311	1.194901	0.634068
N	-0.935233	2.176779	1.133559
H	2.810227	0.0	0.0
