12

C	-0.300593	0.027128	-1.489781
C	0.0	0.0	0.0
F	-1.658627	0.258974	-1.720253
H	1.093451	0.0	0.0
H	-0.062009	-0.943909	-1.932198
H	-0.334952	0.938576	0.454299
N	0.461797	1.037086	-2.178395
H	1.442732	0.823157	-1.972845
H	0.28385	1.92345	-1.713798
C	-0.577328	-1.130035	0.703157
N	-1.033296	-2.054262	1.267907
H	2.814163	0.0	0.0
