13

C	-0.478245	-0.05447	-1.428039
C	0.0	0.0	0.0
Cl	-0.061338	1.456545	-2.284268
H	1.089981	0.0	0.0
H	-1.555881	-0.192048	-1.498335
H	0.056676	-0.862983	-1.920796
N	-0.405536	-1.176112	0.72537
O	-0.513773	-1.106546	1.959888
O	-0.468546	-2.232816	0.06735
N	-0.52553	1.182933	0.723624
O	-1.685777	1.521716	0.474626
O	0.216845	1.742562	1.523736
H	2.447524	0.0	0.0
