13

C	-0.478976	0.080208	-1.428608
C	0.0	0.0	0.0
Cl	-0.068372	-1.420194	-2.30635
H	1.089979	0.0	0.0
H	-1.555282	0.215581	-1.49461
H	0.052036	0.895878	-1.908223
N	-0.526748	-1.20308	0.692833
O	-1.700916	-1.51248	0.465812
O	0.225903	-1.801494	1.4561
N	-0.404318	1.15716	0.749688
O	-0.473578	2.229808	0.117309
O	-0.509194	1.058927	1.982168
H	2.455177	0.0	0.0
