13

C	-0.458417	-0.067359	-1.434255
C	0.0	0.0	0.0
Cl	-0.133834	1.478731	-2.268471
H	1.089103	0.0	0.0
H	-1.521739	-0.278325	-1.519746
H	0.136999	-0.832236	-1.9274
N	-0.402275	-1.177404	0.723514
O	-0.536594	-1.101143	1.953389
O	-0.430065	-2.239514	0.072055
N	-0.555514	1.178501	0.711253
O	0.192581	1.818306	1.442986
O	-1.746522	1.429739	0.513545
H	2.457263	0.0	0.0
