13

C	-0.524448	-0.050163	-1.409843
C	0.0	0.0	0.0
Cl	0.28437	1.117313	-2.494863
H	1.086955	0.0	0.0
H	-0.308954	-1.041456	-1.802284
H	-1.592801	0.165016	-1.439571
N	-0.413172	-1.243972	0.668823
O	-1.298312	-1.218654	1.533222
O	0.165031	-2.263532	0.274604
N	-0.471893	1.147124	0.759084
O	-1.111092	2.030478	0.169454
O	-0.08866	1.214946	1.931329
H	2.424249	0.0	0.0
