13

C	-0.363216	-0.005858	-1.447523
C	0.0	0.0	0.0
Cl	-2.114309	0.21664	-1.772847
H	1.090826	0.0	0.0
H	0.164727	0.814753	-1.926198
H	-0.065155	-0.957299	-1.878821
N	-0.395136	-1.195574	0.72922
O	-0.881063	-2.136411	0.084223
O	-0.071654	-1.254087	1.918963
N	-0.419141	1.242297	0.65277
O	-0.076014	2.262673	0.043913
O	-1.027516	1.233663	1.721382
H	2.408034	0.0	0.0
