15

C	-0.502335	-0.080105	-1.451144
C	0.0	0.0	0.0
F	-0.185249	1.137305	-2.044345
H	1.093269	0.0	0.0
H	-0.310693	-0.910068	0.525585
C	0.232891	-1.173391	-2.192102
H	-0.066305	-1.146999	-3.241364
H	-0.008017	-2.155551	-1.775048
H	1.308191	-1.011288	-2.09354
N	-1.935017	-0.218278	-1.609398
H	-2.226306	-1.121889	-1.25373
H	-2.397404	0.49959	-1.059864
C	-0.569587	1.150347	0.686836
N	-1.096717	2.068689	1.194376
Br	3.556821	0.0	0.0
