15

C	-0.334017	-0.06041	-1.494856
C	0.0	0.0	0.0
F	-1.710362	-0.288169	-1.631991
H	1.093559	0.0	0.0
H	-0.344061	-0.922157	0.47888
C	0.016078	1.22952	-2.200588
H	-0.601056	2.043787	-1.820716
H	-0.161882	1.103233	-3.26899
H	1.068071	1.467388	-2.027103
N	0.33983	-1.164889	-2.135384
H	1.342017	-0.988095	-2.076311
H	0.172912	-2.005554	-1.588887
C	-0.562887	1.148359	0.694278
N	-1.014701	2.079042	1.250276
Br	3.5071	0.0	0.0
