15

C	-0.403221	-0.026747	-1.467426
C	0.0	0.0	0.0
F	-1.814632	0.042709	-1.564169
H	1.094328	0.0	0.0
H	-0.340378	0.934496	0.453952
C	0.134709	1.197577	-2.185341
H	1.230099	1.198416	-2.130755
H	-0.186661	1.169812	-3.235204
H	-0.249453	2.116346	-1.72966
N	0.007182	-1.279983	-2.043913
H	0.924229	-1.536402	-1.686232
H	0.073596	-1.20198	-3.053642
C	-0.536612	-1.123683	0.759971
N	-0.953169	-2.026147	1.384943
Br	3.510616	0.0	0.0
