15

C	-0.403256	-0.188754	-1.476248
C	0.0	0.0	0.0
F	-0.143663	-1.536123	-1.739352
H	1.092696	0.0	0.0
H	-0.372633	-0.823678	0.613677
C	-1.873824	0.041834	-1.75534
H	-2.066736	-0.197958	-2.801837
H	-2.477341	-0.608888	-1.118559
H	-2.156269	1.078774	-1.562262
N	0.414281	0.570927	-2.383113
H	1.389907	0.468372	-2.103603
H	0.17783	1.553605	-2.310334
C	-0.486673	1.272471	0.513618
N	-0.919005	2.299393	0.88603
Br	3.532099	0.0	0.0
