12

C	-0.344328	0.133915	-1.479628
C	0.0	0.0	0.0
Cl	-0.204135	-1.544709	-2.293679
H	1.093954	0.0	0.0
H	-1.388295	0.385845	-1.678801
H	-0.29983	0.932773	0.489612
N	0.538752	1.097257	-2.010784
H	0.489471	1.152358	-3.019727
H	1.495701	0.895141	-1.700478
C	-0.604638	-1.117752	0.69287
N	-1.117725	-2.004195	1.269109
H	2.816362	0.0	0.0
