12

C	-0.471034	0.019357	-1.439725
C	0.0	0.0	0.0
Cl	-0.213461	1.63264	-2.186633
H	1.092407	0.0	0.0
H	0.201981	-0.641319	-1.998867
H	-0.27002	-0.976639	0.425617
N	-1.880194	-0.300902	-1.563462
H	-2.063608	-1.148827	-1.039448
H	-2.110805	-0.468665	-2.536175
C	-0.584192	1.039217	0.828509
N	-1.031674	1.865531	1.533748
H	2.789629	0.0	0.0
