12

C	-0.492324	-0.077343	-1.431848
C	0.0	0.0	0.0
Cl	-0.000733	1.500965	-2.25064
H	1.091712	0.0	0.0
H	0.067579	-0.838997	-1.974679
H	-0.338424	0.928938	0.468404
N	-1.893187	-0.321142	-1.542722
H	-2.184497	-0.313822	-2.5102
H	-2.407176	0.402338	-1.050157
C	-0.475711	-1.136653	0.774317
N	-0.833326	-2.062215	1.403333
H	2.780525	0.0	0.0
