12

C	-0.366923	0.107426	-1.488219
C	0.0	0.0	0.0
Cl	-0.311662	-1.525127	-2.253064
H	1.092075	0.0	0.0
H	-1.392483	0.45209	-1.643577
H	-0.288956	0.949401	0.470037
N	0.547334	0.978981	-2.185303
H	0.342324	1.932639	-1.906101
H	1.487701	0.766515	-1.837491
C	-0.610991	-1.08476	0.740652
N	-1.114776	-1.944301	1.364192
H	2.822486	0.0	0.0
