13
Coordinates from ORCA-job run
  C   1.36856397347601     -0.02890187681514      0.02187138279663
  C   -0.11905116812553     -0.35446726054097      0.02162500487473
  Br  2.18790088868997     -0.30747487266350     -1.72241136905664
  H   -0.25097624191559     -1.35740981536500     -0.41198228669302
  H   1.52837549270856      1.01260932184433      0.29938824378746
  H   1.90994040998387     -0.67393705520210      0.71457433787177
  C   -0.92484848214277      0.64408555215818     -0.79127590502538
  H   -0.81896105533494      1.64129333181215     -0.35603182225282
  H   -1.98544777846118      0.37701035409348     -0.78268535079733
  H   -0.59393057712201      0.67140719656635     -1.82956238175766
  N   -0.53804155216574     -0.27312729812766      1.42306658536547
  H   -0.21596752345088     -1.08754817479276      1.93321993133885
  H   -1.54955638613977     -0.26253940296737      1.48020362954795
