13
Coordinates from ORCA-job run
  C   1.35329607532587     -0.26053358646699     -0.18082420930169
  C   -0.15120794627687     -0.36582213282148      0.01512642538183
  Br  2.08946877581642      1.48362820675636      0.26348633580450
  H   -0.39393710294030     -1.38012189059127     -0.35465102027654
  H   1.61337496146640     -0.45209148657082     -1.22242700266135
  H   1.87784210079511     -0.97994830911038      0.45075721724715
  C   -0.93097586302326      0.63388567745674     -0.82333552692235
  H   -0.64610568607872      0.57147770441665     -1.87632904110910
  H   -0.74633555246257      1.64668244822509     -0.46454004105104
  H   -2.00361645748713      0.43205285290450     -0.75328981591444
  N   -0.48926601826762     -0.18259800815877      1.42031003525650
  H   -1.49378661599667     -0.22998100711988      1.54103531030757
  H   -0.07875067087065     -0.91763046891975      1.98468133323897
