13
Coordinates from ORCA-job run
  C   1.38717519423350     -0.21558569795065     -0.19583237416813
  C   -0.09913304704946     -0.46369984576921     -0.00477128265651
  Br  1.94961485950967      1.54397829954207      0.44466113276671
  H   -0.25667256019869     -1.47494006430492     -0.40572280882942
  H   1.66738372575978     -0.25530146558302     -1.24827629726283
  H   1.96149471864196     -0.93926629564099      0.37988979035162
  C   -0.97442010529158      0.50460875960931     -0.79858568284529
  H   -0.86943416874526      1.52187123716923     -0.41609760546169
  H   -0.71228733789122      0.50880327223666     -1.86104346224682
  H   -2.02491492858903      0.21464735212119     -0.71167993784478
  N   -0.39423543181485     -0.53484345131442      1.42341357308703
  H   -1.36457249342438     -0.79515292777497      1.55639292539483
  H   -0.27099842514044      0.38388082765970      1.83565202971527
