13
Coordinates from ORCA-job run
  C   1.30464053791540     -0.25745135435721     -0.14744717514949
  C   -0.21111656585969     -0.43199119509058     -0.03251930280471
  Br  1.92324034628631      1.45949381047960      0.54410409001037
  H   -0.39994581899003     -1.43691277057883     -0.43672713908528
  H   1.63647787711017     -0.30886203409496     -1.18585682344508
  H   1.82784011573802     -1.01698816872183      0.43551619166637
  C   -0.98090809635333      0.56966540248230     -0.87957441577186
  H   -0.63942144391038      0.55812867966762     -1.91764302338504
  H   -2.04318399108495      0.32460002767463     -0.85193725438963
  H   -0.85319769162653      1.58346975220864     -0.49336031384467
  N   -0.73725170211103     -0.41920230259136      1.32471706809283
  H   -0.56281991038598      0.48750433340681      1.74414461069973
  H   -0.26535365672798     -1.11145418048483      1.89558348740647
