18

C	0.0	0.0	0.0
C	-0.61165	0.004294	-1.41346
Cl	1.754848	0.0	0.0
H	-1.709079	0.091918	-1.173144
N	-0.628972	0.805266	0.968084
H	-1.662177	0.599192	0.776367
H	-0.463413	1.773836	0.717495
N	-0.268579	-1.531443	0.554476
O	-1.428058	-1.883584	0.650655
O	0.697816	-2.220767	0.863985
C	-0.290446	-1.200555	-2.266329
H	0.780915	-1.404958	-2.31382
H	-0.655107	-1.045736	-3.281797
H	-0.812066	-2.060355	-1.845545
N	-0.17565	1.267225	-2.085484
O	0.414739	1.19456	-3.165682
O	-0.439029	2.333347	-1.524154
F	-2.950829	0.0	0.0
