18

C	0.0	0.0	0.0
C	-0.538471	-0.076034	-1.443188
Cl	1.806483	0.0	0.0
H	-1.621462	-0.21136	-1.270097
N	-0.568798	1.080731	0.648479
H	-1.616807	0.869062	0.511521
H	-0.321987	1.053091	1.630797
N	-0.326263	-1.352726	0.748479
O	-0.428077	-2.394715	0.114323
O	-0.412556	-1.25889	1.966328
C	0.095789	-1.040472	-2.423682
H	-0.087776	-2.063655	-2.109492
H	1.167029	-0.867406	-2.517825
H	-0.364483	-0.887316	-3.404619
N	-0.391631	1.305553	-2.022316
O	0.724788	1.636323	-2.43063
O	-1.395787	2.008492	-2.099661
F	-2.785968	0.0	0.0
