18

C	0.0	0.0	0.0
C	-0.567816	0.069619	-1.449661
Cl	1.754918	0.0	0.0
H	-1.628655	0.31995	-1.231277
N	-0.521454	0.965233	0.886539
H	-0.322509	1.874551	0.483709
H	-1.554448	0.78362	0.786917
N	-0.364673	-1.390283	0.622554
O	-0.961804	-1.40109	1.682262
O	0.045077	-2.383112	0.024688
C	-0.479804	-1.135831	-2.355119
H	-1.160305	-1.893349	-1.972601
H	-0.812637	-0.844992	-3.353967
H	0.525314	-1.549381	-2.424938
N	0.087388	1.247661	-2.105365
O	-0.149814	2.367544	-1.643386
O	0.827002	1.056271	-3.072246
F	-2.772321	0.0	0.0
