18

C	0.0	0.0	0.0
C	-0.267141	0.021779	-1.582881
Cl	1.761916	0.0	0.0
H	-0.038359	1.066712	-1.807835
N	-0.637474	1.026868	0.696293
H	-1.680627	0.771522	0.549017
H	-0.418023	1.913161	0.255481
N	-0.433685	-1.317822	0.660291
O	-0.695384	-2.262447	-0.070551
O	-0.426919	-1.332422	1.883026
C	-1.590789	-0.3533	-2.218168
H	-1.544944	-0.05076	-3.271127
H	-1.745929	-1.427842	-2.147087
H	-2.401525	0.117241	-1.658346
N	0.783235	-0.688236	-2.418965
O	0.841943	-1.912986	-2.39793
O	1.477291	0.028693	-3.146281
F	-2.880571	0.0	0.0
