17

C	-0.174372	-0.267427	-1.538313
C	0.0	0.0	0.0
Cl	-0.043063	-2.072449	-1.70934
H	1.090337	0.0	0.0
C	-1.522416	0.134342	-2.097905
H	-1.656721	1.214917	-2.010125
H	-1.557221	-0.145993	-3.15175
H	-2.330207	-0.370176	-1.565637
N	0.908372	0.300458	-2.289819
H	1.755049	0.18517	-1.708373
H	0.733831	1.298488	-2.342068
C	-0.635249	-0.938878	0.894039
N	-1.142898	-1.711547	1.621088
N	-0.431543	1.378204	0.342937
O	-0.112206	2.285167	-0.429359
O	-1.05683	1.559846	1.388812
F	2.52625	0.0	0.0
