17

C	-0.085802	-0.016991	-1.546745
C	0.0	0.0	0.0
Cl	-1.803067	-0.195321	-2.097354
H	1.093758	0.0	0.0
C	0.528517	1.223114	-2.16522
H	1.515354	1.33213	-1.709741
H	-0.062696	2.116019	-1.982458
H	0.617964	1.040547	-3.236714
N	0.676113	-1.15969	-2.012047
H	0.270484	-2.010374	-1.632814
H	1.596173	-1.035223	-1.568383
C	-0.527578	-1.220323	0.574738
N	-0.895118	-2.255101	0.994605
N	-0.56364	1.180015	0.689367
O	-0.107502	2.281043	0.385924
O	-1.432139	1.000334	1.546883
F	2.543387	0.0	0.0
