17

C	-0.352908	0.10707	-1.488895
C	0.0	0.0	0.0
Cl	0.162138	1.830114	-1.980887
H	1.106611	0.0	0.0
C	0.588189	-0.823275	-2.233903
H	1.599402	-0.64522	-1.856163
H	0.292414	-1.854704	-2.024187
H	0.526948	-0.64539	-3.310762
N	-1.715479	-0.138489	-1.791795
H	-2.308307	0.495333	-1.271726
H	-1.880065	-0.031855	-2.784732
C	-0.498876	-1.240366	0.563956
N	-0.863464	-2.252403	1.039038
N	-0.565704	1.115111	0.82091
O	-1.726628	1.472181	0.589307
O	0.143397	1.590157	1.699223
F	2.533299	0.0	0.0
