17

C	-0.398579	-0.031149	-1.473227
C	0.0	0.0	0.0
Cl	0.48158	1.367272	-2.312942
H	1.106414	0.0	0.0
C	0.213782	-1.287884	-2.070002
H	0.128742	-1.266402	-3.159151
H	1.2653	-1.31382	-1.77755
H	-0.310002	-2.165341	-1.684829
N	-1.806036	0.035603	-1.686553
H	-2.003139	-0.014195	-2.679441
H	-2.148946	0.920822	-1.33243
C	-0.459959	-1.189837	0.689338
N	-0.800104	-2.180853	1.223483
N	-0.470499	1.175002	0.773403
O	-0.196011	1.183396	1.970673
O	-1.075124	2.082385	0.193293
F	2.473957	0.0	0.0
