16

C	0.0	0.0	0.0
C	-0.508684	-0.007867	-1.44327
F	1.366687	0.0	0.0
H	-1.604568	-0.082639	-1.336175
N	-0.531517	1.17997	0.615018
H	-1.566994	0.962136	0.564642
H	-0.241802	1.190677	1.587769
C	-0.408062	-1.235098	0.727737
N	-0.6387	-2.146852	1.429223
N	-0.043443	-1.222141	-2.200547
O	-0.364441	-1.244872	-3.389197
O	0.58808	-2.10996	-1.630315
N	0.009928	1.146211	-2.150807
H	0.081615	1.886535	-1.459866
H	-0.668285	1.433338	-2.843551
F	-2.757968	0.0	0.0
