16

C	0.0	0.0	0.0
C	-0.236897	-0.262579	-1.504965
F	1.416536	0.0	0.0
H	0.404106	0.484553	-1.988357
N	-0.467037	1.260903	0.431886
H	-1.512629	1.071531	0.362507
H	-0.222251	1.351485	1.414036
C	-0.378127	-1.154799	0.850634
N	-0.4966	-2.019304	1.637602
N	-1.581898	0.046819	-2.114022
O	-2.235227	-0.88298	-2.572099
O	-1.819666	1.235429	-2.281483
N	0.10765	-1.635807	-1.78752
H	1.111731	-1.736433	-1.721795
H	-0.21027	-1.890266	-2.711811
F	-2.562625	0.0	0.0
