16

C	0.0	0.0	0.0
C	-0.337409	0.058135	-1.542802
F	1.410292	0.0	0.0
H	0.601566	-0.12913	-2.07166
N	-0.518626	0.976854	0.87764
H	-1.547652	0.814553	0.784202
H	-0.274055	1.893714	0.522769
C	-0.377892	-1.340675	0.509021
N	-0.515418	-2.409839	0.972196
N	-0.581045	1.549834	-1.910986
O	0.28436	2.356606	-1.561036
O	-1.566574	1.832536	-2.584695
N	-1.363267	-0.806264	-1.939601
H	-2.170425	-0.606615	-1.299178
H	-1.593325	-0.652847	-2.911926
F	-2.76835	0.0	0.0
