17

C	-0.503799	0.025737	-1.436983
C	0.0	0.0	0.0
Br	0.081716	-1.600439	-2.391814
H	1.101748	0.0	0.0
H	0.015464	0.826987	-1.967645
C	-2.010726	0.141427	-1.581313
H	-2.346577	1.106614	-1.190787
H	-2.496174	-0.652438	-1.01308
H	-2.310697	0.074219	-2.62873
N	-0.557108	-1.156293	0.72007
H	-0.106612	-1.986145	0.344942
H	-0.228398	-1.086405	1.678737
C	-0.42985	1.274239	0.723333
H	0.118921	1.347901	1.666567
H	-0.179422	2.162961	0.1374
H	-1.501173	1.268032	0.941794
Br	3.707527	0.0	0.0
