17

C	-0.324988	0.006851	-1.481128
C	0.0	0.0	0.0
Br	-2.294932	0.02734	-1.798063
H	1.099636	0.0	0.0
H	-0.023939	-0.963463	-1.877063
C	0.32622	1.137795	-2.252038
H	1.398775	1.116814	-2.025991
H	0.18063	1.013099	-3.327239
H	-0.080514	2.108638	-1.962107
N	-0.442987	-1.261064	0.593206
H	0.110748	-1.430162	1.426787
H	-1.416655	-1.178432	0.874456
C	-0.461018	1.242565	0.754793
H	-1.553256	1.320117	0.764125
H	-0.045773	2.158347	0.326951
H	-0.106175	1.177091	1.786804
Br	3.64485	0.0	0.0
