17

C	-0.446485	0.009778	-1.471613
C	0.0	0.0	0.0
Br	0.049949	-1.68168	-2.348698
H	1.095591	0.0	0.0
H	0.147907	0.758477	-2.001864
C	-1.929966	0.241436	-1.707909
H	-2.168311	0.187727	-2.771782
H	-2.21764	1.229917	-1.340958
H	-2.53419	-0.510147	-1.19293
N	-0.448404	-1.131089	0.802473
H	0.124683	-1.935013	0.57643
H	-1.411262	-1.366036	0.586699
C	-0.445112	1.29699	0.674457
H	-1.521453	1.30035	0.876779
H	0.081118	1.376445	1.626162
H	-0.194547	2.174311	0.069669
Br	3.675959	0.0	0.0
