16

C	-0.489529	-0.035023	-1.42676
C	0.0	0.0	0.0
Br	0.500159	-1.289628	-2.472448
H	1.093614	0.0	0.0
N	-1.988441	-0.370677	-1.542016
O	-2.418937	-0.687962	-2.643206
O	-2.650406	-0.243206	-0.516284
N	-0.375288	1.359892	-2.050163
O	0.740291	1.730319	-2.3685
O	-1.414986	2.011195	-2.107914
N	-0.319845	-1.270636	0.639227
H	0.499277	-1.538626	1.173472
H	-1.128821	-1.198308	1.242618
C	-0.478774	1.173471	0.713704
N	-0.823136	2.109538	1.339201
F	2.484849	0.0	0.0
