16

C	-0.547798	0.002846	-1.396163
C	0.0	0.0	0.0
Br	-2.526984	0.055813	-1.438811
H	1.113932	0.0	0.0
N	0.006102	1.130618	-2.272434
O	-0.730077	1.66036	-3.110093
O	1.195885	1.358031	-2.127351
N	-0.171909	-1.270224	-2.243246
O	-0.012701	-1.082406	-3.455708
O	-0.121756	-2.365386	-1.703302
N	-0.462039	-1.162239	0.72091
H	0.144137	-1.278322	1.524419
H	-1.419166	-1.051189	1.033239
C	-0.205605	1.205824	0.841657
N	0.022132	1.664194	1.90545
F	2.474642	0.0	0.0
