16

C	-0.449012	-0.078795	-1.438285
C	0.0	0.0	0.0
Br	-0.061413	1.536353	-2.394294
H	1.097301	0.0	0.0
N	0.247619	-1.271233	-2.108125
O	-0.347148	-2.33887	-2.018518
O	1.339752	-1.073264	-2.611754
N	-1.946625	-0.356634	-1.627118
O	-2.333395	-0.566245	-2.769349
O	-2.643746	-0.331035	-0.618703
N	-0.311213	-1.235559	0.697032
H	-1.152885	-1.174631	1.252336
H	0.489911	-1.460546	1.273709
C	-0.493466	1.201908	0.652914
N	-0.862644	2.14048	1.259581
F	2.48031	0.0	0.0
