15
Coordinates from ORCA-job run
  C   0.55045719173687     -0.70521151407049      0.11427062451041
  C   -0.53354342042697      0.35446058941189      0.25948938713963
  Cl  0.26718057270770     -1.63048371629537     -1.39694888194132
  H   -0.39119163720254      0.85296103180929      1.22307436909775
  H   0.43364176930265     -1.42253046415027      0.92606374614263
  C   1.93671415501885     -0.09581147083337      0.10527497517558
  H   2.04252758019533      0.60183691027484     -0.72410015548170
  H   2.10410277543167      0.44607610063903      1.04052935649472
  H   2.69187407621022     -0.87795514832545      0.01849003932481
  N   -1.87394993828956     -0.38681701013291      0.45494584820743
  O   -2.76924563319160     -0.17316881921645     -0.35467414675279
  O   -1.93817634460928     -1.13262533665046      1.42719675024676
  N   -0.54319319014333      1.29561011184186     -0.79142874421573
  H   -0.75257411323056      0.84858565983663     -1.67476301935898
  H   -1.22462384350945      2.02407307586123     -0.62942014858919
