12
Coordinates from ORCA-job run
  C   -0.67994367677648     -0.38769354796008      0.37618753003515
  C   0.68970392981551     -0.54915736091622     -0.24360909083930
  F   -1.45714167844152     -1.49661078724264     -0.01829917088129
  H   0.56839600734802     -0.52134201519940     -1.33971395863152
  H   -0.61107490669251     -0.42517003608997      1.46457228258709
  H   1.06635316599383     -1.54021225081905      0.01839359604618
  N   -1.26849175625300      0.84313564342437     -0.01721181186608
  H   -1.44764699602081      0.83939762133772     -1.01436401146980
  H   -2.13928536371430      1.00909516298452      0.46925554197672
  N   1.57421942357440      0.46603577604778      0.31038737498206
  H   1.20610819497317      1.38030452150452      0.08137463453786
  H   2.49980365619369      0.38421727292845     -0.08897291647708
