13

C	-0.500011	0.028602	-1.427128
C	0.0	0.0	0.0
F	-1.855073	0.260229	-1.465755
H	1.091408	0.0	0.0
H	0.004793	0.768347	-2.045157
H	-0.32305	0.953239	0.434781
N	-0.273219	-1.294876	-2.101733
O	0.822113	-1.449488	-2.627285
O	-1.172367	-2.12826	-2.0352
N	-0.50516	-1.104553	0.797435
H	-1.451528	-1.341593	0.533328
H	0.081254	-1.915097	0.663017
Cl	3.499314	0.0	0.0
