16

C	-0.46256	0.059417	-1.451169
C	0.0	0.0	0.0
Cl	0.447433	1.288594	-2.347212
H	1.094479	0.0	0.0
N	-0.193979	-1.308892	-2.106286
O	-1.169338	-2.048964	-2.213405
O	0.958296	-1.562881	-2.403825
C	-1.889088	0.35121	-1.595257
N	-3.027155	0.645968	-1.636796
C	-0.537826	-1.182241	0.641606
N	-0.959604	-2.125448	1.205934
C	-0.381423	1.262114	0.773384
H	0.032143	1.170032	1.778888
H	0.097914	2.123054	0.305348
H	-1.461548	1.427854	0.841948
F	2.487255	0.0	0.0
