16

C	-0.343356	0.010434	-1.472512
C	0.0	0.0	0.0
Cl	-2.101004	0.223109	-1.83561
H	1.096003	0.0	0.0
N	0.391545	1.187898	-2.144172
O	1.357517	0.910008	-2.837958
O	-0.043715	2.306721	-1.907656
C	0.089506	-1.219294	-2.132588
N	0.400937	-2.224206	-2.658204
C	-0.524476	-1.211788	0.592108
N	-0.948795	-2.177969	1.113326
C	-0.412656	1.235979	0.794135
H	0.186477	2.087961	0.478006
H	-1.47497	1.478712	0.701754
H	-0.179651	1.041096	1.843034
F	2.472594	0.0	0.0
