16

C	-0.333961	0.056723	-1.472887
C	0.0	0.0	0.0
Cl	-2.071797	0.392772	-1.842568
H	1.096022	0.0	0.0
N	0.478857	1.194659	-2.123897
O	0.146019	2.33271	-1.826677
O	1.394341	0.867857	-2.864797
C	0.019619	-1.184655	-2.155481
N	0.253023	-2.206191	-2.686823
C	-0.5391	-1.218936	0.561049
N	-0.966124	-2.194608	1.061943
C	-0.393268	1.218995	0.831118
H	-1.450931	1.483122	0.745502
H	0.222461	2.06792	0.540768
H	-0.165331	0.987455	1.87347
F	2.470539	0.0	0.0
