16

C	-0.342299	0.03618	-1.471495
C	0.0	0.0	0.0
Cl	-2.088476	0.330768	-1.834679
H	1.095944	0.0	0.0
N	0.443981	1.185711	-2.135714
O	0.073548	2.319109	-1.866425
O	1.378794	0.871463	-2.856492
C	0.035108	-1.203617	-2.144508
N	0.296709	-2.219504	-2.674324
C	-0.533777	-1.213383	0.5785
N	-0.961053	-2.181828	1.093252
C	-0.397405	1.229277	0.813845
H	-1.455791	1.489648	0.72387
H	0.216216	2.076192	0.512047
H	-0.169265	1.013475	1.85944
F	2.470422	0.0	0.0
