16

C	-0.48946	0.218858	-1.414527
C	0.0	0.0	0.0
Cl	0.443008	1.509917	-2.215535
H	1.107204	0.0	0.0
N	-0.27288	-1.042947	-2.274941
O	-1.096734	-1.242469	-3.163499
O	0.719576	-1.706553	-2.030056
C	-1.909537	0.56361	-1.49581
N	-3.039426	0.887866	-1.455509
C	-0.558452	-1.232316	0.515505
N	-1.011588	-2.222593	0.963233
C	-0.34482	1.181276	0.911241
H	0.133722	2.080989	0.521068
H	0.097174	0.981218	1.888633
H	-1.419999	1.353306	1.028068
F	2.484201	0.0	0.0
