16

C	-0.343101	-0.051727	-1.475098
C	0.0	0.0	0.0
Cl	0.123132	-1.597826	-2.194831
H	1.096618	0.0	0.0
N	-1.866481	0.135739	-1.66357
O	-2.245086	1.298469	-1.789361
O	-2.580069	-0.851264	-1.555913
C	0.315743	1.026278	-2.211161
N	0.82195	1.890457	-2.824904
C	-0.548173	-1.130803	0.714795
N	-0.962662	-2.028444	1.35344
C	-0.375343	1.327429	0.658304
H	-1.453	1.508561	0.721348
H	0.097935	2.147807	0.114581
H	0.046456	1.320584	1.665401
F	2.475048	0.0	0.0
