16

C	-0.431252	-0.116397	-1.458483
C	0.0	0.0	0.0
Cl	0.31933	1.150573	-2.436314
H	1.107632	0.0	0.0
N	0.031892	-1.490197	-1.997407
O	-0.765085	-2.404162	-1.801269
O	1.132099	-1.569	-2.510977
C	-1.880699	-0.046635	-1.655698
N	-3.042978	0.085594	-1.781081
C	-0.532089	-1.103455	0.773363
N	-0.945343	-1.962285	1.464553
C	-0.416224	1.3344	0.618934
H	-1.49516	1.520466	0.574996
H	-0.100685	1.328659	1.663663
H	0.121449	2.142128	0.122832
F	2.487295	0.0	0.0
