16

C	-0.349925	-0.324715	-1.43753
C	0.0	0.0	0.0
Cl	0.008728	-2.01096	-1.834603
H	1.097625	0.0	0.0
N	-1.85914	-0.082892	-1.670524
O	-2.632732	-0.956789	-1.306652
O	-2.164875	1.029585	-2.095342
C	0.375352	0.537818	-2.369699
N	0.934764	1.20766	-3.156447
C	-0.556163	-0.962565	0.923593
N	-0.989979	-1.69948	1.73248
C	-0.368224	1.433411	0.385545
H	0.064112	1.626854	1.368967
H	0.097303	2.12828	-0.31639
H	-1.445446	1.624115	0.423661
F	2.475954	0.0	0.0
