16

C	-0.357934	0.018636	-1.472124
C	0.0	0.0	0.0
Cl	0.238397	-1.425863	-2.296412
H	1.096404	0.0	0.0
N	-1.896648	0.077713	-1.635562
O	-2.514487	-0.97642	-1.654098
O	-2.381506	1.207093	-1.618091
C	0.184259	1.201393	-2.138344
N	0.600895	2.154688	-2.684257
C	-0.515691	-1.188773	0.645108
N	-0.925751	-2.121503	1.234124
C	-0.40693	1.267949	0.747993
H	-1.48887	1.404267	0.838761
H	0.025996	2.139236	0.252177
H	0.032182	1.209385	1.745734
F	2.477005	0.0	0.0
