16

C	-0.322164	-0.060087	-1.473776
C	0.0	0.0	0.0
Cl	-2.050542	0.280467	-1.889132
H	1.107901	0.0	0.0
N	0.518707	1.001137	-2.211805
O	1.420357	0.592331	-2.927171
O	0.218633	2.167339	-2.003564
C	0.006693	-1.361012	-2.049039
N	0.203579	-2.427452	-2.501726
C	-0.541385	-1.168641	0.656264
N	-0.971824	-2.102014	1.230397
C	-0.391551	1.283441	0.727614
H	-1.443417	1.555011	0.599533
H	0.242555	2.099236	0.384893
H	-0.188546	1.131089	1.789727
F	2.468119	0.0	0.0
