16

C	-0.504006	0.012732	-1.423248
C	0.0	0.0	0.0
Cl	-2.293474	-0.111108	-1.567923
H	1.108997	0.0	0.0
N	-0.06933	1.355756	-2.04455
O	1.076251	1.37633	-2.472457
O	-0.855703	2.290477	-1.995894
C	0.074086	-1.054223	-2.235392
N	0.467377	-1.93611	-2.904759
C	-0.442167	-1.216606	0.647626
N	-0.77375	-2.192153	1.216319
C	-0.373925	1.239676	0.808712
H	0.151457	2.106138	0.403724
H	0.001223	1.089081	1.822663
H	-1.448208	1.443023	0.844576
F	2.470705	0.0	0.0
