16

C	-0.503433	0.332	-1.387834
C	0.0	0.0	0.0
Cl	0.363544	1.734895	-2.059222
H	1.107488	0.0	0.0
N	-0.230005	-0.83829	-2.353784
O	0.860308	-1.372852	-2.259189
O	-1.121034	-1.108914	-3.155005
C	-1.939801	0.611109	-1.4309
N	-3.086183	0.863275	-1.355156
C	-0.523174	-1.294346	0.388249
N	-0.934551	-2.346499	0.719265
C	-0.36896	1.075949	1.020656
H	0.097932	2.017628	0.728412
H	0.067462	0.784271	1.977085
H	-1.447879	1.219332	1.144459
F	2.483316	0.0	0.0
