16

C	-0.414484	-0.05704	-1.467877
C	0.0	0.0	0.0
Cl	0.385107	1.222816	-2.390486
H	1.108246	0.0	0.0
N	0.020151	-1.422785	-2.043835
O	1.140147	-1.522148	-2.509
O	-0.816013	-2.314298	-1.920841
C	-1.857608	0.061479	-1.681267
N	-3.014793	0.229088	-1.808391
C	-0.538359	-1.131573	0.725169
N	-0.948902	-2.018533	1.381537
C	-0.41757	1.31394	0.660554
H	-1.490299	1.523455	0.58097
H	0.154753	2.130438	0.220242
H	-0.147583	1.259449	1.716818
F	2.48866	0.0	0.0
