13

C	0.0	0.0	0.0
C	-0.197798	-0.266965	-1.53102
Cl	1.845879	0.0	0.0
H	0.341721	0.546341	-2.028506
H	0.349625	-1.1831	-1.767477
N	-0.501398	1.201562	0.553899
H	-0.325581	1.962357	-0.093345
H	-1.523273	1.061187	0.617598
C	-0.389342	-1.165613	0.801102
N	-0.553285	-2.147412	1.424429
C	-1.490617	-0.368535	-2.215283
N	-2.249443	-0.492703	-3.105942
Cl	-3.327774	0.0	0.0
