13

C	0.0	0.0	0.0
C	-0.474567	0.152543	-1.458156
Cl	1.792415	0.0	0.0
H	-0.166016	1.142842	-1.808088
H	-1.572649	0.110674	-1.411532
N	-0.502837	1.011091	0.883446
H	-1.523504	0.882057	0.896683
H	-0.304955	1.921052	0.477887
C	-0.379312	-1.327569	0.517954
N	-0.588904	-2.398656	0.950824
C	0.044998	-0.860591	-2.368197
N	0.455745	-1.663844	-3.120014
Cl	-3.476151	0.0	0.0
