13

C	0.0	0.0	0.0
C	-0.526263	0.166157	-1.426475
Cl	1.840213	0.0	0.0
H	-0.146878	-0.631723	-2.068464
H	-1.627791	0.102129	-1.324863
N	-0.520052	0.994384	0.828882
H	-0.401223	0.845139	1.816212
H	-0.329967	1.937999	0.529177
C	-0.357094	-1.331528	0.50912
N	-0.577781	-2.391921	0.961721
C	-0.137041	1.460869	-1.971984
N	0.163217	2.50735	-2.411634
Cl	-3.66596	0.0	0.0
