13

C	0.0	0.0	0.0
C	-0.253281	-0.111917	-1.534645
Cl	1.790657	0.0	0.0
H	0.117362	0.840026	-1.928501
H	0.418981	-0.892713	-1.899209
N	-0.522651	1.21496	0.528152
H	-1.546531	1.126696	0.406513
H	-0.342475	1.246528	1.527348
C	-0.376789	-1.241799	0.705494
N	-0.580426	-2.25192	1.271155
C	-1.539486	-0.389135	-2.181098
N	-2.288949	-0.650869	-3.050009
Cl	-3.371476	0.0	0.0
