13

C	0.0	0.0	0.0
C	-0.499612	-0.243373	-1.427853
Cl	1.784441	0.0	0.0
H	-0.179724	0.614076	-2.02616
H	-1.599319	-0.258675	-1.373561
N	-0.513043	1.266197	0.434562
H	-0.26629	1.407985	1.408798
H	-1.538704	1.176231	0.382203
C	-0.354685	-1.141477	0.877346
N	-0.589567	-2.027398	1.612976
C	-0.001383	-1.479276	-2.015981
N	0.386931	-2.467637	-2.516838
Cl	-3.502455	0.0	0.0
