13

C	0.0	0.0	0.0
C	-0.204347	-0.184698	-1.541067
Cl	1.842733	0.0	0.0
H	0.437088	-1.013383	-1.850962
H	0.224757	0.716912	-1.992059
N	-0.503145	1.165803	0.623664
H	-1.524678	1.022917	0.675971
H	-0.324128	1.965747	0.024104
C	-0.387477	-1.210676	0.733102
N	-0.558472	-2.235828	1.280221
C	-1.491297	-0.422135	-2.202645
N	-2.246568	-0.663843	-3.072065
Cl	-3.327331	0.0	0.0
