13

C	0.0	0.0	0.0
C	-0.476241	-0.063157	-1.468582
Cl	1.792565	0.0	0.0
H	-1.574545	-0.105351	-1.418269
H	-0.091947	-0.960749	-1.959721
N	-0.488244	1.106415	0.766641
H	-0.272289	1.965903	0.269741
H	-1.509225	0.993532	0.793412
C	-0.383318	-1.265934	0.65169
N	-0.565201	-2.318136	1.139222
C	-0.054369	1.118386	-2.209152
N	0.287875	2.074104	-2.799407
Cl	-3.469185	0.0	0.0
