13

C	0.0	0.0	0.0
C	-0.48045	0.104098	-1.45474
Cl	1.83964	0.0	0.0
H	-1.579931	0.036688	-1.394204
H	-0.089344	-0.728024	-2.043618
N	-0.502494	1.035541	0.833945
H	-1.041304	1.688905	0.27975
H	-1.15744	0.653561	1.504265
C	-0.338171	-1.339517	0.50606
N	-0.544786	-2.42039	0.91728
C	-0.081498	1.366308	-2.072401
N	0.193629	2.377252	-2.601274
Cl	-3.488708	0.0	0.0
