15

C	0.0	0.0	0.0
C	-0.514718	0.003282	-1.455051
Br	1.946254	0.0	0.0
H	-1.608581	-0.10181	-1.338697
N	-0.514908	1.174448	0.651005
H	-0.194667	1.202811	1.613136
H	-1.541056	1.06762	0.648773
C	-0.357522	-1.27126	0.656993
N	-0.606129	-2.27261	1.221371
C	-0.016702	-1.15751	-2.19847
N	0.343323	-2.081498	-2.82808
N	-0.106694	1.241761	-2.11604
H	-0.741338	1.398319	-2.891332
H	-0.267971	1.983154	-1.439466
Br	-3.672227	0.0	0.0
