15

C	0.0	0.0	0.0
C	-0.542152	0.334339	-1.39687
Br	2.040159	0.0	0.0
H	-1.629535	0.149771	-1.263263
N	-0.523026	0.895599	0.893094
H	-0.591036	1.846748	0.570696
H	-0.496233	0.705913	1.877101
C	-0.297027	-1.389122	0.363821
N	-0.478646	-2.512395	0.659274
C	-0.00994	-0.550561	-2.437651
N	0.375313	-1.2063	-3.333229
N	-0.344468	1.749442	-1.662005
H	0.537907	1.907707	-2.132657
H	-1.102817	2.089382	-2.238545
Br	-3.764042	0.0	0.0
