15

C	0.0	0.0	0.0
C	-0.566062	0.41148	-1.400998
Br	1.950281	0.0	0.0
H	-1.353994	1.12911	-1.162348
H	-0.329566	-1.009413	0.224987
C	-0.414504	0.921113	1.05393
N	-0.579407	1.721985	1.897764
N	-1.168036	-0.80957	-1.943217
H	-1.997313	-0.846575	-1.314547
H	-1.51425	-0.587956	-2.874167
C	0.41286	1.027112	-2.387332
H	-0.161359	1.35997	-3.259932
H	1.155925	0.301705	-2.722332
H	0.926002	1.898619	-1.97453
F	-2.658954	0.0	0.0
