15

C	0.0	0.0	0.0
C	-0.233389	0.153171	-1.560279
Br	1.964088	0.0	0.0
H	0.593591	-0.42754	-1.997638
H	-0.334261	-0.961257	0.370846
C	-0.492969	1.085314	0.831608
N	-0.601941	1.988878	1.578388
N	-0.104714	1.574021	-1.888968
H	-0.294233	1.689161	-2.878067
H	0.849098	1.87784	-1.722265
C	-1.480659	-0.397808	-2.230239
H	-2.348846	0.183599	-1.945515
H	-1.666193	-1.427189	-1.925146
H	-1.28694	-0.382709	-3.316786
F	-2.353689	0.0	0.0
