15

C	0.0	0.0	0.0
C	-0.475787	0.045311	-1.474631
Br	1.962083	0.0	0.0
H	-1.568492	0.039816	-1.291307
H	-0.352463	-0.916041	0.4678
C	-0.449154	1.150891	0.783914
N	-0.702379	2.084001	1.453386
N	-0.099219	-1.139231	-2.233312
H	-0.582418	-1.939007	-1.838254
H	0.899864	-1.30629	-2.149223
C	-0.039935	1.299138	-2.205822
H	1.044055	1.343768	-2.355541
H	-0.353519	2.193799	-1.662773
H	-0.518093	1.304165	-3.188068
F	-2.600911	0.0	0.0
