15

C	0.0	0.0	0.0
C	-0.406061	-0.260862	-1.528128
Br	1.939343	0.0	0.0
H	0.521706	-0.184875	-2.102136
H	-0.365276	-0.779337	0.661777
C	-0.436261	1.305677	0.476844
N	-0.622168	2.407	0.842105
N	-1.363472	0.65355	-2.10659
H	-2.149867	0.593485	-1.425148
H	-0.98767	1.596096	-2.063708
C	-0.942546	-1.682495	-1.614429
H	-1.863043	-1.685844	-1.02956
H	-0.220386	-2.404659	-1.215086
H	-1.151943	-1.929008	-2.657954
F	-2.610816	0.0	0.0
