15

C	-0.620843	0.054641	-1.370732
C	0.0	0.0	0.0
Br	-2.541771	0.193401	-1.283835
H	1.09084	0.0	0.0
H	-0.332079	0.861469	0.57384
N	-0.139665	1.318108	-2.096552
O	0.07085	2.2938	-1.394269
O	-0.076055	1.252532	-3.315008
N	-0.191293	-1.101944	-2.27712
O	1.02209	-1.198032	-2.359136
O	-1.041713	-1.768237	-2.838358
N	-0.460592	-1.202361	0.735557
O	-0.573309	-2.252057	0.101631
O	-0.659306	-1.069628	1.940358
Br	3.373744	0.0	0.0
