15

C	-0.520167	0.014426	-1.418612
C	0.0	0.0	0.0
Br	0.192652	-1.515668	-2.32244
H	1.0904	0.0	0.0
H	-0.353114	-0.886056	0.522312
N	-2.04528	-0.06147	-1.492928
O	-2.550373	-0.350627	-2.569874
O	-2.636557	0.190726	-0.447834
N	-0.099952	1.286776	-2.18771
O	-0.980796	1.912167	-2.751154
O	1.115204	1.424962	-2.303951
N	-0.389134	1.189044	0.802059
O	-0.578555	2.242795	0.199229
O	-0.535981	1.009722	2.007794
Br	3.327372	0.0	0.0
