18

C	0.0	0.0	0.0
C	-0.264039	0.052115	-1.536985
F	1.37502	0.0	0.0
H	0.484484	-0.624099	-1.94694
N	-0.651661	0.935265	0.7518
H	-1.701736	0.716405	0.542165
H	-0.479232	0.764606	1.739743
N	-0.243691	-1.485775	0.481166
O	-0.33412	-1.637319	1.69467
O	-0.222959	-2.390042	-0.348177
N	0.221724	1.413015	-1.971887
O	1.387086	1.496488	-2.366286
O	-0.574154	2.346723	-1.938877
C	-1.597113	-0.212602	-2.196456
H	-1.437114	-0.16056	-3.282431
H	-1.938536	-1.208302	-1.92633
H	-2.36257	0.477533	-1.861431
H	-2.987012	0.0	0.0
