18

C	-0.565878	-0.009617	-1.410413
C	0.0	0.0	0.0
Cl	0.253248	-1.289172	-2.360961
H	1.086322	0.0	0.0
C	-2.059731	-0.190592	-1.527254
H	-2.350593	-0.168796	-2.576305
H	-2.335594	-1.151857	-1.094042
H	-2.560121	0.611471	-0.986507
N	-0.139525	1.297632	-2.099987
O	0.907095	1.804831	-1.726304
O	-0.847209	1.684546	-3.024251
N	-0.360417	-1.264077	0.702964
O	-1.425932	-1.292988	1.326333
O	0.421555	-2.204618	0.592024
N	-0.450461	1.100065	0.778731
O	-1.077463	2.038098	0.234771
O	-0.018933	1.119832	1.951328
H	2.334327	0.0	0.0
