18

C	-0.48362	0.043883	-1.434562
C	0.0	0.0	0.0
Cl	-2.211243	0.482003	-1.574185
H	1.087137	0.0	0.0
C	0.366159	0.958075	-2.296032
H	0.120243	0.782318	-3.34505
H	0.173807	1.995456	-2.038773
H	1.416498	0.73217	-2.081493
N	-0.278685	-1.350667	-2.046638
O	0.704978	-1.953571	-1.637936
O	-1.011161	-1.692277	-2.964035
N	-0.483681	-1.149228	0.763479
O	0.066985	-1.317971	1.854067
O	-1.338645	-1.894546	0.269253
N	-0.357305	1.232327	0.712943
O	0.166721	2.260285	0.270489
O	-1.105915	1.182434	1.692724
H	2.415925	0.0	0.0
