18

C	-0.386112	0.004927	-1.459751
C	0.0	0.0	0.0
Cl	0.340982	1.448083	-2.195956
H	1.089264	0.0	0.0
C	0.112899	-1.208407	-2.219476
H	1.181704	-1.307659	-2.017175
H	-0.059552	-1.044286	-3.285904
H	-0.401898	-2.105872	-1.883657
N	-1.910375	0.053393	-1.656238
O	-2.526578	-0.715173	-0.923957
O	-2.388395	0.7381	-2.548277
N	-0.369559	-1.19362	0.756884
O	0.143371	-2.246609	0.360787
O	-1.078098	-1.08409	1.762177
N	-0.478275	1.185142	0.720105
O	-1.3892	1.861662	0.226511
O	0.114536	1.443887	1.767998
H	2.403527	0.0	0.0
