18

C	-0.520284	0.018283	-1.418166
C	0.0	0.0	0.0
Cl	-2.274901	0.358415	-1.506443
H	1.087163	0.0	0.0
C	0.244903	0.988331	-2.297101
H	0.006121	2.010871	-2.019044
H	-0.034298	0.813503	-3.33829
H	1.313729	0.817405	-2.130823
N	-0.255129	-1.359242	-2.046339
O	0.776871	-1.902893	-1.676402
O	-0.999394	-1.740761	-2.937978
N	-0.450955	-1.138439	0.791891
O	-1.223626	-1.966423	0.291223
O	0.067964	-1.230034	1.908494
N	-0.357896	1.245545	0.697698
O	0.215977	2.257987	0.282442
O	-1.165629	1.21853	1.628846
H	2.404281	0.0	0.0
