18

C	-0.516614	0.013349	-1.42576
C	0.0	0.0	0.0
Cl	-2.219925	0.540855	-1.540994
H	1.088342	0.0	0.0
C	0.356599	0.835442	-2.354416
H	0.065343	0.629548	-3.386594
H	1.398417	0.555827	-2.165221
H	0.233183	1.891106	-2.135524
N	-0.411374	-1.413948	-1.980727
O	0.595611	-2.019948	-1.629982
O	-1.241558	-1.791882	-2.793668
N	-0.46606	-1.145467	0.791281
O	-1.407852	-1.825773	0.369674
O	0.172658	-1.366353	1.823371
N	-0.337113	1.235154	0.70712
O	0.055571	2.270345	0.157889
O	-0.903234	1.183731	1.800622
H	2.404406	0.0	0.0
