18

C	-0.439729	-0.001003	-1.450208
C	0.0	0.0	0.0
Cl	0.158551	1.436858	-2.312145
H	1.090279	0.0	0.0
C	0.126476	-1.221959	-2.144282
H	1.198735	-1.240136	-1.917496
H	-0.029555	-1.143177	-3.218196
H	-0.354501	-2.127598	-1.781928
N	-1.96358	0.071597	-1.598262
O	-2.47176	-0.558896	-2.519396
O	-2.556031	0.799537	-0.811435
N	-0.442117	-1.233784	0.675147
O	0.235874	-1.595192	1.63449
O	-1.437508	-1.829049	0.241832
N	-0.4042	1.135932	0.843783
O	-0.003539	2.240223	0.476885
O	-1.0277	0.91023	1.884214
H	2.45537	0.0	0.0
