18

C	-0.544947	0.005284	-1.424238
C	0.0	0.0	0.0
Cl	0.513571	-0.959253	-2.509541
H	1.088294	0.0	0.0
C	-1.973144	-0.449681	-1.59478
H	-2.621923	0.194152	-1.001274
H	-2.256908	-0.38947	-2.64373
H	-2.045145	-1.481349	-1.256826
N	-0.376846	1.428737	-1.976366
O	-1.185649	1.798455	-2.820148
O	0.599433	2.057365	-1.592356
N	-0.36482	-1.181675	0.733742
O	-0.553086	-1.110304	1.958636
O	-0.311933	-2.250218	0.093367
N	-0.415543	1.189817	0.757171
O	0.275189	1.488314	1.729336
O	-1.404592	1.828307	0.36565
H	2.314725	0.0	0.0
