11

C	0.0	0.0	0.0
C	-0.364721	-0.0798	-1.495365
Br	1.946032	0.0	0.0
H	0.31736	-0.822389	-1.931568
H	-0.32984	-0.880466	0.546977
H	-0.357948	0.90178	0.489452
H	-0.06526	0.884696	-1.93466
N	-1.741094	-0.445633	-1.787917
H	-2.394997	-0.341346	-0.974267
H	-2.115003	0.214208	-2.459766
H	-3.623838	0.0	0.0
