16

C	-0.42757	-0.075375	-1.442905
C	0.0	0.0	0.0
F	0.005733	1.088224	-2.021079
H	1.089082	0.0	0.0
H	-0.379917	0.91413	0.453527
C	0.074209	-1.241154	-2.249865
H	-0.367334	-2.16995	-1.898777
H	-0.16986	-1.06552	-3.300792
H	1.156729	-1.281919	-2.106498
N	-1.958797	-0.028535	-1.57376
O	-2.588871	-0.770571	-0.824489
O	-2.444637	0.698262	-2.4338
N	-0.406563	-1.111607	0.84972
O	-0.851957	-0.836108	1.969961
O	-0.169175	-2.260004	0.463251
H	2.641774	0.0	0.0
