16

C	-0.535047	0.024946	-1.402759
C	0.0	0.0	0.0
F	-1.888115	0.30112	-1.409372
H	1.095332	0.0	0.0
H	-0.303705	0.92924	0.483979
C	0.205438	1.060558	-2.21339
H	-0.130615	1.034732	-3.252901
H	-0.006188	2.046977	-1.796478
H	1.276818	0.86551	-2.137911
N	-0.383171	-1.309039	-2.130697
O	-1.399878	-1.88397	-2.491948
O	0.766289	-1.660519	-2.353052
N	-0.499227	-1.08046	0.834393
O	-0.588117	-2.210563	0.34056
O	-0.705513	-0.825026	2.026608
H	2.616107	0.0	0.0
