16

C	-0.520378	0.069364	-1.424022
C	0.0	0.0	0.0
F	-0.122788	-1.089031	-2.031533
H	1.090867	0.0	0.0
H	-0.372675	-0.943152	0.403514
C	-2.011758	0.216086	-1.615199
H	-2.37262	1.147136	-1.186925
H	-2.229026	0.189941	-2.686499
H	-2.512566	-0.619226	-1.124586
N	0.13049	1.212166	-2.190964
O	0.76383	0.955529	-3.203049
O	-0.112624	2.327929	-1.739232
N	-0.561315	1.051943	0.869544
O	0.104208	2.059955	1.087463
O	-1.677767	0.835146	1.363032
H	2.762111	0.0	0.0
