16

C	-0.626384	0.182086	-1.365392
C	0.0	0.0	0.0
F	-0.407663	-1.00104	-2.045567
H	1.095608	0.0	0.0
H	-0.295006	-0.979125	0.377209
C	-2.107371	0.464069	-1.381704
H	-2.609473	-0.349869	-0.854326
H	-2.319288	1.411526	-0.894594
H	-2.466298	0.500253	-2.412231
N	0.102976	1.234488	-2.205198
O	-0.456349	2.315686	-2.378651
O	1.192011	0.904576	-2.656466
N	-0.403072	0.986599	0.956935
O	-0.475015	2.169705	0.568607
O	-0.488973	0.63846	2.148207
H	2.508619	0.0	0.0
