16

C	-0.532214	0.101849	-1.399837
C	0.0	0.0	0.0
F	-1.88041	0.398348	-1.393473
H	1.089319	0.0	0.0
H	-0.297484	0.904544	0.531746
C	0.226977	1.165017	-2.156409
H	1.296719	0.954569	-2.078124
H	-0.098867	1.188667	-3.198803
H	0.021035	2.134027	-1.697113
N	-0.396795	-1.194416	-2.193352
O	0.748776	-1.57429	-2.388182
O	-1.418798	-1.712296	-2.6249
N	-0.508966	-1.118053	0.77921
O	-0.664925	-0.932392	1.991702
O	-0.6647	-2.20782	0.21579
H	2.629232	0.0	0.0
