16
Coordinates from ORCA-job run
  C   -0.33443663319095     -0.64229895430650      0.16498269647108
  C   1.05103886575379      0.01511338121843      0.00473804665471
  Br  0.06284070124729     -2.45146350626698      0.86302978767475
  H   1.61414356095391     -0.07344698731559      0.93396630461683
  N   -0.94521430888408     -0.79834339623213     -1.11993425474246
  H   -0.93969010416444      0.07704429278054     -1.63194341479410
  H   -1.89332769889171     -1.14240352661982     -1.03260554143505
  C   -1.15959361458779      0.08210039067405      1.22229193619089
  H   -0.61918602884053      0.19079466734090      2.16482636537016
  H   -2.07558527058521     -0.47993393633691      1.41182899618462
  H   -1.43819360273611      1.07311986288029      0.85151199710690
  N   0.85907027201038      1.50532998685082     -0.19800674019079
  O   1.17130352975918      2.22741949616633      0.74203293620019
  O   0.36084571896213      1.86450574922701     -1.26180950982383
  C   1.81353000272218     -0.52082288383146     -1.11610259807574
  N   2.47345461047196     -0.92571463622899     -1.99880700740816
