16
Coordinates from ORCA-job run
  C   -0.44784563187420     -0.52130820030698      0.04053496744005
  C   0.83812169641236      0.06350262517653     -0.58646537718360
  Br  0.10335545748237     -2.27059887869814      0.88545400636966
  H   1.18664175824938     -0.60135234852280     -1.37994687264078
  N   -1.35346783919018     -0.69589700961799     -1.03369810113486
  H   -2.27948227103383     -0.94127090807237     -0.70691396782958
  H   -1.04143773857540     -1.38727902856131     -1.70483794929056
  C   -1.07060554260401      0.33293782074046      1.12716566114364
  H   -0.39121414006858      0.47874899375871      1.96267467560259
  H   -1.97203722636933     -0.16265725554643      1.49392050749799
  H   -1.34358747234531      1.30482209158333      0.70828893091984
  N   1.99169022817363      0.15199298901284      0.38411213498389
  O   2.95406731623705     -0.56911723827657      0.14984111816063
  O   1.87183061568930      0.94213645868846      1.31384787385786
  C   0.57865647620301      1.39906853052451     -1.11539956955690
  N   0.37631431361372      2.47527135811774     -1.53957803833987
