16
Coordinates from ORCA-job run
  C   -0.40172669976053     -0.60934960506687      0.23588192699830
  C   1.02701838728123      0.00222808317568      0.05249071045945
  Br  -0.03895987524879     -2.38183250692899      1.01293802993318
  H   1.59198294728918     -0.04630573818717      0.98372678700008
  N   -1.15331692046358     -0.81086269053888     -0.96088527012480
  H   -1.39069898573441      0.07943345325735     -1.38412414739035
  H   -0.65279089056027     -1.37731404890036     -1.63627205889094
  C   -1.20269101761560      0.21449136161276      1.22793462037876
  H   -0.64697276793296      0.38353029690231      2.15101056590797
  H   -2.12900468818996     -0.31307401720716      1.45143120327060
  H   -1.45642914269176      1.18440695874223      0.78866308901170
  N   0.86580091089313      1.47131967773333     -0.25254317457327
  O   0.39681281770870      1.76302904579991     -1.34960890704789
  O   1.15341518505539      2.25034341594378      0.65043897178627
  C   1.74533315990669     -0.63595886199087     -1.03996187108624
  N   2.29222758006354     -1.17108482434706     -1.93112047563282
