14

C	0.0	0.0	0.0
C	-0.355532	-0.229743	-1.477859
Cl	1.784381	0.0	0.0
H	0.341578	0.39536	-2.067402
H	-0.382015	0.973218	0.294179
C	-0.409103	-1.121896	0.951918
H	-0.016694	-0.908474	1.950432
H	-1.495559	-1.178317	0.957792
H	0.066389	-2.054259	0.62221
C	-1.69228	0.154881	-1.966414
N	-2.531703	0.39682	-2.752076
C	-0.113828	-1.615931	-1.899592
N	0.092039	-2.719425	-2.251298
F	-2.562903	0.0	0.0
