14

C	0.0	0.0	0.0
C	-0.50229	-0.422531	-1.390714
Cl	1.78434	0.0	0.0
H	0.15726	0.04906	-2.129838
H	-0.325413	1.023923	0.167537
C	-0.419103	-0.897791	1.15417
H	-1.506892	-0.912797	1.158737
H	-0.029952	-0.488911	2.090611
H	-0.000799	-1.898419	1.018962
C	-1.888323	0.005953	-1.770857
N	-2.549808	0.315015	-2.706188
C	-0.346254	-1.869171	-1.584097
N	-0.179339	-3.019548	-1.753501
F	-2.638232	0.0	0.0
