19

C	-0.411382	-0.004729	-1.456609
C	0.0	0.0	0.0
Cl	0.438596	-1.222845	-2.372494
H	1.096184	0.0	0.0
N	-1.919141	-0.187982	-1.720988
O	-2.672004	-0.182314	-0.753329
O	-2.256482	-0.292114	-2.893749
N	-0.145808	1.379541	-2.076901
O	0.955428	1.589094	-2.55194
O	-1.070359	2.180267	-1.963091
C	-0.405113	-1.283209	0.730836
H	-1.457069	-1.279682	1.019203
H	0.21382	-1.353643	1.628298
H	-0.198224	-2.172556	0.132884
C	-0.42335	1.248481	0.771989
H	-1.50485	1.389621	0.791891
H	-0.061471	1.131986	1.796329
H	0.051887	2.146057	0.372903
Br	3.514902	0.0	0.0
