19

C	-0.482409	-0.010294	-1.432035
C	0.0	0.0	0.0
Cl	-2.204455	0.343671	-1.599837
H	1.10065	0.0	0.0
N	0.234373	0.978405	-2.357405
O	0.097265	0.767248	-3.557151
O	0.833946	1.905527	-1.836222
N	-0.179553	-1.378851	-2.051631
O	-1.094128	-2.181866	-2.169895
O	1.003459	-1.558883	-2.298414
C	-0.434868	-1.28357	0.71083
H	-1.518004	-1.435697	0.671954
H	0.064645	-2.161051	0.296634
H	-0.129408	-1.207582	1.756439
C	-0.473686	1.222489	0.783957
H	-1.537251	1.155499	1.030634
H	0.098975	1.25521	1.71393
H	-0.284213	2.151225	0.249118
Br	3.532151	0.0	0.0
