16

C	-0.52603	0.002809	-1.431724
C	0.0	0.0	0.0
F	-0.193088	1.262405	-1.954235
H	1.100455	0.0	0.0
H	0.018835	-0.735813	-2.017822
C	-2.024567	-0.162126	-1.548214
H	-2.32912	0.009766	-2.58331
H	-2.525355	0.556672	-0.899284
H	-2.319382	-1.17234	-1.263068
N	-0.379672	-1.284677	0.662976
O	-0.609828	-1.262926	1.869633
O	-0.371724	-2.302477	-0.031829
N	-0.578874	1.099702	0.748386
H	-0.274785	1.937203	0.263122
H	-0.133078	1.114623	1.65842
Cl	3.344486	0.0	0.0
