16

C	-0.42472	-0.00099	-1.46194
C	0.0	0.0	0.0
F	-1.808691	0.244386	-1.550042
H	1.090685	0.0	0.0
H	0.069099	0.867136	-1.909666
C	-0.095207	-1.257097	-2.228019
H	-0.676395	-2.099297	-1.850181
H	-0.328745	-1.11702	-3.285878
H	0.967076	-1.481732	-2.11181
N	-0.5143	-1.269963	0.626801
O	0.198505	-2.269919	0.557858
O	-1.65003	-1.244516	1.100293
N	-0.472712	1.11668	0.760088
H	-1.344956	1.475383	0.395436
H	0.240715	1.832494	0.781159
Cl	3.368827	0.0	0.0
