16

C	-0.422612	0.005586	-1.463042
C	0.0	0.0	0.0
F	-1.807523	0.246865	-1.553316
H	1.090719	0.0	0.0
H	0.069613	0.87741	-1.905762
C	-0.08663	-1.245722	-2.234606
H	-0.667308	-2.09136	-1.863058
H	0.976261	-1.468	-2.115599
H	-0.316671	-1.101149	-3.29291
N	-0.512096	-1.274086	0.619231
O	0.205153	-2.269838	0.551335
O	-1.650379	-1.255596	1.085538
N	-0.472173	1.116091	0.761468
H	-1.345372	1.475128	0.396426
H	0.241707	1.83268	0.778408
Cl	3.36793	0.0	0.0
