16

C	-0.468201	-0.025931	-1.44262
C	0.0	0.0	0.0
F	-1.877534	-0.032961	-1.458561
H	1.09153	0.0	0.0
H	-0.158249	0.937925	-1.853361
C	0.047313	-1.160493	-2.291033
H	-0.379545	-2.1102	-1.971811
H	-0.220582	-0.983731	-3.335435
H	1.133334	-1.21607	-2.192751
N	-0.447043	-1.297408	0.674657
O	0.142139	-2.329966	0.368019
O	-1.386836	-1.238951	1.471432
N	-0.49732	1.153545	0.670613
H	-1.477839	1.034493	0.885915
H	0.016831	1.290726	1.530104
Cl	3.352132	0.0	0.0
