16

C	-0.503149	-0.056453	-1.429153
C	0.0	0.0	0.0
F	-1.901692	-0.248636	-1.404868
H	1.097072	0.0	0.0
H	-0.340776	0.949985	-1.8209
C	0.135175	-1.082894	-2.329195
H	-0.153532	-2.090484	-2.037429
H	1.222027	-0.996024	-2.249088
H	-0.174176	-0.903371	-3.362939
N	-0.415351	-1.283638	0.721687
O	-1.182873	-1.186444	1.681448
O	0.039273	-2.34385	0.301603
N	-0.46938	1.166683	0.67349
H	0.123803	1.341684	1.473598
H	-1.416639	1.026782	1.001048
Cl	3.33678	0.0	0.0
