18
Coordinates from ORCA-job run
  C   -0.62420197019932     -0.22409072104844     -0.60169305743751
  C   0.85271710410244     -0.22444208808178     -0.19900695927449
  F   -0.69184982564415     -0.39718112572186     -1.95549373160027
  H   1.32149842318980     -1.04080789549871     -0.75099712970042
  C   -1.46467562917556      0.95771041133303     -0.20873869089753
  H   -1.12240449345728      1.83199189482839     -0.76134123273081
  H   -2.50267870650641      0.75414564104739     -0.47332751510728
  H   -1.40678939935926      1.16203530367135      0.85723425925045
  N   -1.17603620999737     -1.51003248778430      0.01281144819981
  O   -0.82638799706435     -2.55356547248311     -0.52674227587771
  O   -1.86759049916496     -1.40171219036849      1.02080574170737
  C   1.10832720021850     -0.31922777352070      1.29098652240118
  H   0.59034149463085      0.46631631725897      1.83835442678923
  H   2.17800890679994     -0.22101909645622      1.48272313290029
  H   0.78791187543766     -1.29171630353925      1.66683690148560
  N   1.46679549695429      1.02661754991821     -0.75678431357798
  O   1.34515368545254      2.05399966521534     -0.09147475966734
  O   2.03186054378265      0.93197837123021     -1.84315276686259
