18
Coordinates from ORCA-job run
  C   -0.69780839579982     -0.31052225620919      0.04665437739331
  C   0.68129415255940      0.33776676775188      0.03241855953356
  F   -0.62021533205280     -1.61683478415867      0.40990622375663
  H   0.60715636230754      1.32254408050753     -0.42719078599180
  C   -1.41831672629726     -0.20284892286951     -1.27874418177417
  H   -0.85815236317791     -0.72933626430519     -2.05163934561284
  H   -2.39613965812088     -0.67753527973506     -1.17801797610196
  H   -1.54994664641668      0.84093227631350     -1.56384752393367
  N   -1.57451215069104      0.40137895371975      1.06911508304818
  O   -1.49699917650907      1.62683125776865      1.04551718304120
  O   -2.31494850886557     -0.27972729013191      1.75797085154503
  C   1.72554344943562     -0.52542586925019     -0.65875904299304
  H   2.67996218075032      0.00156583843415     -0.66419924354466
  H   1.43910689995264     -0.72711808095287     -1.69147758515007
  H   1.83839406371122     -1.47384516936501     -0.13316318626490
  N   1.17885275564803      0.61075193607323      1.42548677387236
  O   2.04383759560190      1.47520771412709      1.51971454963532
  O   0.73289149796435     -0.07478490771817      2.34125526954151
