18
Coordinates from ORCA-job run
  C   -0.68480092685424     -0.17892722723380     -0.54752095037647
  C   0.82431789573682     -0.21969048012616     -0.29528593347872
  F   -0.88767204428638     -0.25752983809412     -1.89648520554489
  H   1.22167090926398     -1.01059724093038     -0.93368842196508
  C   -1.46677907557474      0.97809066766985      0.00688003076784
  H   -2.52782062165083      0.80202761387344     -0.17259173283935
  H   -1.30672867221983      1.10289713715238      1.07464244950561
  H   -1.16480113761493      1.88783697377747     -0.51060288620323
  N   -1.19205198721703     -1.50045072049289      0.03003356772844
  O   -1.77525049988647     -1.45734044245224      1.10896468284529
  O   -0.91757317010518     -2.50629735381372     -0.61432304353527
  C   1.22542948258441     -0.39701456701973      1.15462457093397
  H   0.78690187881337      0.37203381859127      1.78806478993085
  H   2.31135844577285     -0.33349105261652      1.24090529081819
  H   0.91695104743361     -1.37933930881480      1.51443753302973
  N   1.40477945858482      1.05092723362475     -0.84547766869744
  O   1.87936592700133      1.00134059854304     -1.97707091243236
  O   1.35070309021841      2.04752418836216     -0.12650616048710
