18
Coordinates from ORCA-job run
  C   -0.66494027894298     -0.29020440387624     -0.43873868163798
  C   0.83098074373582      0.01987905249121     -0.27754547941039
  F   -0.72382604463215     -1.38456237754705     -1.25488854804505
  H   1.20523614419076      0.14546859291315     -1.29635227296658
  C   -1.55963349045533      0.78813485925389     -0.98849395793522
  H   -2.55410319723554      0.35987147680420     -1.13101192809510
  H   -1.62096266386639      1.63748984434465     -0.31365866862044
  H   -1.17239963219774      1.12332992608733     -1.95047393604878
  N   -1.19659759672649     -0.72334687893903      0.91872824579686
  O   -1.49932370579460     -1.89650434331496      1.08004782666440
  O   -1.24484923555452      0.17689854167807      1.75208227993905
  C   1.58297374582868     -1.06609991185896      0.46087175868829
  H   1.28215653127762     -1.11137800468346      1.50672353488284
  H   2.65471973158218     -0.86835801920467      0.42602587278264
  H   1.38619131092827     -2.02793883883560     -0.01406995161923
  N   1.04271618612910      1.36784912242352      0.35964304550889
  O   1.43271194937447      1.40800437561496      1.52148808613862
  O   0.81894950235884      2.34046698664897     -0.35937722602283
