18
Coordinates from ORCA-job run
  C   -0.67355567407677     -0.31187085836447      0.08947376442501
  C   0.69291856452620      0.36026563543868      0.20598452124655
  F   -0.53626405549743     -1.63909606922725      0.36218932972107
  H   0.53454669567549      1.43198321405008      0.33787575436706
  C   -1.35559800948644     -0.13618779196921     -1.24509241281331
  H   -2.35646594898230     -0.56820954227667     -1.18511326479658
  H   -1.43587486201937      0.91868521051622     -1.50524399729995
  H   -0.79552028977385     -0.66896203760163     -2.01294113671308
  N   -1.61249050942620      0.27501206275360      1.14311183910552
  O   -2.15410414361482     -0.49474546988933      1.91903019283236
  O   -1.77457383279984      1.48732283894221      1.06139268422052
  C   1.61514827553508      0.05467250528860     -0.95373223873721
  H   2.61141404732190      0.44465059529437     -0.74849064667781
  H   1.69941316816205     -1.01975845730485     -1.11573359895631
  H   1.24196643491623      0.53393259812778     -1.85980498384182
  N   1.29503905349954     -0.10897449706846      1.51101926099407
  O   2.29701311334876     -0.81382090276341      1.47089295524599
  O   0.70598797269178      0.25310096605374      2.52618197767792
