18
Coordinates from ORCA-job run
  C   -0.66873814910706     -0.28538916671812     -0.43578745841135
  C   0.82945471945397      0.01826088247519     -0.28280070542327
  F   -0.73694577323064     -1.37425429164150     -1.25846143647969
  H   1.19673256218188      0.14765089749740     -1.30367117426556
  C   -1.56252647860614      0.80002350806799     -0.97294215162330
  H   -1.61374013770021      1.64662073201025     -0.29376822389914
  H   -1.18137601630577      1.13734085143571     -1.93663594261399
  H   -2.56045714679089      0.37783163732134     -1.10913954325913
  N   -1.19404579065396     -0.72515395313792      0.92216848069742
  O   -1.23356244833877      0.16978405150190      1.76155566699148
  O   -1.50171946937869     -1.89782870162157      1.07715800666450
  C   1.58229086234186     -1.07447219717462      0.44474506264142
  H   1.37951765710393     -2.03286511511058     -0.03462053747704
  H   1.28734204625197     -1.12466088253891      1.49204562633352
  H   2.65449928574138     -0.88018779331523      0.40487220323943
  N   1.05083109172094      1.36178130350515      0.35981998836633
  O   1.44458124342516      1.39430120509619      1.52065760335557
  O   0.82886194189104      2.33921703234733     -0.35319546483721
