14

C	0.0	0.0	0.0
C	-0.643641	-0.131471	-1.401233
Cl	1.785775	0.0	0.0
H	0.131644	-0.54893	-2.050043
H	-1.450383	-0.861561	-1.27632
N	-0.384229	1.28969	0.757773
O	-1.041463	1.150923	1.779437
O	0.034072	2.333475	0.284387
C	-0.377399	-1.143303	0.833199
N	-0.554424	-2.131795	1.442982
N	-1.12135	1.129404	-1.935049
H	-1.277995	0.996205	-2.926688
H	-2.043438	1.260134	-1.51276
Br	-3.732825	0.0	0.0
