14

C	0.0	0.0	0.0
C	-0.445462	-0.241646	-1.47027
Cl	1.763982	0.0	0.0
H	-0.064368	-1.241545	-1.707556
H	0.130204	0.47456	-2.061878
N	-0.432765	1.380527	0.493804
O	-0.593692	1.512527	1.698904
O	-0.515064	2.252238	-0.361073
C	-0.481374	-1.016552	0.922427
N	-0.797381	-1.920517	1.603611
N	-1.824313	-0.137477	-1.799472
H	-2.454036	-0.708625	-1.242177
H	-2.169976	0.806185	-1.692726
Br	-4.563115	0.0	0.0
