17

C	-0.489961	0.03216	-1.462993
C	0.0	0.0	0.0
Br	-0.23844	-1.706775	-2.342581
H	1.091042	0.0	0.0
C	-1.917942	0.338088	-1.540656
N	-3.051338	0.637315	-1.630562
C	0.337268	1.073748	-2.212409
H	0.046577	1.105521	-3.263602
H	1.393496	0.814406	-2.112908
H	0.165887	2.045543	-1.747907
N	-0.51423	-1.246725	0.692462
O	-1.693405	-1.210253	1.061892
O	0.24498	-2.196125	0.839831
N	-0.452986	1.18868	0.651443
H	-1.39996	1.074908	0.993729
H	0.176267	1.41621	1.410937
Cl	3.321522	0.0	0.0
