17

C	-0.37301	-0.04822	-1.505899
C	0.0	0.0	0.0
Br	-2.327908	-0.355784	-1.727486
H	1.092637	0.0	0.0
C	-0.140653	1.291251	-2.044239
N	0.0391	2.3653	-2.487952
C	0.404636	-1.079278	-2.313101
H	1.467384	-0.929955	-2.094903
H	0.208705	-0.945276	-3.378595
H	0.125208	-2.085384	-2.010011
N	-0.47159	-1.284085	0.639838
O	0.118736	-2.313493	0.315367
O	-1.425111	-1.228344	1.410876
N	-0.47075	1.108673	0.745542
H	-1.407645	1.398598	0.501211
H	0.186913	1.872042	0.677762
Cl	3.264233	0.0	0.0
