17

C	-0.407091	-0.141962	-1.475567
C	0.0	0.0	0.0
Br	-2.380961	-0.385819	-1.614481
H	1.093021	0.0	0.0
C	-0.127703	1.133305	-2.133202
N	0.091289	2.112098	-2.744582
C	0.295016	-1.270555	-2.219665
H	1.369417	-1.166952	-2.03253
H	0.084505	-1.193984	-3.287716
H	-0.032614	-2.23811	-1.848286
N	-0.436953	-1.254751	0.75154
O	-1.312126	-1.127955	1.608406
O	0.102939	-2.315946	0.452012
N	-0.492201	1.193085	0.58167
H	-1.443961	1.077127	0.905994
H	0.1021	1.460742	1.355666
Cl	3.250751	0.0	0.0
