17

C	-0.445781	-0.014396	-1.471595
C	0.0	0.0	0.0
Br	-2.399414	-0.399016	-1.572665
H	1.095264	0.0	0.0
C	-0.29566	1.342003	-1.998944
N	-0.169013	2.384395	-2.527338
C	0.314646	-0.988725	-2.362774
H	1.382613	-0.81278	-2.19878
H	0.055512	-0.810732	-3.407758
H	0.085572	-2.016133	-2.093246
N	-0.398933	-1.320477	0.658758
O	0.059247	-2.35521	0.184875
O	-1.146456	-1.266531	1.635172
N	-0.488718	1.129146	0.699552
H	-1.421283	0.966226	1.057436
H	0.133956	1.345894	1.466625
Cl	3.245463	0.0	0.0
