14

C	0.0	0.0	0.0
C	-0.355738	0.335782	-1.454454
F	1.390559	0.0	0.0
H	-0.132261	1.395998	-1.619543
H	0.366365	-0.225391	-2.059268
C	-0.445144	1.037417	0.941517
N	-0.562882	1.906656	1.723402
C	-0.3957	-1.400275	0.435649
H	0.042291	-1.597854	1.418107
H	0.024442	-2.110782	-0.283143
H	-1.484083	-1.425983	0.454659
C	-1.694197	0.050055	-1.991855
N	-2.455486	-0.141838	-2.872941
F	-2.538751	0.0	0.0
