16

C	0.0	0.0	0.0
C	-0.428071	0.113452	-1.505231
Br	1.953635	0.0	0.0
H	0.438169	0.434866	-2.093086
H	-0.26318	-0.987473	0.381271
N	-0.53516	0.97689	0.893158
H	-0.591143	1.847905	0.371949
H	-1.517131	0.68928	1.012125
N	-1.445704	1.153376	-1.626453
H	-1.714202	1.216022	-2.604059
H	-2.278936	0.814399	-1.098678
C	-0.865371	-1.269299	-2.001526
H	-0.069935	-2.012364	-1.860195
H	-1.106591	-1.230142	-3.070186
H	-1.762532	-1.570108	-1.455651
H	-3.293502	0.0	0.0
