16

C	0.0	0.0	0.0
C	-0.399977	0.117839	-1.51943
Br	1.95805	0.0	0.0
H	0.453546	0.57983	-2.025874
H	-0.249509	-0.993149	0.388813
N	-0.540234	1.086895	0.766654
H	-1.561517	0.947631	0.680788
H	-0.309753	0.940214	1.745112
N	-1.560835	0.930752	-1.818288
H	-1.383557	1.869147	-1.472434
H	-2.360069	0.571207	-1.260819
C	-0.608369	-1.283342	-2.079398
H	-1.498879	-1.718354	-1.619008
H	-0.771039	-1.224917	-3.158086
H	0.255131	-1.926871	-1.881598
H	-3.297198	0.0	0.0
