16

C	0.0	0.0	0.0
C	-0.385428	-0.007486	-1.52614
Br	1.959745	0.0	0.0
H	0.446645	0.47434	-2.050277
H	-0.251626	-0.958081	0.468044
N	-0.543102	1.148149	0.668151
H	-0.318202	1.086516	1.656813
H	-1.564152	1.005563	0.589881
N	-1.588197	0.709749	-1.893509
H	-2.372735	0.380278	-1.296239
H	-1.457333	1.686975	-1.651216
C	-0.494663	-1.452179	-1.998104
H	-1.367608	-1.914963	-1.530636
H	0.400097	-2.028742	-1.742921
H	-0.635778	-1.471291	-3.080864
H	-3.329005	0.0	0.0
