16

C	0.0	0.0	0.0
C	-0.299986	0.034433	-1.523045
Br	2.006776	0.0	0.0
H	0.434645	-0.609774	-2.023061
H	-0.242578	-0.976735	0.418971
N	-0.596047	1.022066	0.76448
H	-0.672088	1.842946	0.16795
H	-1.549776	0.722037	0.991991
N	-0.157086	1.429112	-1.95477
H	-0.68786	1.572655	-2.803054
H	0.817014	1.623198	-2.150568
C	-1.68454	-0.498976	-1.835994
H	-2.494214	-0.030481	-1.256832
H	-1.880953	-0.40566	-2.912806
H	-1.740582	-1.559971	-1.584776
H	-3.922813	0.0	0.0
