16

C	0.0	0.0	0.0
C	-0.568227	0.045421	-1.394496
Br	2.044028	0.0	0.0
H	-1.64821	-0.080579	-1.156542
H	-0.223403	-0.977971	0.421051
N	-0.466375	1.012071	0.836247
H	-0.128441	1.934705	0.615488
H	-0.373918	0.807345	1.816924
N	-0.105741	-1.121777	-2.141065
H	-0.77765	-1.319129	-2.87271
H	0.791275	-0.925286	-2.57343
C	-0.381066	1.378984	-2.104737
H	0.67754	1.618166	-2.24755
H	-0.859061	1.328663	-3.086438
H	-0.870488	2.183442	-1.551568
H	-3.548747	0.0	0.0
