13

C	0.0	0.0	0.0
C	-0.477486	-0.04388	-1.429049
Br	1.954944	0.0	0.0
H	-1.568935	-0.16835	-1.365625
H	-0.012759	-0.855173	-1.98466
H	-0.242709	0.916763	-1.890026
N	-0.628395	1.004835	0.713896
H	-1.671533	0.798749	0.534483
H	-0.44768	0.887661	1.7056
N	-0.256018	-1.418023	0.657029
O	-0.297988	-2.404193	-0.067677
O	-0.355746	-1.432647	1.878996
H	-3.013632	0.0	0.0
