13

C	0.0	0.0	0.0
C	-0.475147	0.033553	-1.430643
Br	1.954089	0.0	0.0
H	-0.007265	-0.744198	-2.029215
H	-0.242791	1.018549	-1.837276
H	-1.566327	-0.096084	-1.377041
N	-0.632654	0.958263	0.767761
H	-0.456134	0.785387	1.752691
H	-1.679447	0.760013	0.570628
N	-0.253949	-1.459528	0.572338
O	-0.252805	-2.405718	-0.206033
O	-0.395614	-1.54287	1.78762
H	-3.002549	0.0	0.0
