12
Coordinates from ORCA-job run
  C   -0.54072904308857      0.65579431499246     -0.30239323973008
  C   0.87960424624213      0.19554311742367      0.08367447589136
  Cl  -0.97729446736282      1.99813240446659      0.86307323697174
  H   1.51977956173793      1.07805471420545      0.18419789183729
  H   -0.49706927356902      1.13707961984681     -1.27935082913437
  N   -1.42814429030220     -0.43554722682871     -0.33643550684909
  H   -1.58147512128576     -0.84233251883640      0.57856320489376
  H   -2.31595098761092     -0.19640743894591     -0.75569172190026
  C   1.42488042406634     -0.67041987640821     -0.96722324125368
  N   1.86901301216761     -1.32940920065192     -1.83080023794768
  C   0.85399678861045     -0.50907373067955      1.36936365144735
  N   0.79538915039484     -1.08041417858428      2.39302231577367
