12
Coordinates from ORCA-job run
  C   -0.55352761641759      0.25665168864978     -0.53032367744188
  C   0.67508403220651      0.06281826602006      0.38310001623799
  Cl  -0.63404665296358      2.03773079447773     -0.91453530458131
  H   0.52023527613386      0.66766400721204      1.28571239049365
  H   -0.38000294272979     -0.23733764572019     -1.48625709895757
  N   -1.70394905061856     -0.27455264960683      0.09106741601577
  H   -1.97668154121786      0.25599253624373      0.90921211755672
  H   -2.48682536868820     -0.33048384939854     -0.54608122584970
  C   1.91044571584328      0.51637703242921     -0.26310489454664
  N   2.90279005570511      0.86348548542453     -0.78475449596952
  C   0.80240066219847     -1.34616252588745      0.77230362167460
  N   0.92407743054835     -2.47118313984407      1.08366113536790
