12
Coordinates from ORCA-job run
  C   -0.57001712747767      0.41628383092274     -0.45733496571573
  C   0.67986293567224     -0.43362780520632     -0.15380341949177
  Cl  -0.32435498856669      2.06632800617020      0.26417327167270
  H   0.52516644178685     -1.39316467368482     -0.66202484753042
  H   -0.61981087216328      0.57833399164637     -1.53454650725568
  N   -1.72443823419177     -0.27408968788047     -0.01641534923827
  H   -2.56933127589496      0.17057392859561     -0.35034672354927
  H   -1.76411201431941     -0.33260923250547      0.99496759277656
  C   0.78098657870686     -0.69633576524488      1.28469920723621
  N   0.80165070894044     -0.91989927854674      2.43670734529502
  C   1.90526920779333      0.17565566653640     -0.67446411707622
  N   2.87912863971408      0.64355101919736     -1.13261148712313
