13

C	-0.525503	-0.095988	-1.409837
C	0.0	0.0	0.0
F	0.065839	0.888456	-2.188639
H	1.091304	0.0	0.0
H	-1.607257	0.030017	-1.461509
H	-0.237222	-1.06442	-1.816055
N	-0.388737	-1.155653	0.787934
O	0.049336	-1.256548	1.939373
O	-1.068025	-2.035151	0.215275
N	-0.407333	1.227357	0.67986
O	0.043939	1.433782	1.810215
O	-1.119994	2.026879	0.048754
H	2.383142	0.0	0.0
