13

C	-0.380519	0.010379	-1.443944
C	0.0	0.0	0.0
F	-1.750903	0.163492	-1.648523
H	1.091628	0.0	0.0
H	0.130139	0.849318	-1.91512
H	-0.065353	-0.928836	-1.896176
N	-0.406278	-1.202622	0.721302
O	-0.035674	-1.299996	1.893715
O	-0.970846	-2.104898	0.084336
N	-0.431035	1.228457	0.673695
O	-1.033012	1.192337	1.747772
O	-0.099191	2.264907	0.088149
H	2.441723	0.0	0.0
