13

C	-0.444092	-0.066472	-1.442938
C	0.0	0.0	0.0
F	-0.129644	1.138145	-2.057292
H	1.087847	0.0	0.0
H	0.123926	-0.857467	-1.930929
H	-1.518265	-0.231747	-1.542156
N	-0.429281	-1.161324	0.730837
O	-0.458947	-2.223548	0.078762
O	-0.615578	-1.082227	1.95365
N	-0.513114	1.209864	0.677297
O	0.17641	1.688551	1.575217
O	-1.600757	1.662383	0.298093
H	2.450305	0.0	0.0
