13

C	-0.445408	-0.017904	-1.443124
C	0.0	0.0	0.0
F	-0.094298	1.187889	-2.033575
H	1.092416	0.0	0.0
H	0.09773	-0.813947	-1.948856
H	-1.523146	-0.150725	-1.546571
N	-0.415883	-1.190904	0.691266
O	-0.477943	-2.221676	-0.009018
O	-0.555229	-1.172381	1.922558
N	-0.49554	1.185565	0.722752
O	-1.527238	1.727878	0.306965
O	0.164226	1.569921	1.68806
H	2.427203	0.0	0.0
