16

C	-0.379709	0.00747	-1.46295
C	0.0	0.0	0.0
Br	0.522764	-1.376187	-2.428848
H	1.094466	0.0	0.0
N	-1.889838	-0.117621	-1.734187
O	-2.25223	-0.311332	-2.885704
O	-2.624461	0.07516	-0.769667
N	-0.004554	1.382825	-2.035834
O	-0.936424	2.13308	-2.305508
O	1.185837	1.614096	-2.148069
C	-0.46154	-1.230508	0.630724
N	-0.82546	-2.191784	1.203495
N	-0.424347	1.229314	0.637642
H	-1.34795	1.152999	1.043695
H	0.262664	1.468484	1.341413
F	2.487871	0.0	0.0
