16

C	-0.374068	0.057778	-1.479519
C	0.0	0.0	0.0
Br	0.470446	-1.34537	-2.467013
H	1.093781	0.0	0.0
N	-1.891122	0.007413	-1.652619
O	-2.434222	-1.031355	-1.996115
O	-2.460176	1.046011	-1.308932
N	0.021454	1.372337	-2.149397
O	-0.472518	1.567435	-3.255177
O	0.802748	2.104138	-1.560423
C	-0.501563	-1.261085	0.533728
N	-0.912861	-2.274243	0.967557
N	-0.41561	1.108072	0.830081
H	0.296173	1.821313	0.75702
H	-1.319009	1.484453	0.57184
F	2.483489	0.0	0.0
