16

C	-0.416459	0.007988	-1.449387
C	0.0	0.0	0.0
Br	0.460785	-1.376343	-2.438046
H	1.094432	0.0	0.0
N	-1.934035	-0.10551	-1.676091
O	-2.330839	-0.310581	-2.814687
O	-2.636958	0.063816	-0.68443
N	-0.062437	1.380008	-2.035835
O	-1.000817	2.146893	-2.222012
O	1.120088	1.602621	-2.218102
C	-0.457724	-1.219657	0.650695
N	-0.815938	-2.174296	1.238381
N	-0.377961	1.237152	0.653725
H	0.363672	1.476354	1.300534
H	-1.267075	1.17152	1.131224
F	2.485112	0.0	0.0
