16

C	-0.518	-0.050727	-1.412477
C	0.0	0.0	0.0
Br	-2.448791	-0.23578	-1.553949
H	1.09161	0.0	0.0
N	-0.060813	1.21867	-2.136555
O	1.134572	1.224784	-2.396776
O	-0.873055	2.096271	-2.362908
N	0.079214	-1.192296	-2.225809
O	0.625494	-2.089141	-1.599801
O	-0.057823	-1.118087	-3.440817
C	-0.475911	-1.125058	0.79121
N	-0.87744	-1.976827	1.499524
N	-0.336635	1.298101	0.573121
H	0.466804	1.588576	1.114497
H	-1.155412	1.26306	1.162739
F	2.474735	0.0	0.0
