16

C	-0.471112	0.009571	-1.430968
C	0.0	0.0	0.0
Br	0.361758	-1.374496	-2.456863
H	1.094468	0.0	0.0
N	-1.997815	-0.10858	-1.594933
O	-2.661709	0.059103	-0.576593
O	-2.439732	-0.315104	-2.716719
N	-0.143089	1.384575	-2.026637
O	1.031479	1.608162	-2.251618
O	-1.08779	2.150128	-2.176502
C	-0.439876	-1.21917	0.666434
N	-0.766094	-2.179758	1.262817
N	-0.359049	1.237865	0.665734
H	0.410488	1.482456	1.276421
H	-1.224653	1.170465	1.182826
F	2.485085	0.0	0.0
