16

C	-0.469967	0.03585	-1.432145
C	0.0	0.0	0.0
Br	0.50818	1.324157	-2.449023
H	1.09363	0.0	0.0
N	-0.306526	-1.350451	-2.059776
O	0.827838	-1.693331	-2.346909
O	-1.330347	-2.024682	-2.152574
N	-1.97305	0.340049	-1.574664
O	-2.644957	0.224641	-0.556327
O	-2.393588	0.628445	-2.686493
C	-0.475498	-1.18319	0.701254
N	-0.813591	-2.128916	1.315073
N	-0.329429	1.264047	0.644848
H	0.488842	1.538813	1.174368
H	-1.132199	1.182567	1.25246
F	2.48418	0.0	0.0
