16

C	-0.383541	0.074758	-1.462319
C	0.0	0.0	0.0
Br	-2.250844	0.55797	-1.789059
H	1.094577	0.0	0.0
N	0.42383	1.112031	-2.245497
O	0.455338	0.95553	-3.460846
O	0.922791	2.030762	-1.614408
N	-0.069869	-1.264417	-2.135273
O	-0.990742	-2.030773	-2.376615
O	1.124836	-1.458205	-2.307439
C	-0.538406	-1.228889	0.562955
N	-0.955665	-2.217866	1.044203
N	-0.35771	1.137074	0.821849
H	-1.246346	1.542074	0.555921
H	0.376854	1.820313	0.710047
F	2.466131	0.0	0.0
