16

C	-0.342387	0.07025	-1.477573
C	0.0	0.0	0.0
Br	0.446378	1.615928	-2.292297
H	1.095998	0.0	0.0
N	0.123355	-1.204813	-2.184101
O	1.192924	-1.201892	-2.767591
O	-0.640816	-2.155042	-2.033932
N	-1.84262	0.142711	-1.810978
O	-2.600927	0.382215	-0.877178
O	-2.162961	-0.009237	-2.982665
C	-0.54318	-1.198751	0.619202
N	-0.951615	-2.173246	1.136059
N	-0.318319	1.176834	0.783682
H	-1.174718	1.631065	0.50193
H	0.472384	1.805083	0.724034
F	2.484125	0.0	0.0
