16

C	-0.548072	-0.002863	-1.432474
C	0.0	0.0	0.0
F	0.096781	0.985557	-2.134691
H	1.088681	0.0	0.0
C	-0.203257	-1.283029	-2.107045
N	-0.040582	-2.282305	-2.703089
N	-1.945471	0.312978	-1.462895
H	-2.263714	0.325363	-2.424865
H	-2.458258	-0.392035	-0.947486
N	-0.471603	-1.170473	0.791134
O	0.111197	-1.370401	1.848072
O	-1.414501	-1.83791	0.351727
N	-0.505602	1.227044	0.696514
O	-0.005097	2.281054	0.334335
O	-1.390504	1.086095	1.536873
Cl	3.144471	0.0	0.0
