16

C	-0.49142	-0.000575	-1.450311
C	0.0	0.0	0.0
F	-0.141564	-1.259108	-1.94527
H	1.089486	0.0	0.0
C	-1.963751	0.106969	-1.56662
N	-3.115619	0.279169	-1.716723
N	0.123456	1.022899	-2.180478
H	-0.483399	1.663105	-2.664163
H	0.941983	1.435029	-1.752155
N	-0.487449	-1.170115	0.784482
O	0.133542	-1.401067	1.816668
O	-1.467163	-1.787728	0.372835
N	-0.485914	1.221545	0.71168
O	-1.440887	1.101096	1.477861
O	0.100212	2.266654	0.449851
Cl	3.16505	0.0	0.0
