16

C	-0.357445	0.010316	-1.48635
C	0.0	0.0	0.0
F	0.080876	-1.217769	-1.996913
H	1.089372	0.0	0.0
C	-1.801018	0.094214	-1.793206
N	-2.925733	0.188101	-2.115747
N	0.321374	1.114668	-2.038589
H	0.218848	1.144499	-3.045871
H	1.307401	1.082712	-1.774096
N	-0.544268	-1.154213	0.757183
O	-0.152873	-1.239957	1.915289
O	-1.338137	-1.907446	0.200908
N	-0.525173	1.231092	0.661283
O	-1.705998	1.192353	1.012921
O	0.238466	2.179364	0.780695
Cl	3.175369	0.0	0.0
