16

C	-0.538776	0.005099	-1.436793
C	0.0	0.0	0.0
F	0.135648	0.975726	-2.135354
H	1.088805	0.0	0.0
C	-0.214483	-1.286335	-2.100876
N	-0.046252	-2.296378	-2.677184
N	-1.927343	0.352887	-1.479675
H	-2.458709	-0.322007	-0.943256
H	-2.246993	0.345745	-2.441069
N	-0.483778	-1.172895	0.78006
O	-1.45588	-1.804688	0.350614
O	0.116612	-1.407333	1.819908
N	-0.500225	1.230155	0.696257
O	-1.412453	1.098385	1.507819
O	0.033345	2.275936	0.360154
Cl	3.16133	0.0	0.0
