13
Coordinates from ORCA-job run
  C   0.70134520120835     -0.80996494094525     -0.01824363596611
  C   -0.68715771796390     -0.39975266273895     -0.45544383779442
  Cl  1.41044157724234     -2.01210986707835     -1.09997851294070
  H   -1.31276841166163     -1.29605772962815     -0.43281478930900
  H   0.73397290108792     -1.20292544900419      0.99596611014730
  H   -0.62863299607905     -0.06313981715264     -1.49309266695610
  N   1.57880385059424      0.41649654152177      0.00788570913029
  O   1.76208545509570      0.99749595661298     -1.05393980495052
  O   1.98361275427284      0.76650023805178      1.11411820305608
  C   -1.26836089450230      0.69041148812685      0.44056085414422
  H   -2.30319261298095      0.89216714878941      0.15886620569821
  H   -1.25727909812252      0.39462965982104      1.49235485139628
  H   -0.71287000819105      1.62524943362368      0.34476131434447
