13
Coordinates from ORCA-job run
  C   0.70279936159746     -0.01994868196505     -0.50734735520684
  C   -0.39456344059541      0.00491714994521      0.53474933057740
  Cl  0.94334175019315      1.55417126654333     -1.27387741988121
  H   -0.15019835839197      0.77918615084036      1.26531338715754
  H   0.53201139899116     -0.75558540650443     -1.29098041655731
  H   -0.36396278836609     -0.96051336962410      1.05266957256977
  N   1.99120277193167     -0.44397188107999      0.15357395686299
  O   2.43006525032675      0.27607346974206      1.04109253398985
  O   2.46468843890573     -1.51310570752527     -0.22421100301341
  C   -1.77301712784622      0.22853700801904     -0.07510852120127
  H   -1.83927435197129      1.20233575987960     -0.56134199335902
  H   -2.00661057935055     -0.54077524897322     -0.81523214576885
  H   -2.53848232542440      0.18767949070245      0.70170007383037
