13
Coordinates from ORCA-job run
  C   0.73332236775973     -0.80842137563332     -0.20601612934795
  C   -0.58142202375646     -0.51621980599073      0.49903806683571
  Cl  0.51886130607130     -1.28720221615523     -1.88489190045643
  H   -0.35232142569598     -0.39394460737303      1.56145375314047
  H   1.29983624127363     -1.58837646530177      0.29972658097964
  H   -1.20450953672103     -1.40862733391844      0.39710136568306
  N   1.60051603001022      0.43036839810950     -0.09908713530134
  O   1.71207355856358      1.18207309053216     -1.05570062084716
  O   2.07178148954767      0.59720980962613      1.02300855860358
  C   -1.30604816212923      0.71283058757822     -0.03641919816689
  H   -2.27352195539701      0.81545267221422      0.45810775076696
  H   -1.48042977498043      0.63892241634022     -1.11051034414290
  H   -0.73913811454597      1.62593482997208      0.15418925225326
