13
Coordinates from ORCA-job run
  C   0.62774558452145     -0.57487569342868     -0.16458812692716
  C   -0.32095011489071      0.56897437185419      0.12237449398154
  Cl  0.48380713221045     -1.17309164398124     -1.82144594449489
  H   -0.13374482559442      1.35590140606443     -0.61156067980164
  H   0.49888289307247     -1.41772272577495      0.51174452143355
  H   -0.05317515012595      0.96539750264512      1.10846844498609
  N   2.04224769331381     -0.10242312713392      0.06337751005737
  O   2.44813059508088      0.81361162626233     -0.64019823796192
  O   2.65238624840318     -0.64859615410747      0.97956437614280
  C   -1.78084862269757      0.13243607612697      0.11225455577145
  H   -1.95928765142917     -0.66500644477609      0.83781261586536
  H   -2.08126346471636     -0.22735324605572     -0.87232458760290
  H   -2.42593031714806      0.97274805230503      0.37452105855037
