13

C	-0.557054	-0.11037	-1.418271
C	0.0	0.0	0.0
F	-0.255549	1.017114	-2.155351
H	1.094037	0.0	0.0
H	-1.645875	-0.192957	-1.365198
C	-0.031825	-1.301988	-2.101953
N	0.369283	-2.247579	-2.669679
N	-0.438312	-1.188727	0.732617
H	0.35237	-1.54724	1.253874
H	-1.186493	-0.976214	1.378846
C	-0.483562	1.247209	0.600784
N	-0.925323	2.195999	1.134907
Br	3.411376	0.0	0.0
