13

C	-0.368134	-0.053371	-1.482226
C	0.0	0.0	0.0
F	-1.718639	-0.380792	-1.634698
H	1.096022	0.0	0.0
H	0.217396	-0.853996	-1.941912
C	-0.128475	1.206782	-2.195571
N	0.018845	2.21845	-2.772421
N	-0.40783	-1.201359	0.713007
H	0.344163	-1.878283	0.663689
H	-1.257023	-1.588643	0.321909
C	-0.565506	1.191372	0.638591
N	-1.054195	2.134389	1.138933
Br	3.39399	0.0	0.0
