13

C	-0.482071	-0.026158	-1.455882
C	0.0	0.0	0.0
F	-0.067007	1.094883	-2.141741
H	1.095234	0.0	0.0
H	-1.580251	-0.033484	-1.482462
C	-0.005774	-1.2408	-2.143488
N	0.319698	-2.21374	-2.713676
N	-0.415509	-1.179693	0.741451
H	0.280183	-1.904668	0.620192
H	-1.321995	-1.523282	0.450736
C	-0.516611	1.21755	0.631983
N	-0.979125	2.180511	1.118935
Br	3.412122	0.0	0.0
