13

C	-0.547434	0.037469	-1.426075
C	0.0	0.0	0.0
F	-0.226689	1.226041	-2.050694
H	1.09965	0.0	0.0
H	-1.640653	-0.037063	-1.391564
C	-0.044156	-1.092853	-2.22102
N	0.283884	-1.989141	-2.903284
N	-0.442443	-1.258652	0.601953
H	-1.16225	-1.110555	1.296677
H	0.356451	-1.694984	1.046259
C	-0.484392	1.177566	0.724498
N	-0.941961	2.074837	1.329352
Br	3.412536	0.0	0.0
