13

C	-0.448621	-0.077015	-1.448411
C	0.0	0.0	0.0
F	-1.826348	-0.282827	-1.508034
H	1.095176	0.0	0.0
H	0.040133	-0.94451	-1.89563
C	-0.145583	1.137528	-2.21809
N	0.052104	2.116956	-2.83407
N	-0.408269	-1.234998	0.660251
H	0.228954	-1.411526	1.428116
H	-1.352388	-1.160667	1.018921
C	-0.513056	1.213785	0.653231
N	-0.944105	2.139826	1.2344
Br	3.403767	0.0	0.0
