17
Coordinates from ORCA-job run
  C   0.72866040650804     -0.10930182951865      0.06330697412941
  C   -0.64937472279196     -0.14190301471890     -0.62432732886461
  Cl  1.87785411126864     -0.55546498955058     -1.37012098512800
  H   -0.83788070230227     -1.15053828909932     -1.00476882433606
  C   0.97522827225859     -1.17968956208757      1.10442046899878
  H   0.36817443121619     -0.98478136583254      1.98745547559124
  H   0.73885377774630     -2.16955200935818      0.71502778130126
  H   2.03023320697889     -1.16523502347878      1.38584900382684
  N   0.93796564029087      1.17838941337923      0.56394604548909
  H   1.85300340894444      1.30501999641883      0.97309668698863
  H   0.73415306227747      1.88158015331697     -0.13647476329127
  N   -0.74573999178917      0.92669566732745     -1.58666893789215
  H   -1.70211146959112      1.24129976175574     -1.67838777500495
  H   -0.39638527802890      0.61218364698132     -2.48140842494393
  N   -1.71068860845882      0.06355512000896      0.43371050243278
  O   -1.92197436558946     -0.90060985359939      1.16421009531284
  O   -2.28097117893773      1.14735217805541      0.49313400539009
