17
Coordinates from ORCA-job run
  C   0.64065029084391     -0.27796327934344      0.11607204602723
  C   -0.77603557486020      0.23393434107056     -0.29196179939767
  Cl  0.46923220932457     -2.02173639738565      0.55235668808161
  H   -0.64522490798677      1.26603031759204     -0.62792364928208
  C   1.10007622852584      0.47503444032202      1.35302091318471
  H   0.43942433172546      0.29581654393665      2.19939676016912
  H   2.10320205483204      0.13568332148013      1.61111178127186
  H   1.13149677490055      1.55044868194982      1.14620349983759
  N   1.65830777346075     -0.17554446316169     -0.89031294544564
  H   1.33869024778651     -0.52549724858925     -1.78519363359774
  H   1.93357130949482      0.79281491865299     -1.00628721925921
  N   -1.82778679642789      0.17091808645070      0.66587939505705
  H   -1.74477723850058      0.90671502305431      1.35151894883947
  H   -1.87328239879021     -0.73374018405468      1.11539007418895
  N   -1.22168936163714     -0.50992273390684     -1.52913812041762
  O   -0.71364983836556     -0.15165644201711     -2.59411917054255
  O   -2.01420510432612     -1.43133492605055     -1.38701356871506
