15

C	-0.305165	-0.039976	-1.496307
C	0.0	0.0	0.0
Cl	-2.093722	-0.28109	-1.766993
H	1.096034	0.0	0.0
H	-0.349726	-0.923419	0.465683
C	0.086075	1.263273	-2.175177
H	-0.487188	2.109731	-1.793314
H	1.149865	1.429732	-1.984405
H	-0.080085	1.185235	-3.252005
N	0.375873	-1.209051	-2.001914
H	0.365957	-1.196334	-3.015386
H	1.348278	-1.163695	-1.693001
C	-0.54519	1.159016	0.685604
N	-1.004605	2.091034	1.232678
Br	3.491284	0.0	0.0
