15

C	-0.302824	-0.03628	-1.494543
C	0.0	0.0	0.0
Cl	-2.103822	-0.094835	-1.785941
H	1.09653	0.0	0.0
H	-0.356928	0.930364	0.446077
C	0.217215	1.24145	-2.140293
H	-0.278447	2.127272	-1.736222
H	1.291385	1.304152	-1.941369
H	0.046925	1.210682	-3.219489
N	0.269909	-1.248891	-2.022226
H	1.236626	-1.300726	-1.701613
H	0.27103	-1.21833	-3.035542
C	-0.5239	-1.140278	0.737189
N	-0.935974	-2.043166	1.363765
Br	3.49502	0.0	0.0
