15

C	-0.523626	-0.054061	-1.444397
C	0.0	0.0	0.0
Cl	-0.079894	1.491002	-2.251858
H	1.092812	0.0	0.0
H	-0.302423	-0.937408	0.485584
C	0.16907	-1.190852	-2.172253
H	-0.114127	-2.143976	-1.710967
H	1.251406	-1.076099	-2.091954
H	-0.139625	-1.197818	-3.217922
N	-1.966064	-0.180489	-1.568299
H	-2.244271	-1.049809	-1.122859
H	-2.410788	0.580998	-1.063638
C	-0.578416	1.099996	0.757841
N	-1.116683	1.972607	1.330274
Br	3.530701	0.0	0.0
