15

C	-0.412716	-0.247171	-1.472966
C	0.0	0.0	0.0
Cl	-0.172294	-2.01512	-1.751774
H	1.092067	0.0	0.0
H	-0.377423	-0.772464	0.674829
C	-1.867705	0.074626	-1.759017
H	-2.5288	-0.477524	-1.083824
H	-2.044886	1.143464	-1.621812
H	-2.102188	-0.192876	-2.789566
N	0.44136	0.44224	-2.416404
H	1.406237	0.28367	-2.146739
H	0.273405	1.448566	-2.299421
C	-0.464293	1.30983	0.446118
N	-0.900372	2.354982	0.754372
Br	3.514596	0.0	0.0
