13

C	0.0	0.0	0.0
C	-0.410432	0.169092	-1.446988
F	1.409828	0.0	0.0
H	-0.127275	1.193634	-1.750924
H	-0.314403	-0.982693	0.355624
H	-1.498918	0.090475	-1.473377
N	-0.489103	0.996606	0.89771
H	-1.479143	0.789103	1.035951
H	-0.450072	1.901114	0.439487
N	0.189981	-0.876833	-2.275932
H	1.186198	-0.710557	-2.338015
H	-0.195675	-0.829881	-3.210269
Cl	-3.681956	0.0	0.0
