13

C	0.0	0.0	0.0
C	-0.411259	-0.524311	-1.388375
F	1.395568	0.0	0.0
H	-0.462562	-1.623634	-1.334975
H	-0.285771	-0.697599	0.793171
H	0.416853	-0.273574	-2.059387
N	-0.48751	1.30849	0.260359
H	-1.06811	1.606046	-0.51568
H	-1.049002	1.32693	1.098905
N	-1.612356	0.132179	-1.877256
H	-2.422364	-0.048521	-1.27777
H	-1.837356	-0.205831	-2.803696
Cl	-4.286824	0.0	0.0
