13

C	0.0	0.0	0.0
C	-0.489744	0.132907	-1.427804
F	1.38045	0.0	0.0
H	-1.558763	-0.092228	-1.409434
H	-0.292734	-0.986121	0.38605
H	0.024858	-0.6358	-2.015727
N	-0.478862	1.096296	0.79885
H	-0.265714	0.91331	1.772885
H	-1.497584	1.080898	0.706473
N	-0.197631	1.467199	-1.979141
H	-1.032517	1.791679	-2.452272
H	-0.073485	2.087205	-1.184468
Cl	-3.707838	0.0	0.0
