13

C	0.0	0.0	0.0
C	-0.464334	-0.294779	-1.419796
F	1.386427	0.0	0.0
H	-1.453393	0.149964	-1.543159
H	-0.332204	-0.79347	0.673536
H	0.247088	0.196021	-2.095113
N	-0.447386	1.25859	0.53465
H	-0.318927	1.971139	-0.177546
H	-1.454374	1.16127	0.665524
N	-0.463197	-1.742675	-1.677847
H	-1.304089	-2.100777	-1.232109
H	-0.600014	-1.891035	-2.671678
Cl	-3.625003	0.0	0.0
