13

C	0.0	0.0	0.0
C	-0.532074	0.179284	-1.399907
F	1.427362	0.0	0.0
H	-1.62066	0.109442	-1.308546
H	-0.279148	-0.977999	0.398661
H	-0.171736	-0.645212	-2.029935
N	-0.4753	1.027943	0.834752
H	-0.044014	1.007368	1.746119
H	-0.34904	1.919583	0.376394
N	-0.163517	1.505509	-1.904775
H	0.751132	1.469584	-2.333908
H	-0.833663	1.801954	-2.599841
Cl	-4.314772	0.0	0.0
