13

C	0.0	0.0	0.0
C	-0.589233	-0.321073	-1.370644
F	1.416603	0.0	0.0
H	0.209796	-0.739735	-1.990011
H	-0.251102	-0.792877	0.708855
H	-1.363986	-1.078995	-1.213067
N	-0.483134	1.228827	0.483777
H	-0.383065	1.946879	-0.218655
H	-0.05627	1.482505	1.361481
N	-1.138703	0.881541	-2.004477
H	-1.30654	0.675967	-2.98185
H	-2.057406	1.009651	-1.575065
Cl	-3.95916	0.0	0.0
