13

C	0.0	0.0	0.0
C	-0.421143	-0.343271	-1.42584
F	1.411873	0.0	0.0
H	0.015516	-1.31613	-1.674511
H	-0.317034	-0.758364	0.718732
H	0.079462	0.390629	-2.073649
N	-0.514108	1.253948	0.394866
H	-0.294973	1.482569	1.35277
H	-0.197272	1.987237	-0.22461
N	-1.836733	-0.350861	-1.724535
H	-2.334852	-1.032772	-1.164188
H	-2.265311	0.521169	-1.437192
Cl	-4.766606	0.0	0.0
