13

C	0.0	0.0	0.0
C	-0.425636	-0.161069	-1.452885
F	1.390942	0.0	0.0
H	-1.514324	-0.199799	-1.497656
H	-0.293172	-0.880691	0.587191
H	-0.032476	-1.11903	-1.809667
N	-0.476576	1.244811	0.530992
H	-0.274713	1.276853	1.524374
H	-1.495434	1.201425	0.441907
N	0.075288	0.902631	-2.326325
H	-0.355843	1.766325	-2.016781
H	1.064508	1.009943	-2.12573
Cl	-3.651203	0.0	0.0
