15

C	-0.471403	0.049488	-1.430095
C	0.0	0.0	0.0
F	-0.11525	-1.113603	-2.107827
H	1.093412	0.0	0.0
H	-0.325445	0.933272	0.482765
N	-1.911757	0.146765	-1.550526
H	-2.245317	0.859553	-0.914955
H	-2.172685	0.405916	-2.495369
C	0.197031	1.15943	-2.169717
N	0.583886	2.082454	-2.784536
C	-0.525552	-1.222062	0.740405
H	-0.189392	-2.125473	0.228525
H	-1.616393	-1.260895	0.827811
H	-0.088109	-1.237098	1.742175
F	2.661767	0.0	0.0
