15

C	-0.126382	0.098462	-1.512819
C	0.0	0.0	0.0
F	-1.357943	0.66992	-1.923807
H	1.095349	0.0	0.0
H	-0.340874	0.965723	0.385228
N	0.960168	0.901921	-1.973476
H	1.159539	0.735055	-2.95096
H	1.793018	0.677086	-1.382843
C	-0.146495	-1.251024	-2.149601
N	-0.112995	-2.314284	-2.649355
C	-0.68558	-1.17154	0.669599
H	-0.561055	-1.105006	1.753836
H	-1.759723	-1.204076	0.454837
H	-0.244769	-2.118126	0.348773
F	2.738962	0.0	0.0
