15

C	-0.536658	-0.031267	-1.403573
C	0.0	0.0	0.0
F	-1.966846	-0.265515	-1.361771
H	1.092722	0.0	0.0
H	-0.351952	-0.920152	0.479157
N	-0.275781	1.146135	-2.147085
H	-0.812156	1.149547	-3.004765
H	-0.494012	1.963395	-1.59541
C	-0.033291	-1.19623	-2.166304
N	0.293912	-2.129641	-2.797683
C	-0.478618	1.221681	0.779255
H	-0.251244	1.075201	1.837705
H	-1.553431	1.415976	0.683769
H	0.08356	2.109798	0.474402
F	2.655633	0.0	0.0
