12
Coordinates from ORCA-job run
  C   0.12499039713863      0.05318589156101     -0.26139807161508
  C   -0.88009669221371     -1.01235500327998      0.06534647221154
  F   0.13089207707776      0.24920625436945     -1.64258299089647
  H   -1.84877147793772     -0.75119004729898     -0.35431435102767
  H   -0.54307634131644     -1.95032297928954     -0.38060586897461
  H   -0.97006618411317     -1.13016620351684      1.14317835989611
  N   1.39850620204278     -0.18283719657116      0.27106325179278
  H   1.74364647638142     -1.09655889945245      0.01382482918752
  H   2.04826815241105      0.54213611906779     -0.00486065536538
  N   -0.30354700095014      1.42325478291576      0.26637563961880
  O   0.51849234085550      2.32167272615285      0.12049339877735
  O   -1.41923794937597      1.53397455534210      0.76147998639510
