16
Coordinates from ORCA-job run
  C   0.69844962136313      0.12509131978415     -0.36886507680783
  C   -0.45399787734683      0.20628119878946      0.63991005294231
  Cl  1.23325068418488      2.08015320756868     -0.37317974136480
  H   -0.07521416443620      0.60000697049687      1.58639843634589
  N   1.77960041644710     -0.61970592824740      0.08963748995743
  H   2.17107475072326     -0.25275310726970      0.94546809005017
  H   2.50295739991591     -0.73509220247394     -0.60706830898097
  N   0.23839385445368     -0.24670933085825     -1.61421592051318
  H   0.91374261127427     -0.14560321031845     -2.35810620792873
  H   -0.64211594624827      0.20885521641333     -1.82110003230737
  N   -0.87866455412977     -1.20734362856248      0.97001266990613
  O   -0.26050811754419     -1.74325630851993      1.88440086584294
  O   -1.78834879952209     -1.70626631372764      0.31630676925246
  N   -1.56751829412482      0.90736270233815      0.05696924019417
  H   -2.43841392700056      0.62662462538977      0.48697404139132
  H   -1.43068765800950      1.90335478919738      0.16945763202006
