16
Coordinates from ORCA-job run
  C   0.52519074830601     -0.09066481613078     -0.56380726584786
  C   -0.44513146187438      0.27655434943406      0.57278702087102
  Cl  -0.35922649651236     -1.17530142907468     -1.75648580416152
  H   0.09410906988274      0.95540861033385      1.23550172230170
  N   0.92189820141320      1.14230988452726     -1.15426051636896
  H   1.50681382263016      0.98191421579029     -1.96529663693824
  H   0.10602332997517      1.68356778826077     -1.41769862571661
  N   1.60416013904303     -0.88989945382641     -0.06178052755808
  H   2.12862064798060     -1.30206548656100     -0.82281356854664
  H   2.21927536304086     -0.30052823011148      0.48854713265010
  N   -0.70891305889995     -0.94564646251840      1.43910409461891
  O   -1.65411543517863     -1.66256507968134      1.12262158850876
  O   0.03184730223718     -1.10329991728833      2.40418785378978
  N   -1.61946466069066      0.89512923541105      0.06818456996910
  H   -2.15258207201754      1.32637428317238      0.81168229077943
  H   -2.19850543933543      0.20771250826276     -0.39947332835090
