16
Coordinates from ORCA-job run
  C   0.42184817246329     -0.07050878811005     -0.58930986641847
  C   -0.60137724651604      0.10565919293887      0.54904795816843
  Cl  -0.25138115823387     -1.10802618900480     -1.88964518517883
  H   -0.16051251691348      0.81044256481787      1.26421280400826
  N   0.57631382257356      1.24582804230306     -1.19235594227708
  H   1.08328879265204      1.16764066579888     -2.06660694440135
  H   1.11531766662148      1.83258508086185     -0.56306528146642
  N   1.57648229166895     -0.74962155667809     -0.07830661384666
  H   2.30277981162642     -0.81777782455113     -0.77908188070962
  H   1.93136149573565     -0.31290225036140      0.76383842221475
  N   -0.63604421517009     -1.18665215586202      1.36167192091324
  O   -1.33328105601512     -2.10370520644561      0.95939521882493
  O   0.06712317477313     -1.18992039730924      2.37324410230362
  N   -1.89731346975100      0.46340497507776      0.11283949084620
  H   -1.91624696582266      0.68518177937057     -0.87132598105205
  H   -2.27735859969227      1.22937206715350      0.64644777807105
