16
Coordinates from ORCA-job run
  C   0.67318152766625      0.21964737142123     -0.40459859398986
  C   -0.41622521663903      0.35585266774255      0.67818971102408
  Cl  1.51505061747843      1.93361827091170     -0.36534921556883
  H   -0.01904366402934      0.86807114885628      1.55251064566549
  N   1.59806391974146     -0.79830487660644     -0.10711948365302
  H   2.40835788468400     -0.74751390391872     -0.71066872767410
  H   1.89518796260762     -0.78495172136235      0.85908277915009
  N   0.07780572916993      0.00496560087531     -1.66938910782422
  H   0.72121867028132     -0.41929343422930     -2.32310723994537
  H   -0.29564406962179      0.86447575755976     -2.04757158597902
  N   -0.72364795933305     -1.05834690598266      1.19386263617038
  O   -0.02686843055213     -1.45810962544810      2.12503349273672
  O   -1.63203201412196     -1.67735437770765      0.65302078585385
  N   -1.55368014651406      1.01086160746854      0.15449493334545
  H   -2.18300851644464      1.30318967926477      0.88914627861056
  H   -2.03771629437302      0.38419274115508     -0.47753730792219
