16
Coordinates from ORCA-job run
  C   0.73931147537311      0.28042215611010     -0.38146003891489
  C   -0.44242663367136      0.22598424512735      0.62326190396975
  Cl  1.13648246813959      2.12475098540548     -0.39699196998557
  H   -0.08395927883436      0.53894435486798      1.61066349785249
  N   1.97442306700563     -0.33591980146459     -0.02905827482604
  H   2.35880228484231      0.06299470795340      0.81704523424193
  H   1.82615125068975     -1.32910529332386      0.10168281099078
  N   0.29321837165058     -0.23514629390533     -1.59598610867932
  H   -0.59805716369187      0.15765539383424     -1.86976039293040
  H   0.99714707633448     -0.16559399344921     -2.31727088491093
  N   -0.81936626344289     -1.22719421346589      0.80426551089733
  O   -1.90636969273046     -1.61240968367582      0.38969794583138
  O   0.01808893303463     -1.92613982741971      1.37041263532342
  N   -1.58128665540370      0.92689842554420      0.09486562014784
  H   -1.47420053327208      1.91865715671621      0.25821280561162
  H   -2.43695870602334      0.59620168114544      0.52041970538061
