16
Coordinates from ORCA-job run
  C   0.70266691699136      0.21115922034062     -0.36907591993306
  C   -0.54902623702260      0.43228119866787      0.51865327801896
  Cl  2.06728386773728      1.28801212638073      0.37110010117940
  H   -0.49063527310284      1.39183391310685      1.03354646530636
  N   1.08698982848287     -1.15749237926715     -0.37125274881863
  H   1.60420798639492     -1.38051836382254     -1.21080298986209
  H   1.62613160993182     -1.40266585958367      0.44893972238666
  N   0.42649721270509      0.62607963698236     -1.69740052890674
  H   -0.22369507209247      1.39840495709275     -1.72526857458664
  H   1.28080921387278      0.86622918384636     -2.18321648488742
  N   -0.49995414281061     -0.59905790885160      1.66405036043444
  O   0.49510299313278     -0.58235271974619      2.38082396098982
  O   -1.46701666749653     -1.34046247913263      1.79461468110263
  N   -1.73303846474670      0.34850483171881     -0.25108759461976
  H   -1.77601305625167     -0.53828694689800     -0.73849722041629
  H   -2.55131071572544      0.44033158916543      0.33587349261237
