16
Coordinates from ORCA-job run
  C   0.72703782710554      0.28462292622487     -0.37238923644673
  C   -0.44529685762429      0.22702717269120      0.63468180456516
  Cl  1.20794993557150      2.09302678108467     -0.32775048434010
  H   -0.10133992427487      0.55332279499676      1.62197440431685
  N   1.75271376005619     -0.57607612843029      0.05086202935048
  H   2.07090385882340     -0.39119107779637      0.99251190837877
  H   2.52535305888514     -0.55056391914279     -0.60185897112208
  N   0.41817223559846     -0.00755668920129     -1.73065009341432
  H   -0.37468133591110      0.54757440777018     -2.02842762210576
  H   0.14937132436297     -0.98475691272309     -1.78255108283934
  N   -0.77992281282276     -1.23005499509734      0.83851089074345
  O   -0.44278060201008     -1.71554739687221      1.91641354519091
  O   -1.32650642853315     -1.82834997603776     -0.08220784531727
  N   -1.60153014067564      0.89699702117341      0.10936130981373
  H   -1.39282317426200      1.88424265156694      0.02096705858811
  H   -2.38662072428932      0.79628333979310      0.74155238463814
