16
Coordinates from ORCA-job run
  C   0.66782427940484      0.03040216431286     -0.31573896786344
  C   -0.39565198123844      0.01543445174219      0.80177293675567
  Cl  1.92185191242112     -1.30173470537474      0.17621525723246
  H   0.08756515895195      0.28376811788219      1.74057333867472
  N   0.11024384847370     -0.21579177728390     -1.58613978744170
  H   -0.41881247839357     -1.07874329860652     -1.58663757451390
  H   0.82497534436829     -0.25463287867199     -2.30197848535569
  N   1.28670165841316      1.31311510997070     -0.28328996037070
  H   1.71836149331992      1.53921006473508     -1.16998381984913
  H   1.98571469042370      1.36158081486623      0.44619515202597
  N   -0.92536309550030     -1.37359013330917      1.02639415883469
  O   -1.47993881895090     -1.90789601900386      0.06527878605561
  O   -0.81019865724054     -1.85604068740304      2.14516323790163
  N   -1.52515494186564      0.86084667191597      0.55604358832027
  H   -1.24108447886646      1.82164200664387      0.69636237486052
  H   -1.80903393372085      0.76243009758409     -0.41223023526700
