16
Coordinates from ORCA-job run
  C   0.71589822555433      0.37274916370402     -0.25229166774436
  C   -0.60450103820194      0.31605859860831      0.54519402983810
  Cl  2.04265285020093      0.96202334133080      0.79973107147687
  H   -0.88532246175176      1.32428041532877      0.84627844813445
  N   1.04649374260030     -0.97016697036129     -0.70403650717532
  H   2.00845812710079     -1.21403479856495     -0.51986242334824
  H   0.86242625778609     -1.05376122989143     -1.69450329348354
  N   0.49248171141249      1.35755102131358     -1.27456937599624
  H   -0.34111107750258      1.09852747706498     -1.79084106646279
  H   1.29256119081600      1.41422271309813     -1.89296045965597
  N   -0.42438805598043     -0.44376355197560      1.85299730785198
  O   -0.58319493294024     -1.66154612742378      1.82372050177685
  O   -0.15179081607369      0.22414985293374      2.84714020502698
  N   -1.57925871879344     -0.28770199656229     -0.30054403356895
  H   -1.37892804770174     -1.28075056795515     -0.35433817571418
  H   -2.51247695652507     -0.15683734064784      0.06788543904435
