16
Coordinates from ORCA-job run
  C   0.73170689423101      0.32871120718974     -0.40559048193647
  C   -0.42021413198429      0.37693015637303      0.64060244002897
  Cl  1.48266137681527      2.01603729899276     -0.28742132951971
  H   -0.09417772954520      0.92228243161583      1.52365491580185
  N   1.79672493284891     -0.59235494726425     -0.16394641191529
  H   2.20106923622270     -0.47341460130019      0.75467391433250
  H   1.46104999429798     -1.54163768996971     -0.27470042215587
  N   0.19371247927210      0.04774672073056     -1.67948112812110
  H   0.94949374481732     -0.03957936094614     -2.34779172188983
  H   -0.44156798960019      0.77941679594654     -1.97031699560798
  N   -0.61341080873152     -1.05216609001665      1.14816068283394
  O   -1.41039607251159     -1.76697171226197      0.54625754827031
  O   0.07389100668841     -1.39106265005308      2.11005846348864
  N   -1.60467794451149      0.92587560279436      0.08730090689077
  H   -2.24456813218529      1.23057643277017      0.80802668959320
  H   -2.06129685612422      0.22861040539904     -0.48948707009386
