16
Coordinates from ORCA-job run
  C   0.80739356547629      0.32777338854228     -0.24584414650828
  C   -0.57744926593170      0.26243322588443      0.44124916272366
  Cl  1.98406078883968      1.10500164797860      0.84522656094411
  H   -0.92148430216157      1.27932892618846      0.63051522013493
  N   1.24950783340190     -1.01543416570540     -0.50813878892425
  H   2.19843859264005     -0.96668643293828     -0.86289125917321
  H   0.67509231795643     -1.39719573932302     -1.25317474975101
  N   0.74943021647949      1.14138979465093     -1.44388145244864
  H   -0.05408830284538      0.83455583467203     -1.98442458766944
  H   0.62657093215076      2.12057119016596     -1.21039516063396
  N   -0.50180499671682     -0.37712243166640      1.82123160448773
  O   -0.63605352781844     -1.59615995930698      1.88112726595610
  O   -0.32972657753025      0.37940836680440      2.77264883945381
  N   -1.47411565149747     -0.44835115769891     -0.41986221518238
  H   -1.35974473379337     -1.44264723326575     -0.25058660910702
  H   -2.43502688864960     -0.20786525498237     -0.21279968430213
