16
Coordinates from ORCA-job run
  C   0.55201172051904     -0.06688213554462     -0.54112355712293
  C   -0.47809504979699      0.25587663240769      0.55578717451481
  Cl  -0.24468417366215     -1.16988245519848     -1.77917013929511
  H   0.00892062608471      0.94522090243200      1.24748861572603
  N   0.93089756343381      1.18390025544038     -1.10367119093808
  H   0.10956340470497      1.70101738322446     -1.39664610987582
  H   1.55590968979890      1.05212392313600     -1.88947891694329
  N   1.63524433658060     -0.83458318753933     -0.00091374242428
  H   2.20056049545603     -1.22800215232630     -0.74219992830443
  H   2.21001651668274     -0.22986212800456      0.57559810858946
  N   -0.73811527196616     -0.98313496312459      1.39872034822517
  O   -0.03367854774857     -1.12712943907603      2.39270421170926
  O   -1.64546868408551     -1.72666452387320      1.03627474081481
  N   -1.64966360196443      0.84095783049907      0.00628865899641
  H   -2.18621589881566      0.13901207631236     -0.48968823877930
  H   -2.22720312522131      1.24803198123510      0.73002996510727
