16
Coordinates from ORCA-job run
  C   0.42992331690524     -0.06833797681409     -0.65003002888662
  C   -0.55291026719143      0.30177552858860      0.48424258194617
  Cl  -0.39234283166908     -1.10478569822065     -1.86513412953935
  H   -0.08620242608260      1.09414395866816      1.07619310297520
  N   0.75879871577748      1.16428618814432     -1.33745336903108
  H   1.21223973839745      0.96016433245085     -2.22018933319838
  H   1.39943049572242      1.70120477897488     -0.76213618622626
  N   1.49715889105667     -0.86480207282764     -0.10242193975224
  H   2.19038789805973     -1.06148300018562     -0.81323275151262
  H   1.93268601318120     -0.40449103836840      0.68893963188917
  N   -0.60883815667691     -0.87193803868179      1.46855907104425
  O   -1.43902760132696     -1.74620458193129      1.24820814625000
  O   0.17039662758276     -0.83258717394920      2.41853463340438
  N   -1.82000688479024      0.71282228413045      0.02553854025373
  H   -2.38948920951140      1.06257784940260      0.78365617380729
  H   -2.30120431943428     -0.04334533938121     -0.44227414342364
