16
Coordinates from ORCA-job run
  C   0.75453233213484      0.38605943249509     -0.32296800146236
  C   -0.41136107089444      0.20425942461247      0.66841230037092
  Cl  1.13303989563541      2.15988214142991     -0.19920459830389
  H   -0.05926809562137      0.47807520718689      1.66992349957381
  N   1.90887873820577     -0.30858630648190      0.17165687232040
  H   2.70958774660752     -0.03821835230556     -0.38787270594577
  H   1.76252915775800     -1.30567771681473      0.06573356517508
  N   0.45291707838432      0.12384074854847     -1.70102965112476
  H   0.36073700099306     -0.87872016051776     -1.81715709484553
  H   -0.43196712945247      0.55344304984867     -1.94988282366473
  N   -0.81498807395123     -1.25035166792182      0.80500198865966
  O   -0.28127325390750     -2.11039893468622      0.10628412430579
  O   -1.69432954519331     -1.46228225193199      1.63322373622244
  N   -1.60792694195404      0.86987980081046      0.21061293971294
  H   -1.42997834355904      1.86549706870060      0.16341754276582
  H   -2.35012949518553      0.71529851702742      0.88284830624019
