16
Coordinates from ORCA-job run
  C   0.71630978450889      0.30975548292485     -0.31985143507189
  C   -0.44732412046377      0.36716462666234      0.69681827976721
  Cl  1.58522534255172      1.92646209453083     -0.13347801311229
  H   -0.13962859289884      0.93024414154608      1.57391338265492
  N   1.66649054334380     -0.69465288107008      0.07603543508263
  H   1.36936211429450     -1.59034393710024     -0.29583653209120
  H   2.59356517605593     -0.47460266304213     -0.26077802579883
  N   0.21228437493172      0.13235359962533     -1.63282269757396
  H   -0.37914590667283      0.91036867485806     -1.89988777425309
  H   0.97300431431850      0.04165541565155     -2.29448085193699
  N   -0.66536445725056     -1.04371293410908      1.23316223157807
  O   -0.38004659973675     -1.25335265400848      2.40694171348200
  O   -1.14374077844759     -1.86162788547762      0.44730108050663
  N   -1.62395484015924      0.90441113520303      0.10601944148563
  H   -2.03836393222793      0.21341629539213     -0.50922410852970
  H   -2.29767242214759      1.18146148841357      0.80716787381090
