16
Coordinates from ORCA-job run
  C   0.58717011239439     -0.02336234321853     -0.60009311997350
  C   -0.42046407932102      0.24070429579788      0.54887043615047
  Cl  -0.27591104614101     -1.23621069929882     -1.71984684344306
  H   0.10020526493240      0.85791369693843      1.28441338380150
  N   0.84617923220107      1.22366766709838     -1.19677022151838
  H   1.45444432989706      1.11059863088341     -1.99701049007527
  H   -0.00744469521341      1.71115837612917     -1.43134573595336
  N   1.83972720869050     -0.62744828199882     -0.28249897646901
  H   2.36306652856498      0.00472040173959      0.31172633159783
  H   1.72291590193415     -1.51374348884706      0.18872830485974
  N   -0.71037245697273     -1.06249287346199      1.29524462642508
  O   -1.83794680872428     -1.53507418763631      1.20653431529422
  O   0.21963828921623     -1.53855929779440      1.94462642733474
  N   -1.58632943967649      0.89226494397242      0.07606360734854
  H   -2.14933214166078      0.25008368564766     -0.46842464047934
  H   -2.14554620012105      1.24577947404893      0.84078259509982
