16
Coordinates from ORCA-job run
  C   0.73953779618643      0.26148118923775     -0.38790378166435
  C   -0.55612137102183      0.33667526734714      0.44613278590707
  Cl  2.04458159076203      1.03030734891579      0.65602283850278
  H   -0.76618472291251      1.37738938701098      0.69217629695312
  N   1.00891920636772     -1.06830930411628     -0.77359614826140
  H   1.16766759639150     -1.68016374871116      0.01539883540122
  H   1.78792320162543     -1.08055693960226     -1.41866244555990
  N   0.66721525082801      1.05487345018512     -1.58418585135140
  H   -0.17966367480640      0.79084367821279     -2.07709641179057
  H   0.62864487079524      2.04040018678524     -1.35701926868055
  N   -0.36801698672087     -0.31905105773086      1.81207815516511
  O   -0.09689304233316     -1.52041344200747      1.82389547334764
  O   -0.53816270313222      0.38513283358772      2.80255259421894
  N   -1.61654746094128     -0.24335877302494     -0.29980063858612
  H   -1.41314764982681     -1.21091942834089     -0.51564814924068
  H   -2.50975190126130     -0.15333064774866      0.16565571563909
