16
Coordinates from ORCA-job run
  C   0.44663201714362      0.00831495843675     -0.62459163741219
  C   -0.54926631680978      0.17956679606498      0.56327855650410
  Cl  -0.28154705018703     -1.07856156958180     -1.84379810878531
  H   -0.09911185490370      0.92304784684197      1.22819019676288
  N   0.54022641643134      1.32628126444389     -1.20956457777798
  H   1.09555286127076      1.25411306145146     -2.05610767801976
  H   1.04932931510331      1.92845788371520     -0.56794020297977
  N   1.73806953339676     -0.54844401527657     -0.29782702731122
  H   1.67155433396968     -1.53136544534884     -0.06144815839354
  H   2.12610296640682     -0.06406686243789      0.50525818791630
  N   -0.56203342632693     -1.08338483327329      1.36810622814495
  O   -1.40918510838359     -1.92373617177685      1.08414914196364
  O   0.31778747579917     -1.20482267250910      2.22089433171919
  N   -1.89440242738865      0.55080446349973      0.26530443142019
  H   -2.31904549377325     -0.15639424288744     -0.32262305200666
  H   -1.86966324174854      1.42118953863777     -0.25228063174475
