16
Coordinates from ORCA-job run
  C   0.57628635684521      0.31482035668031     -0.36656040973539
  C   -0.46322143752168      0.22877565385673      0.77624670796846
  Cl  1.06250060516782      2.09605516999569     -0.39700676400032
  H   -0.02843825851897      0.60867837190682      1.70041559407828
  N   1.66395942875894     -0.54902218018143     -0.09458524864733
  H   2.08255059510569     -0.38678420358385      0.81364028646208
  H   2.37426825409279     -0.49733786679552     -0.81342092184630
  N   -0.05695153057960      0.07458893898616     -1.63290520038030
  H   -0.20883416666021     -0.92200347453634     -1.74164888850050
  H   0.50213482025851      0.43101942241789     -2.39677171130725
  N   -0.67275154652511     -1.25046360811079      1.03559896785478
  O   -1.29176790033514     -1.87661044589739      0.18192559885934
  O   -0.19660720055240     -1.71109701661442      2.06898477706954
  N   -1.71821595247990      0.83105590383363      0.50345867666137
  H   -1.74785901649469      1.77424022568840      0.86058645406841
  H   -1.87705305056131      0.83408475235414     -0.49795791860485
