16
Coordinates from ORCA-job run
  C   0.67106991421769      0.46643690733203     -0.39893078835647
  C   -0.40239212036979      0.36787730290205      0.71258219060935
  Cl  1.23720075987313      2.17189993226532     -0.36813632993162
  H   0.01910680157989      0.70124589086633      1.66200946525574
  N   1.84028976187451     -0.34880272308851     -0.18315710189961
  H   2.26082648634349     -0.18260728964257      0.72351892932779
  H   1.61540158812118     -1.33205507957731     -0.27639559872654
  N   0.05189248512313      0.21811321163126     -1.66957070100376
  H   -0.32329073946738     -0.72464605995629     -1.69072731825239
  H   0.74895461667694      0.32076931654102     -2.39766948678719
  N   -0.60385549680963     -1.14447763611234      0.94816496895275
  O   -1.24404468179216     -1.76734768104233      0.09933221127851
  O   -0.09670372944492     -1.63112465767536      1.95613587394302
  N   -1.57649185888219      1.05940566565777      0.38236322567209
  H   -2.31683362125088      0.95791417602217      1.06030887303645
  H   -1.88113016579302      0.86739872387678     -0.56082841311811
