16
Coordinates from ORCA-job run
  C   0.59059070673990     -0.00855960321341     -0.59715852411620
  C   -0.42831042295409      0.23010623528590      0.54740767295135
  Cl  -0.23904295113958     -1.24121493386994     -1.72155548700690
  H   0.07404691183453      0.85755484828836      1.28704818058218
  N   0.82217336731051      1.24469086030544     -1.19198219325448
  H   -0.04156965289774      1.71264924131269     -1.42920417449890
  H   1.43570157945502      1.14637972023134     -1.99019499943490
  N   1.85570001326592     -0.58314495332327     -0.27524175694166
  H   1.75773537609978     -1.47188736552609      0.19566680462052
  H   2.36260946092490      0.06104163514949      0.32027899312167
  N   -0.69163494672818     -1.08130303248758      1.29026363084377
  O   0.24693318560142     -1.53900793340755      1.94051584254046
  O   -1.80880395131864     -1.57737800534577      1.19854885170027
  N   -1.60659967067491      0.85507036878989      0.07037815080058
  H   -2.17829816756220      1.19317133932136      0.83277646929680
  H   -2.15123083795661      0.20183157848909     -0.47954746120463
