16
Coordinates from ORCA-job run
  C   0.73580944341080      0.28420498195419     -0.19934830624613
  C   -0.62131199789238      0.21407826011836      0.52982116100174
  Cl  1.96418268358917      1.08409463315839      0.88108847156969
  H   -0.87259722624753      1.20607185531504      0.92380346481898
  N   1.18410838521304     -1.03990675125007     -0.45181943946938
  H   0.44490765576762     -1.56675071559044     -0.90188699258930
  H   2.04175021573684     -1.05813561811225     -0.98723270820322
  N   0.51152583151443      1.08662935558693     -1.38097860327561
  H   1.29416873846830      0.98132795831734     -2.01599327620523
  H   0.44088349361137      2.06911989201009     -1.13683260680979
  N   -0.51570298844863     -0.64207553303223      1.77236268382584
  O   -0.74672440125996     -1.84054984553654      1.67203605086258
  O   -0.20782941629137     -0.04639767532073      2.80158867696954
  N   -1.55670108272306     -0.39545250755178     -0.37086168950586
  H   -1.63101459857145      0.18187878365313     -1.19805885266121
  H   -2.46245473587728     -0.51813707371939      0.06231196591727
