16
Coordinates from ORCA-job run
  C   0.72224270768710      0.29427636673581     -0.38083597193181
  C   -0.43612345360158      0.21950389708806      0.64146027838747
  Cl  1.18569438246121      2.10801537453497     -0.32402172029818
  H   -0.08201264097487      0.54041612866751      1.62678913290408
  N   1.76214391725769     -0.56013135762939      0.01908439066254
  H   2.53011348845952     -0.51321229554556     -0.63793387535695
  H   2.08461178033386     -0.38816888653271      0.96173222326518
  N   0.39430148095763      0.01335491298671     -1.73601294258745
  H   -0.42102586780064      0.54937746009047     -2.00735442605236
  H   0.15663758124850     -0.97095635858582     -1.79989513126597
  N   -0.75971166579779     -1.24014177005959      0.83532798906964
  O   -1.33932319811040     -1.82539129492353     -0.07380477934629
  O   -0.38800097146865     -1.73961521728854      1.89529683576767
  N   -1.60227048123984      0.88864926515504      0.13495731694672
  H   -2.39189630421543      0.74093457069372      0.75191742685192
  H   -1.41438075519631      1.88308920461282      0.09329325298380
