16
Coordinates from ORCA-job run
  C   0.71006932885531      0.26824000415377     -0.32049232544919
  C   -0.57127214672851      0.23537436270716      0.54363369177478
  Cl  2.02005156638401      0.97380572911619      0.76031617302422
  H   -0.81505101389406      1.25268096123124      0.84854620764737
  N   0.99684068079171     -1.01181938493652     -0.83980509668269
  H   1.79353884962721     -0.95870004562339     -1.46111162338334
  H   1.13664118165560     -1.69764655549847     -0.10943220882896
  N   0.61025943346968      1.16737065904450     -1.43794127986230
  H   0.48975749217528      2.12495515281026     -1.13485871528248
  H   -0.16214781941646      0.88353244800756     -2.02847514479213
  N   -0.32194667384715     -0.48547067568873      1.85637626815595
  O   -0.58184733557484      0.12206769267198      2.88854279132020
  O   0.08294914233102     -1.64398556474149      1.78635998980696
  N   -1.66700097003069     -0.40454224977155     -0.10140553033521
  H   -1.35880204341072     -1.06086961718213     -0.80513344348463
  H   -2.36303967238738      0.23600708369961     -0.44511975362858
