16
Coordinates from ORCA-job run
  C   0.60157852320695      0.26293141819080     -0.34054807710233
  C   -0.61743171001651      0.22955954153847      0.60435194792145
  Cl  2.05927423298978      0.78527128632820      0.74892170192312
  H   -0.78049251680978      1.23469943049460      0.99160195821145
  N   0.82790051227908     -0.98147903073203     -0.96204618848131
  H   1.66060281733968     -0.96038941130546     -1.53739805414799
  H   0.90963765874443     -1.71875275282863     -0.27325031837691
  N   0.34288896918236      1.26741873227459     -1.31729472319260
  H   0.54543812643532      2.18947429035623     -0.95426563813374
  H   0.88540753935305      1.11631736202752     -2.15778479784581
  N   -0.33664381686940     -0.60936902079303      1.82020881997789
  O   -0.06983325694977     -1.79409316983458      1.61507559538992
  O   -0.43360099579208     -0.07727454814185      2.91791162864900
  N   -1.81484002170866     -0.28179916464771      0.00833958922340
  H   -1.58516537037131     -1.09027812673780     -0.55854877592190
  H   -2.19372069101319      0.42676316381065     -0.60627466809369
