16
Coordinates from ORCA-job run
  C   0.60300786796962     -0.02252321850897     -0.49208951179300
  C   -0.52688079677719      0.14650303453654      0.56950127034834
  Cl  0.07254915537368     -1.45890149713279     -1.54288846053899
  H   -0.15698388777134      0.88759089846506      1.28246694442371
  N   0.70577404333670      1.08006042553396     -1.40114535619630
  H   -0.15430800494023      1.24344310876284     -1.90490421543783
  H   1.00372425783858      1.90773265385937     -0.89911542906728
  N   1.85852362682441     -0.17139823315033      0.11911185398172
  H   2.57646731625079     -0.31329685555485     -0.57906378704172
  H   1.87716715800398     -0.88933290641334      0.82962587310514
  N   -0.66155650154482     -1.13327230049976      1.37266363003017
  O   0.26807761061007     -1.39163639760838      2.13952533174038
  O   -1.65108221257729     -1.82702362242399      1.19141246351818
  N   -1.81520346885552      0.51781387547919      0.10424186408048
  H   -1.85976970940734      1.49489251231097     -0.13995432432619
  H   -2.14050645433407     -0.07065147765548     -0.65038814682684
