16
Coordinates from ORCA-job run
  C   0.68702843180828      0.28440852550494     -0.35785232525464
  C   -0.41312527950229      0.24266746073415      0.74254188707414
  Cl  1.17751787667766      2.08345864378226     -0.36112887022058
  H   -0.00173772920237      0.62072744472642      1.67843774988315
  N   1.72559279126447     -0.59426621382622     -0.01763775761312
  H   2.45589088942121     -0.57861086279735     -0.71690629606845
  H   2.09956978780746     -0.44948484812500      0.91039109166549
  N   0.28882550907104     -0.00101269589300     -1.70061401163416
  H   -0.12100210914039     -0.92757722379775     -1.73940475504968
  H   -0.35807198031123      0.68790902906878     -2.05753697724486
  N   -0.70580356857665     -1.21009148791500      0.98987679304109
  O   -1.35296655321521     -1.78647899917101      0.11714811283276
  O   -0.24645439219901     -1.72142420599330      2.00453996290672
  N   -1.65771443256001      0.88541223502179      0.46568200901951
  H   -2.03347623520159      0.57472253464609     -0.42081877571371
  H   -1.54407300614136      1.88964066403420      0.46328216237633
