16
Coordinates from ORCA-job run
  C   0.74701796340716      0.48214792374757     -0.25927064351239
  C   -0.61829794611393      0.29183359215778      0.44438792608276
  Cl  1.83376015653750      1.31064174453349      0.90997600648989
  H   -1.03368357203927      1.27282001351693      0.66802562159222
  N   1.42484205341125     -0.71450618110503     -0.68064562831709
  H   1.56291493680951     -1.36625882822334      0.08208336788577
  H   0.90338639807215     -1.15780758433219     -1.42696222596176
  N   0.48239813276048      1.37089146621517     -1.35108226498693
  H   1.31898692297356      1.44823937768420     -1.91799740536863
  H   -0.27630717538554      0.98646914490341     -1.90359561554936
  N   -0.43356499002954     -0.37791401462947      1.78989849233832
  O   -0.08242226047435     -1.55962846784494      1.76655305137498
  O   -0.66541755087755      0.28101558945698      2.79733525480958
  N   -1.48168942246730     -0.46278990320358     -0.41096022893928
  H   -2.44972580580762     -0.36226246424620     -0.13371623914134
  H   -1.23119784077652     -1.44389140863077     -0.37302946879674
