14

C	-0.405604	0.059959	-1.478665
C	0.0	0.0	0.0
Cl	-0.138682	-1.55513	-2.221751
H	1.09225	0.0	0.0
H	-0.294765	0.95458	0.456805
N	-1.805553	0.36859	-1.611986
H	-2.013078	1.196183	-1.066186
H	-1.99106	0.571317	-2.588656
N	0.440521	0.97867	-2.218677
H	1.412873	0.705939	-2.075504
H	0.342823	1.8927	-1.784471
C	-0.595293	-1.08253	0.765405
N	-1.069923	-1.948391	1.400089
Cl	3.347789	0.0	0.0
