17

C	-0.523057	-0.003249	-1.435356
C	0.0	0.0	0.0
Br	0.521425	1.187034	-2.625361
H	1.090166	0.0	0.0
C	-0.325539	-1.341723	-2.016838
N	-0.287854	-2.430299	-2.461696
N	-1.898569	0.431931	-1.508465
H	-2.297849	0.225059	-2.415933
H	-2.437625	-0.021645	-0.778953
C	-0.439482	-1.225907	0.783278
H	-1.513156	-1.437157	0.761543
H	-0.1466	-1.083894	1.824403
H	0.114426	-2.084014	0.402008
N	-0.508094	1.232743	0.651819
O	0.07122	2.287248	0.408218
O	-1.49236	1.139261	1.399699
F	2.528178	0.0	0.0
