17

C	-0.13649	-0.066508	-1.528719
C	0.0	0.0	0.0
Br	-1.935455	-0.892153	-2.089445
H	1.094418	0.0	0.0
C	-0.188075	1.215364	-2.247712
N	-0.181985	2.140467	-2.975997
N	0.926958	-0.903601	-1.966265
H	1.091291	-0.808674	-2.959852
H	1.773638	-0.664581	-1.395619
C	-0.477181	-1.236491	0.719249
H	-0.095423	-2.101645	0.176491
H	-0.05419	-1.24339	1.725179
H	-1.563238	-1.292436	0.787288
N	-0.524217	1.240449	0.597742
O	-0.12501	2.310236	0.135832
O	-1.290612	1.14894	1.562084
F	2.60609	0.0	0.0
