17

C	-0.134954	-0.070125	-1.530412
C	0.0	0.0	0.0
Br	-1.92138	-0.931022	-2.092368
H	1.09441	0.0	0.0
C	-0.217222	1.2109	-2.248441
N	-0.226266	2.145101	-2.965343
N	0.942808	-0.88448	-1.967515
H	1.785563	-0.645414	-1.388855
H	1.109155	-0.78698	-2.959803
C	-0.478755	-1.232144	0.724698
H	-0.060787	-1.231357	1.73286
H	-0.09195	-2.100236	0.190118
H	-1.565003	-1.290057	0.786948
N	-0.521905	1.244655	0.591971
O	-1.310904	1.159173	1.53841
O	-0.098153	2.310658	0.142805
F	2.612052	0.0	0.0
