17

C	-0.073084	-0.069661	-1.534077
C	0.0	0.0	0.0
Br	-1.894261	-0.589181	-2.175745
H	1.094705	0.0	0.0
C	0.238994	1.18474	-2.236455
N	0.532625	2.121372	-2.883114
N	0.891892	-1.04133	-2.030714
H	1.751509	-0.808905	-1.493923
H	0.591077	-1.965431	-1.739895
C	-0.487248	-1.241008	0.711909
H	-0.131014	-1.220675	1.740856
H	-1.576166	-1.323729	0.715793
H	-0.060174	-2.123486	0.234914
N	-0.570687	1.213299	0.609279
O	-0.442899	2.286037	0.020506
O	-1.116351	1.101922	1.71214
F	2.57224	0.0	0.0
