17

C	-0.485205	-0.034537	-1.454235
C	0.0	0.0	0.0
Br	0.148482	1.624578	-2.334758
H	1.09062	0.0	0.0
C	0.214065	-1.142515	-2.115655
N	0.656395	-2.09352	-2.645691
N	-1.898801	-0.1667	-1.753111
H	-2.387368	0.479851	-1.141928
H	-2.188151	-1.11074	-1.518312
C	-0.495425	-1.196547	0.794088
H	-0.071383	-1.13716	1.799077
H	-0.112266	-2.111591	0.337086
H	-1.587623	-1.244614	0.86715
N	-0.506916	1.223761	0.681966
O	-1.705205	1.525068	0.543976
O	0.270052	1.854744	1.391058
F	2.538816	0.0	0.0
