16

C	0.0	0.0	0.0
C	-0.538477	-0.220271	-1.432278
Cl	1.832409	0.0	0.0
H	-1.642753	-0.182193	-1.277405
C	-0.481711	1.331513	0.535141
H	-0.102646	1.470632	1.550582
H	-1.576353	1.30632	0.540366
H	-0.117877	2.152126	-0.084196
N	-0.484004	-1.074366	0.784061
H	0.041402	-1.928252	0.663243
H	-0.59576	-0.839429	1.758096
C	-0.175293	-1.543697	-1.935458
N	0.097803	-2.614651	-2.33195
C	-0.116896	0.816707	-2.371727
N	0.203875	1.650579	-3.133904
Cl	-3.688603	0.0	0.0
