16

C	0.0	0.0	0.0
C	-0.537054	-0.220455	-1.43315
Cl	1.83246	0.0	0.0
H	-1.641302	-0.183303	-1.278054
C	-0.481529	1.331628	0.534448
H	-1.575822	1.30577	0.53985
H	-0.117367	2.153183	-0.083808
H	-0.10305	1.470596	1.550325
N	-0.484976	-1.072661	0.784081
H	-0.591665	-0.839908	1.759247
H	0.035273	-1.92919	0.65901
C	-0.172689	-1.54336	-1.936656
N	0.101022	-2.61367	-2.334553
C	-0.115887	0.818115	-2.371153
N	0.203755	1.653683	-3.13204
Cl	-3.688103	0.0	0.0
