16

C	0.0	0.0	0.0
C	-0.327208	-0.024573	-1.569743
Cl	1.796902	0.0	0.0
H	0.5545	0.382949	-2.074958
C	-0.446742	1.329025	0.580613
H	-1.537785	1.366933	0.562533
H	-0.089162	1.391007	1.609156
H	-0.035354	2.160716	0.005272
N	-0.507539	-1.071457	0.777932
H	-1.528159	-0.956513	0.799481
H	-0.291035	-1.967734	0.355289
C	-1.415192	0.836906	-2.049953
N	-2.031002	1.657213	-2.624314
C	-0.461421	-1.402948	-2.03285
N	-0.512823	-2.525508	-2.374624
Cl	-3.534541	0.0	0.0
