17

C	-0.428475	0.01862	-1.452838
C	0.0	0.0	0.0
F	-1.814155	0.158794	-1.575465
H	1.086411	0.0	0.0
C	0.249162	1.136573	-2.226949
H	1.320593	1.10861	-2.01088
H	0.066476	0.989506	-3.292548
H	-0.154319	2.095921	-1.912294
C	-0.048211	-1.25959	-2.089088
N	0.282312	-2.201064	-2.708336
N	-0.453594	-1.17661	0.746937
O	0.016477	-1.287299	1.88069
O	-1.188037	-2.004077	0.193399
N	-0.429744	1.208387	0.71398
O	-1.290655	1.126946	1.594329
O	0.144939	2.248967	0.377181
H	2.444643	0.0	0.0
