17

C	-0.427228	0.069906	-1.450709
C	0.0	0.0	0.0
F	-1.815446	0.193139	-1.56854
H	1.089566	0.0	0.0
C	0.231094	1.229185	-2.178631
H	0.047791	1.124501	-3.250056
H	-0.185863	2.169116	-1.82314
H	1.304454	1.208333	-1.96767
C	-0.027149	-1.174235	-2.140005
N	0.317265	-2.076378	-2.808377
N	-0.447803	-1.203435	0.703204
O	-1.146855	-2.03183	0.105998
O	-0.001736	-1.338301	1.844583
N	-0.430982	1.181438	0.755705
O	-1.309486	1.071197	1.615959
O	0.155655	2.231405	0.470421
H	2.437864	0.0	0.0
