17

C	-0.437431	0.012421	-1.455899
C	0.0	0.0	0.0
F	-1.809415	0.240707	-1.580091
H	1.08894	0.0	0.0
C	0.347448	1.033553	-2.259461
H	0.039399	2.032243	-1.964438
H	0.162877	0.882594	-3.324942
H	1.409499	0.894947	-2.029794
C	-0.197028	-1.322797	-2.040818
N	-0.0539	-2.356462	-2.579452
N	-0.510692	-1.201601	0.703404
O	0.206974	-2.201729	0.658029
O	-1.619882	-1.13667	1.236801
N	-0.380905	1.177868	0.771932
O	-0.160389	1.100091	1.984315
O	-0.739862	2.205209	0.1835
H	2.480131	0.0	0.0
