17

C	-0.486581	-0.045686	-1.448824
C	0.0	0.0	0.0
F	-0.287806	1.240877	-1.954055
H	1.08969	0.0	0.0
C	0.342877	-1.000633	-2.282913
H	0.1081	-2.031172	-2.027077
H	1.394849	-0.800058	-2.064529
H	0.12595	-0.817749	-3.33736
C	-1.935835	-0.309766	-1.570876
N	-3.081004	-0.491201	-1.757822
N	-0.405922	-1.138156	0.790211
O	-0.170995	-1.066412	2.002669
O	-0.800838	-2.157336	0.197734
N	-0.492104	1.238247	0.658028
O	0.262873	2.204931	0.668176
O	-1.640899	1.215792	1.105928
H	2.486973	0.0	0.0
