17

C	-0.499657	-0.007101	-1.426974
C	0.0	0.0	0.0
F	-1.893548	0.115077	-1.467874
H	1.089367	0.0	0.0
C	0.105858	1.117314	-2.246754
H	1.193495	1.088136	-2.137895
H	-0.182789	0.984656	-3.291559
H	-0.262238	2.074583	-1.88301
C	-0.142552	-1.286229	-2.072657
N	0.171996	-2.225231	-2.703574
N	-0.437543	-1.150165	0.794459
O	0.026114	-1.199814	1.935726
O	-1.14195	-2.021811	0.270912
N	-0.418417	1.228682	0.698016
O	-1.315281	1.17482	1.543954
O	0.190964	2.252592	0.371057
H	2.448269	0.0	0.0
