17

C	-0.47062	-0.005464	-1.447464
C	0.0	0.0	0.0
F	0.039723	1.137927	-2.050902
H	1.088903	0.0	0.0
C	0.085692	-1.191936	-2.213823
H	-0.374515	-2.12742	-1.903927
H	1.159921	-1.234087	-2.025082
H	-0.111109	-1.021357	-3.274328
C	-1.943466	0.042902	-1.564055
N	-3.109356	0.010711	-1.70508
N	-0.422088	-1.2141	0.711655
O	-1.336369	-1.145456	1.541427
O	0.201825	-2.241604	0.424173
N	-0.448202	1.168921	0.758146
O	0.016367	1.258684	1.896492
O	-1.151702	2.019719	0.20277
H	2.44793	0.0	0.0
