17

C	-0.475226	-0.022471	-1.454846
C	0.0	0.0	0.0
F	-0.29367	1.283879	-1.919083
H	1.090513	0.0	0.0
C	0.379965	-0.93643	-2.307694
H	0.16489	-1.97787	-2.081141
H	0.167602	-0.728378	-3.35878
H	1.427084	-0.721964	-2.073629
C	-1.916865	-0.315639	-1.589157
N	-3.055326	-0.565544	-1.734256
N	-0.414406	-1.139861	0.778549
O	-0.691998	-2.185844	0.171364
O	-0.3003	-1.041416	2.005875
N	-0.504251	1.233844	0.665668
O	-1.706478	1.255709	0.938555
O	0.29238	2.144886	0.859525
H	2.495176	0.0	0.0
