16
Coordinates from ORCA-job run
  C   -0.56876895682857     -0.10478149536858      0.57496041959997
  C   0.75593846631501      0.42690361136707      0.00497747240238
  Cl  -0.46383029052362     -0.13341755330703      2.39305917998670
  H   0.90487422774050      1.44397997254621      0.39983148082267
  N   -1.62864953794549      0.77292208278203      0.14391317970769
  H   -1.54122363364274      1.67554383333627      0.59968871950443
  H   -2.52564277387589      0.38187044114692      0.40842781412479
  N   -0.73637724252818     -1.46186020670978      0.14294118277020
  H   -1.55211225114887     -1.88697419926601      0.56491389126597
  H   -0.81117464648099     -1.45695839890625     -0.86794168940317
  N   0.58806922097706      0.38932478309226     -1.45438818913093
  H   1.45101350046453      0.68176102126891     -1.89705073736122
  H   -0.15234094844777      1.02506213692362     -1.72854440623143
  N   1.85096444670393     -0.38021644448027      0.46391287639198
  H   1.70102751106933     -1.33394018667199      0.15758374838366
  H   2.72823290815174     -0.03821939775337      0.09371505716629
