16
Coordinates from ORCA-job run
  C   -0.64862278517083     -0.21909897665725      0.40265714469403
  C   0.80643877497278      0.08214354204306      0.02307304779411
  Cl  -0.87647876480448      0.94530518182332      2.03842137470837
  H   1.42452753699423     -0.10519161413480      0.91054767161445
  N   -1.52115343339718      0.21714834522619     -0.58671255854977
  H   -2.49668687654260      0.07397050555143     -0.36646028321947
  H   -1.31845466485222      1.17572782752630     -0.83842330635030
  N   -0.86199837350947     -1.53978554876961      0.79389186478119
  H   -0.13065236358297     -1.86913142357035      1.40781752022511
  H   -1.76292390875387     -1.66939412138559      1.23494318100279
  N   0.86927988504975      1.47906187658965     -0.41850927789613
  H   0.83256621886949      2.09549415869817      0.38580552315777
  H   1.74753327653987      1.63403983871042     -0.89720070511053
  N   1.20234717748508     -0.85747668984855     -0.99875349476403
  H   2.15382493944530     -0.67747084205452     -1.29611336621249
  H   0.58145336125713     -0.76434205974788     -1.79398433587511
