16
Coordinates from ORCA-job run
  C   -0.63557836936570     -0.05245638587818      0.39319167490895
  C   0.62987501983480      0.02023216360014     -0.47537057526139
  Cl  -0.19720467856393      0.56020307195729      2.07510064213710
  H   0.29637094796671     -0.36232573308437     -1.45326174109292
  N   -1.62894672457930      0.87800372849740     -0.10827023880752
  H   -2.26400393611835      1.15234672277111      0.63041654474009
  H   -2.15977523272514      0.39078175489669     -0.82280974828757
  N   -1.08664909188744     -1.39656162861096      0.40844403685943
  H   -1.82033595510790     -1.53193855643963      1.09257059836479
  H   -0.30014007048630     -2.00613438288401      0.60566458098010
  N   1.60871742947698     -0.92573273174812      0.03084919964888
  H   2.11462787785784     -0.46369770497704      0.77968604958107
  H   2.27526832509848     -1.15647019858728     -0.69514196460321
  N   1.12309282757451      1.38253312773279     -0.52059447677818
  H   1.71580605054880      1.50336913160995     -1.33264821676351
  H   0.32887558047593      2.00784762114423     -0.60682636562613
