16
Coordinates from ORCA-job run
  C   -0.67036586247261     -0.13437603028820      0.47265733014995
  C   0.80986044889725      0.15820555296339      0.16800830758707
  Cl  -0.99924753606958      0.68033862656028      2.15064865181212
  H   1.37187315601604      0.07082226540988      1.10031433827984
  N   -1.49240854736175      0.46889173020833     -0.52111161550768
  H   -2.41600405544515      0.05627617798403     -0.51701708601926
  H   -1.55239388792699      1.46791649472697     -0.37232808342043
  N   -0.93607163413396     -1.52631889888620      0.54962066001987
  H   -0.10057741998726     -2.04960114365476      0.76820435763023
  H   -1.67329604556500     -1.72971664197244      1.20973950447114
  N   0.91356654217372      1.53895660110350     -0.27664709858662
  H   0.66308388684583      1.59316558204707     -1.25683961268764
  H   1.86077769251076      1.87638698130487     -0.16705996065529
  N   1.28920545001996     -0.88607544525530     -0.73082099124425
  H   0.69730240123069     -0.91440262049670     -1.55462754046561
  H   2.23569541126806     -0.67146923175472     -1.02174116136342
