16
Coordinates from ORCA-job run
  C   -0.55699625198858     -0.14184487869625      0.58747323656632
  C   0.52182465879782      0.16498679291664     -0.46895266421574
  Cl  0.03271324403605      0.45073197399194      2.18285929490006
  H   0.07661868986245     -0.19245202902051     -1.41613563516201
  N   -1.81010677436353      0.53291659541561      0.34398672564790
  H   -2.21743423148441      0.14722103094669     -0.50272427785442
  H   -1.60625694257536      1.51177640319961      0.16485196932344
  N   -0.70779343955709     -1.57349993105111      0.69223304131071
  H   -1.41308515053153     -1.77141730237970      1.39379725821935
  H   -1.03781968712559     -1.93633361624080     -0.19753295038978
  N   1.76624237551779     -0.49686653926650     -0.12819800091525
  H   2.33410518173211     -0.63183062085049     -0.95513967978617
  H   1.56840648377876     -1.39874421765327      0.28985724316188
  N   0.66208185292477      1.60290687990521     -0.60696686121930
  H   1.30068451753033      1.91102804005939      0.11924998787220
  H   1.08781547344600      1.82342141872355     -1.49865868745917
