16
Coordinates from ORCA-job run
  C   -0.61405376763919      0.01662470390168      0.54606294718609
  C   0.58167055152087     -0.00148440459023     -0.42550955100834
  Cl  -0.04610645637833      0.66972440090217      2.12563856766297
  H   0.16655425953972     -0.44258243701291     -1.35084098434158
  N   -1.60885256730642      0.93083697401248      0.03818369377816
  H   -1.94596718537165      0.58756483218105     -0.85667123093687
  H   -2.39065194520440      0.94571919319100      0.68422208374437
  N   -1.15266628275446     -1.29450471524807      0.82120431015347
  H   -0.37664806628308     -1.90594760246108      1.05730528088420
  H   -1.57090602351780     -1.65006452047743     -0.03334069150680
  N   1.57719180686453     -0.94073475529681      0.05727414173337
  H   2.14892882730574     -0.44676514614158      0.73495724441262
  H   2.18329544526743     -1.22155154220557     -0.70349559872552
  N   1.10598277123206      1.33819203138399     -0.60746358634836
  H   0.34344837028510      2.00585152537062     -0.59935244749298
  H   1.59978026243986      1.40912146249071     -1.48817417919480
