16
Coordinates from ORCA-job run
  C   -0.60914624476880      0.00535366807884      0.58276008561810
  C   0.71866180419508      0.40705987810760     -0.07123453363292
  Cl  -0.26106737337775     -0.21781911740813      2.40146509345024
  H   1.04986866846860      1.32255561717728      0.43257402353646
  N   -1.51813133931787      1.10514961563320      0.50658652888436
  H   -2.41192540005300      0.86595648638950      0.91815186437728
  H   -1.62965651695824      1.32740186962199     -0.47638193474553
  N   -1.05993816569565     -1.20374581587124     -0.00876504679205
  H   -1.91399805447757     -1.53703182780857      0.41964215041442
  H   -0.33557475707070     -1.91063566528048      0.04561766459417
  N   0.42499496417136      0.73817540884897     -1.44937024294369
  H   0.25103403060619     -0.11784760266799     -1.96295176341847
  H   1.19709789619871      1.23633927510627     -1.87311052565382
  N   1.65984347078971     -0.70893958786641      0.04236573205129
  H   1.95846676621239     -0.81079301631909      1.00624822547729
  H   2.48047025107754     -0.50317918574175     -0.51459732121713
