16
Coordinates from ORCA-job run
  C   -0.54633002975471     -0.21070843936391      0.43564067308606
  C   0.85560240197240      0.21506512915738     -0.03826299851324
  Cl  -0.81619713832271      0.85421760336322      2.06758775144748
  H   1.55250111250731      0.00501712424728      0.78589374355212
  N   -1.50710189263765      0.11543799409184     -0.52238476162598
  H   -1.34218066611548      1.06049276792822     -0.84954595958802
  H   -2.45611389308497      0.00525016791161     -0.19175297575554
  N   -0.57587662913520     -1.57484934628972      0.79772260498920
  H   -0.05867701690469     -1.72919005807367      1.65336980300786
  H   -1.52190694967926     -1.91185798163502      0.92309868897018
  N   0.80664587713011      1.61220458803753     -0.43023767604650
  H   0.75410702940157      2.20655118968650      0.38719867434688
  H   1.65970182285138      1.81780608089604     -0.93514635113034
  N   1.29492294697358     -0.53269295242918     -1.19771131984454
  H   1.30826554897960     -1.51760200933054     -0.96110858134741
  H   0.59463747581872     -0.41614185819758     -1.92336131554820
