16
Coordinates from ORCA-job run
  C   -0.68281432471589     -0.13536638291200      0.45165926476714
  C   0.80679286767784      0.15126235852266      0.18981195017997
  Cl  -1.05068636106273      0.66900511467820      2.12997988365107
  H   1.34227562893725      0.05465679272647      1.13668545145863
  N   -1.47488729143725      0.48189123753980     -0.55678559886901
  H   -2.40269187940359      0.07929362837148     -0.57787772406559
  H   -1.52760424077642      1.48051649594637     -0.40282252343230
  N   -0.95841306141060     -1.52515160898734      0.51069160661113
  H   -0.13749765172254     -2.05458972930413      0.76625295505691
  H   -1.72729155718088     -1.72771583881475      1.13406949032819
  N   0.92935688230841      1.53507661348200     -0.24177146885291
  H   0.71559931350965      1.59589540487051     -1.23020245649918
  H   1.87252390327026      1.86958905908639     -0.09511812185347
  N   1.30497416440091     -0.88843128567021     -0.70327082559552
  H   0.73188743315611     -0.91303779401661     -1.54024954468297
  H   2.25847617444946     -0.67489406551884     -0.97105233820209
