16
Coordinates from ORCA-job run
  C   -0.68729423788034     -0.12278476909321      0.44838920569564
  C   0.69356866138934      0.46612221545563      0.10772376578357
  Cl  -0.75586850805803     -0.15064172865998      2.34407682706331
  H   0.90653803857256      1.26557202321294      0.82058278176748
  N   -1.74763354535029      0.66829467828906     -0.06230983440153
  H   -1.46247554880645      1.62769296636697     -0.19556917359479
  H   -2.56988268106854      0.61382297660981      0.52228069332443
  N   -0.77886225054514     -1.45204476726365     -0.05164302754304
  H   -1.74464958233831     -1.74907600329093     -0.10040877966527
  H   -0.24434315013606     -2.08549612313893      0.52867171945695
  N   0.59957184556754      1.07241959383930     -1.21527204029347
  H   0.26705218337229      0.37949836915768     -1.87773626590519
  H   1.51726975999256      1.38554198866265     -1.50896834734290
  N   1.68887842657386     -0.57541121203890      0.30969767883359
  H   2.60609167870033     -0.16877492053685      0.43751715890132
  H   1.71303891001469     -1.17573528757159     -0.50603236208009
