16
Coordinates from ORCA-job run
  C   -0.66948212657221     -0.09800868723471      0.55638320105556
  C   0.64737861406291      0.40121515244933     -0.06615671198800
  Cl  -0.32084524543423     -0.22516805909549      2.39694051722533
  H   0.90859214093337      1.34217664573255      0.43740710117027
  N   -1.78083203740290      0.80444409474412      0.45297714530372
  H   -1.60824921019906      1.62898520921285      1.01471046117608
  H   -1.82813164623051      1.08380760053277     -0.52227391936251
  N   -1.01831210398228     -1.31963624941929     -0.03438498675226
  H   -0.26412526625745     -1.99058781447927      0.02046489990988
  H   -1.88719420060842     -1.67376560303315      0.34058442063230
  N   0.36643287285937      0.71232927879372     -1.45124990884539
  H   1.12842063144940      1.23469672389182     -1.86477299310244
  H   0.23846706433006     -0.15395620496669     -1.96125880058369
  N   1.66654435042616     -0.63966897300298      0.07421258956484
  H   2.49396893433730     -0.36873542271917     -0.44365283693751
  H   1.92836722828850     -0.73712769140640      1.04906982153381
