16
Coordinates from ORCA-job run
  C   -0.67109647924028     -0.09374565588596      0.55525479558600
  C   0.75872377543793      0.09135932318909      0.01465749265492
  Cl  -0.76290004117744      1.00373311759053      2.07594327240737
  H   1.44981760732061     -0.16243963313783      0.83024984499279
  N   -1.58581158770764      0.25742751305265     -0.44626199609101
  H   -2.53846932887209      0.13625202715620     -0.13205599515365
  H   -1.40632419037381      1.18393223529518     -0.80869142282698
  N   -0.98385303173711     -1.41109314795900      1.03169507811005
  H   -0.70011113400119     -2.05207090234769      0.29682548596805
  H   -0.44131998446466     -1.61478124518143      1.86197562053825
  N   0.91025068437504      1.46218996203444     -0.47494620716983
  H   1.80285816387200      1.55185882059507     -0.94551308291456
  H   0.90401604499536      2.11000633530087      0.30524070831480
  N   0.94266948112623     -0.89003104397555     -1.03283609187100
  H   1.91865932907987     -0.96257644457023     -1.29105478887694
  H   0.40189069136718     -0.60902126115634     -1.84248271366827
