16
Coordinates from ORCA-job run
  C   -0.50969838433239     -0.03115541820657      0.70340525916402
  C   0.76854409123878      0.45422612144718      0.00922815557883
  Cl  -0.29214056321041      0.01096872908421      2.47521995930938
  H   0.99781409498139      1.44311308999065      0.41954038277861
  N   -1.56033213252096      0.92689740627779      0.39377120341676
  H   -2.36723272136710      0.75351795114306      0.98223502625719
  H   -1.83120385557255      0.77764606794252     -0.57243622677230
  N   -0.72753344985216     -1.41259199996351      0.32007679147632
  H   -1.52290759005745     -1.79570284800013      0.81678809056057
  H   -0.92052984779664     -1.41632091815284     -0.67650190698352
  N   0.41484809339701      0.53699165207896     -1.43014745092065
  H   1.21381034374350      0.25418534114079     -1.98251136912253
  H   0.19183917118687      1.49443316581326     -1.67656197840354
  N   1.85091379836533     -0.43678472554310      0.30261130935831
  H   2.70172641771875     -0.16864441929126     -0.17215713721721
  H   1.59208253407804     -1.39077919576101      0.08843989151976
