16
Coordinates from ORCA-job run
  C   -0.67752185975048     -0.07217275531776      0.50500125830066
  C   0.43772537541043     -0.05382593757480     -0.55307042993763
  Cl  0.10385109600471      0.78570573807806      2.01315130471578
  H   -0.00410396694515     -0.56312258364963     -1.41669073191655
  N   -1.80166216767146      0.61284021022205      0.02592611161327
  H   -2.50414354667680      0.71097318760297      0.74666605457305
  H   -1.53590275639714      1.50537859329440     -0.36779511203954
  N   -1.06680097006420     -1.36003422720885      0.97366279703054
  H   -1.64695422724022     -1.78512214663158      0.25986369907892
  H   -0.23837562000795     -1.92369113656652      1.12055825244748
  N   1.54748757081474     -0.87453831743996     -0.09756000638011
  H   2.18298351280418     -1.05789629097569     -0.86357127853193
  H   2.05729799745038     -0.39400015730687      0.63461284980976
  N   0.69276465571843      1.32228828652433     -0.95640017401611
  H   1.20000128117886      1.80422872422582     -0.22293478090327
  H   1.25135362537169      1.34398881272403     -1.80041981384432
