16
Coordinates from ORCA-job run
  C   -0.52173140475977     -0.02852888834790      0.70360514347862
  C   0.75699202523258      0.48593179173878      0.02460862994001
  Cl  -0.23984869343273     -0.25041302691557      2.45783012671707
  H   0.96098949451846      1.47651799285776      0.43902738821187
  N   -1.53465659185139      0.98006323606107      0.55284916731841
  H   -2.42658872593774      0.64469243561784      0.89553258604087
  H   -1.59391161826501      1.20564914161303     -0.43417478445101
  N   -0.80489664884198     -1.35736053693755      0.15103477593330
  H   -1.35290702569134     -1.23065154783293     -0.69286265671156
  H   -1.35556105643878     -1.90070369755393      0.80451964608481
  N   0.40090846491893      0.65876245424792     -1.39742978019670
  H   0.97483144934847      1.38283291745722     -1.81149437664014
  H   0.60326200389260     -0.20656550697934     -1.88571754068937
  N   1.86000820614842     -0.39306491250237      0.31910582523856
  H   1.59262083429456     -1.34194105466593      0.08259175757631
  H   2.67848928686471     -0.12422079785812     -0.21102590785105
