16
Coordinates from ORCA-job run
  C   -0.53646259449476      0.01250646688547      0.69288516220340
  C   0.88148044896311      0.14011626748274      0.11496559557546
  Cl  -0.72419412294867      1.09552425153293      2.10632340408416
  H   1.57152085521483     -0.22018947409107      0.88219593178116
  N   -1.47012379972050      0.49156592204822     -0.33185030808383
  H   -1.69098156684482     -0.29060015082782     -0.93845746899516
  H   -2.33080965491741      0.80955723225815      0.09663233413845
  N   -0.70069598477676     -1.33754426164257      1.15808394717596
  H   -0.45671080429232     -1.95469484400887      0.39113203318844
  H   -1.65508057418668     -1.49937667958131      1.45542100864893
  N   1.17164113615409      1.52016316127008     -0.18046495166254
  H   0.42902255807627      1.89203046174538     -0.76187077130325
  H   2.05788829978323      1.60069928943373     -0.66140855602328
  N   0.92941919651497     -0.80975756700152     -1.01388218359228
  H   1.87929180764349     -1.13060108399439     -1.15500476036976
  H   0.64479479983190     -0.32139899150917     -1.85570041676586
