16
Coordinates from ORCA-job run
  C   -0.48584780766365     -0.01989992067814      0.48513721114423
  C   0.66135572911069      0.09654298454896     -0.54149936055544
  Cl  0.00668051326588      0.67785031316637      2.05309856704330
  H   0.22115883167600     -0.31650157221395     -1.47371035305613
  N   -1.58891481310659      0.79615201418572      0.00557578433561
  H   -2.31735442713309      0.85197884645009      0.70814949741310
  H   -1.97925389522072      0.36604789327814     -0.82706193840615
  N   -0.74591541421550     -1.43218482074641      0.72248272822400
  H   -1.41049481007927     -1.54758527013512      1.47932163793452
  H   -1.15015419998526     -1.83320714699123     -0.11844147498815
  N   1.81170548069650     -0.63252169246990     -0.06872112682003
  H   1.53694313560500     -1.55364733596122      0.24448771675357
  H   2.49043665855803     -0.70233730558908     -0.81526476775764
  N   1.09045049827706      1.44093277357207     -0.84133195954519
  H   0.27554372542388      2.02561650147699     -0.98666805246465
  H   1.58466079479104      1.78376373810671     -0.02455410925495
