16
Coordinates from ORCA-job run
  C   -0.54174298080882     -0.17525993594762      0.45636617563153
  C   0.85692753738249      0.20161228419425     -0.06597917270284
  Cl  -0.77304473834617      0.99910415145463      2.01922749724592
  H   1.56481183194228      0.03701405570474      0.75915734976565
  N   -1.51440460209121      0.09883383954833     -0.50571434752047
  H   -2.45892969655199      0.02163537519556     -0.15355426365804
  H   -1.34485266028123      1.01846152123945     -0.89671692015233
  N   -0.58040713588890     -1.51156020437470      0.90876613854254
  H   -1.52756284117332     -1.82760416482115      1.07393441208050
  H   -0.04838793384996     -1.61568901180003      1.76290700038415
  N   0.81687812873223      1.57037275978630     -0.54867052898992
  H   0.78177173225371      2.21752789374900      0.22862576582348
  H   1.66497465635537      1.73235463944144     -1.07725278190877
  N   1.26930148364877     -0.62577986249302     -1.18048614033109
  H   0.55860960522052     -0.54872508198776     -1.90128226298827
  H   1.27605761345624     -1.59329825888943     -0.88032792122204
