16
Coordinates from ORCA-job run
  C   -0.65662289307797     -0.14326836977293      0.55934916441596
  C   0.76851831815121      0.10031293766080      0.01555823312544
  Cl  -0.69749565254046      0.91932139455684      2.12986023749297
  H   1.47465841962703     -0.15304259875984      0.81907416521176
  N   -1.72075408612272      0.33284434117079     -0.25747375543224
  H   -1.92542718218233     -0.36793910929237     -0.95787549979931
  H   -1.46325966049655      1.21371816665043     -0.68538913892414
  N   -0.88326550520345     -1.49939213162396      0.85157774812780
  H   -0.08505185429032     -1.94132142008347      1.28431672418767
  H   -1.70860872870646     -1.60735323792395      1.42603560487270
  N   0.85931584654489      1.49791306872307     -0.40787821426757
  H   1.74940035231398      1.64358720508220     -0.86853636255064
  H   0.82149340292723      2.11312511692193      0.39711935692986
  N   1.02039698249484     -0.81172798399400     -1.07747184011743
  H   1.99313507659937     -0.75952507236315     -1.35557031030870
  H   0.45456716396169     -0.53725230695240     -1.87269611296414
