16
Coordinates from ORCA-job run
  C   -0.58929206575124     -0.13261522029049      0.57006976477223
  C   0.82589178766713      0.22444300239532      0.05850355677398
  Cl  -0.66779954219836      0.44193797893397      2.32644655347739
  H   1.49660364017150      0.18919930792792      0.92390391653658
  N   -1.57715700927316      0.49989426162803     -0.22669700687958
  H   -1.43589977187590      1.50331077073809     -0.21053458273057
  H   -2.50545418475317      0.28140695736324      0.11371980904915
  N   -0.73875259383313     -1.56977079141154      0.62868200777622
  H   -1.47077522113287     -1.82385782337013      1.27970728680017
  H   -1.00484142392153     -1.87315628989550     -0.30269759130969
  N   0.82119791346268      1.57883199069923     -0.45222938725351
  H   1.73798264530422      1.99808846245257     -0.38196346437558
  H   0.54888775803020      1.54805806135715     -1.42886292348617
  N   1.18468679866217     -0.73890804252386     -0.98143843086271
  H   1.29115422759459     -1.65256426650966     -0.55460122266682
  H   2.08456704184688     -0.47229835949433     -1.36500828562109
