16
Coordinates from ORCA-job run
  C   -0.63118765388710     -0.01642836254280      0.54002060715585
  C   0.77287206781901      0.37149417934692      0.02034407426504
  Cl  -0.62310247376819      0.31763143874502      2.35922635571506
  H   1.14162917356673      1.17554678858825      0.66651053629192
  N   -1.62101940072365      0.88209453111249     -0.01142292040359
  H   -2.44963121981192      0.89639426351663      0.56948142097066
  H   -1.86566779131436      0.51923305877055     -0.92727879431017
  N   -0.90046458281267     -1.38120516237901      0.26497941943045
  H   -0.18938665095055     -1.96147078759421      0.69476932442718
  H   -1.81276904898192     -1.64409540011367      0.61703583332451
  N   0.63847343095230      0.77880727986067     -1.37761413707604
  H   1.56419627436386      0.97356849669661     -1.74244022140352
  H   0.10601888011194      1.64102427512236     -1.41462468191753
  N   1.66307700618268     -0.76141334827322      0.15926666467112
  H   1.58441416361687     -1.33037541538007     -0.67679831362626
  H   2.62254782563697     -0.46080583547653      0.26054483248533
