16
Coordinates from ORCA-job run
  C   -0.67565707072615     -0.09576429981806      0.54912922534637
  C   0.63841527583486      0.41469674236176     -0.07037163054783
  Cl  -0.35377356852011     -0.15071601251810      2.39840666398169
  H   0.86807853249849      1.37883966650068      0.40389413671983
  N   -1.80694193660007      0.77460590380289      0.39758594136869
  H   -1.84441551015891      1.02008785489478     -0.58716149188976
  H   -1.66438989694996      1.62138839732601      0.93405288355637
  N   -0.98497127223314     -1.34519744079238     -0.00396090368824
  H   -1.85095531229560     -1.70810805044362      0.36925921163805
  H   -0.21550090139190     -1.99486171630153      0.08414320753368
  N   0.37191668756083      0.67092379146596     -1.46959475498682
  H   1.12764496036522      1.19717175098866     -1.88965393292046
  H   0.27299348686023     -0.21538101781839     -1.95088498795076
  N   1.68046044928879     -0.59443588357347      0.12177276969937
  H   1.92672742226315     -0.65292370853561      1.10379702857772
  H   2.51036865420426     -0.32032597753959     -0.39041336643790
