16
Coordinates from ORCA-job run
  C   -0.68412928881374     -0.07905995604401      0.49443014542995
  C   0.44505300740408     -0.04692670841924     -0.54813736654875
  Cl  0.07896809716005      0.75689085319137      2.02610310085672
  H   0.01397428992133     -0.54379521129995     -1.42441448090821
  N   -1.80069776406708      0.61442498592307      0.01086944358884
  H   -2.51304102476490      0.70345933609212      0.72297454048642
  H   -1.52812170215733      1.51092000286483     -0.36900836339811
  N   -1.08082655584743     -1.37271398180426      0.94067873876252
  H   -1.65101323698541     -1.78763013617833      0.21289896840909
  H   -0.25503982180987     -1.93939111855631      1.09091059010814
  N   1.54833953475129     -0.87436006127834     -0.08976744072782
  H   2.19714943583874     -1.04222408939627     -0.84811867427454
  H   2.04464076849865     -0.40691770806292      0.65999180682575
  N   0.70574765997964      1.33468028246950     -0.92923054197109
  H   1.20464727955750      1.80519392362578     -0.18263927215319
  H   1.27534932133448      1.36744958687297     -1.76554119448572
