16
Coordinates from ORCA-job run
  C   -0.63706012533310     -0.02659486548142      0.60093470013394
  C   0.76118531349756      0.05796909428351     -0.03859476719558
  Cl  -0.58600565259295      1.17236590022464      2.04486094135366
  H   1.49270756057721     -0.17243900014913      0.74818910855033
  N   -1.59968267411011      0.29770004611794     -0.36413637370785
  H   -2.53419456928445      0.24067685974798      0.01586963742689
  H   -1.40613954904106      1.18862136422488     -0.80093925153714
  N   -0.97118864414508     -1.29423120600459      1.18556165482355
  H   -0.38611692812646     -1.46584869715371      1.99390049438358
  H   -0.75990229047149     -1.99458454906696      0.48108912027402
  N   0.93631143083756      1.38515151548852     -0.62980323881279
  H   1.80087911816193      1.40418119466038     -1.15744605109567
  H   1.00430770927083      2.08285217804915      0.10303501679360
  N   0.83688226652465     -0.99788080196692     -1.02536091281145
  H   1.79030225313307     -1.13173503185657     -1.33766308486306
  H   0.25671478110188     -0.74720400111770     -1.81749699371603
