16
Coordinates from ORCA-job run
  C   -0.63891384901564      0.04643163180616      0.63788350445337
  C   0.80981828546152      0.10012618617740      0.11395131323587
  Cl  -0.78637956867157      1.07948221554257      2.08730608296425
  H   1.44928653311487     -0.34693220222131      0.88255385760348
  N   -1.49047014752926      0.59733698326508     -0.40143748666585
  H   -2.41016970168260      0.74919874956297     -0.00076926474233
  H   -1.60209804321416     -0.13038801731331     -1.10203504566352
  N   -1.05695136875439     -1.28718756848869      1.02642044290639
  H   -0.61395562505251     -1.54859346891391      1.90029801851460
  H   -0.71704529123980     -1.91413922351313      0.30178013909916
  N   1.21862177974715      1.46562624249591     -0.10203420891672
  H   0.50376425910930      1.93844900622191     -0.64332896760737
  H   2.10291258019512      1.50267909506470     -0.59223413169087
  N   0.83429486268547     -0.79946885013396     -1.05542557289343
  H   1.75708779449527     -1.20042603051702     -1.16765674611976
  H   0.64019750035123     -0.25319474903537     -1.88727193447728
