16
Coordinates from ORCA-job run
  C   -0.55114536942943     -0.14143958031692      0.59270498059213
  C   0.51735864320653      0.16486027235338     -0.47405016577876
  Cl  0.05508673214602      0.44843964509134      2.18313030207608
  H   0.06219996601263     -0.19220281856158     -1.41656284747317
  N   -1.80568225924498      0.53553248828607      0.36283881530177
  H   -2.22116650455148      0.15239992400724     -0.48110166248369
  H   -1.60325660480083      1.51474370588570      0.18427815182240
  N   -0.70354465793642     -1.57267312601883      0.69749997057637
  H   -1.40765988738597     -1.76995485091864      1.40041973413830
  H   -1.03453224960595     -1.93557006888293     -0.19184084329053
  N   1.76470923674260     -0.49886708148737     -0.14688259776895
  H   1.57017834260607     -1.39673360863578      0.28132494630343
  H   2.31916905710024     -0.64325596197482     -0.98130044564280
  N   0.65770870919861      1.60277019903868     -0.61245845875475
  H   1.07816179605575      1.82242207831019     -1.50696877941823
  H   1.30241504988660      1.90952878382426      0.10896889980041
