16
Coordinates from ORCA-job run
  C   -0.58090964319030     -0.16462847955245      0.44659472661826
  C   0.86841866310385      0.19295094734547      0.05976511085714
  Cl  -0.83408754341578      0.61680282925258      2.18241509862633
  H   1.50752448102714     -0.03959518614865      0.91590713846587
  N   -1.46819079813206      0.40969065660310     -0.48462028890358
  H   -2.42902229077674      0.13813847134090     -0.32026872157881
  H   -1.38218543866429      1.41746457868494     -0.43555927734494
  N   -0.76637687896257     -1.56795142106575      0.54728792892119
  H   -0.16846928142881     -1.93896022247613      1.27601461026868
  H   -1.72210413105081     -1.78568715681441      0.80429120415677
  N   0.92123533668456      1.62336395152673     -0.20494058083733
  H   1.79438473225001      2.00032651452640      0.13700778504607
  H   0.92425945779535      1.75632413311950     -1.20986842858107
  N   1.33170293573932     -0.57544147848317     -1.08666499211848
  H   1.39937212148774     -1.55388788089887     -0.83265939247551
  H   0.60444827753338     -0.52891025696016     -1.79570192112058
