16
Coordinates from ORCA-job run
  C   -0.68939724834684     -0.13196890876917      0.56310363900377
  C   0.68857508099608      0.38272506181103      0.06132992844573
  Cl  -0.69098038910483      0.17478428992750      2.39482882036327
  H   1.00023129024592      1.20286952591114      0.71754937527639
  N   -1.84197857283674      0.56464245433407      0.05777500771091
  H   -1.80464182829388      0.51551113501471     -0.95449112035250
  H   -1.85196386852795      1.52891059055214      0.36314842925951
  N   -0.84334859629836     -1.49685569611240      0.24307481722753
  H   -1.77492495458671     -1.79661837342970      0.50083359897115
  H   -0.14571657674751     -2.05232733017811      0.72019868493188
  N   0.53353120861418      0.80914277989641     -1.33617095810183
  H   1.45376316191317      0.85650356470211     -1.75761128445366
  H   0.14229018789372      1.74356088659583     -1.37582127653308
  N   1.66043953150930     -0.67764170545558      0.19143127694095
  H   1.55977938349483     -1.30813654893212     -0.59654860995657
  H   2.60334219007562     -0.31310172586786      0.20636967126657
