16
Coordinates from ORCA-job run
  C   -0.53238582905105     -0.08613736227940      0.51382295099990
  C   0.93324656166786      0.17082180054115      0.09999485155692
  Cl  -0.79915503439797      0.75114312822834      2.14653010530856
  H   1.58015661194327     -0.17780503601861      0.91390244318708
  N   -1.41849974753334      0.48476567788136     -0.47239955593381
  H   -1.91682685105223      1.28592024432474     -0.11405165716500
  H   -2.07241114936578     -0.20978957395194     -0.80661689947488
  N   -0.77064259000997     -1.48785523322634      0.62075970647185
  H   -1.69651971231962     -1.65448637970348      0.99913912656968
  H   -0.10105066869476     -1.90904963661677      1.25447194612040
  N   1.12382795419218      1.58955253557712     -0.06406975715638
  H   0.50799171229614      1.90267557066851     -0.80749890848489
  H   2.07694870471274      1.74111517194771     -0.37140643111222
  N   1.29011189878099     -0.56821039582694     -1.10452953395973
  H   1.13627431563383     -1.56097241198161     -0.96617226153118
  H   0.65893382319772     -0.27368809956383     -1.84387612539629
