16
Coordinates from ORCA-job run
  C   -0.70518595274941     -0.11319461178260      0.47426970123490
  C   0.47464823946841      0.12725540628425     -0.48328835721585
  Cl  -0.21390284454963      0.60259022892712      2.11532010475050
  H   0.07022482809304     -0.13975794073978     -1.46911914582606
  N   -1.92056132266577      0.54778521214543      0.10394920154111
  H   -1.71870670534974      1.52099534567694     -0.09153735123393
  H   -2.27162740572305      0.10321732750753     -0.73706382122186
  N   -0.95024091765124     -1.50539482012177      0.55228919121325
  H   -1.73315478970014     -1.67108500814842      1.17419470690729
  H   -0.12631128882146     -1.96083757247905      0.92745520263478
  N   1.59084081423708     -0.75819667636787     -0.12753726007698
  H   2.46925660633277     -0.27306353803297     -0.24902836666472
  H   1.60101047937092     -1.57233019627737     -0.72943240778312
  N   0.79174503226736      1.53311555487676     -0.52100939636103
  H   1.41872389092880      1.73849710146501     -1.28806985793803
  H   1.22324133651206      1.81840418706679      0.34960785603975
