16
Coordinates from ORCA-job run
  C   -0.55519650101775     -0.14666760882685      0.40451640198157
  C   0.53371818708418      0.07582372746230     -0.66418468518656
  Cl  0.13778977118787      0.54364440578812      2.00691310570128
  H   0.10085410635461     -0.37560052386768     -1.56460062587308
  N   -1.74041627395037      0.49522154906422      0.00344973844138
  H   -1.53794114147643      1.42170250252502     -0.35212793501260
  H   -2.44119013630745      0.51635110827153      0.73240529631933
  N   -0.73814074706898     -1.56402478189578      0.63986460097878
  H   -1.57243681416398     -1.85444702467938      0.14407072525462
  H   -0.84620626077635     -1.77009972974330      1.62266691760560
  N   1.79389861986919     -0.59246672824874     -0.41715278994726
  H   1.60295513478658     -1.57656642107956     -0.25943422445672
  H   2.19969861449917     -0.22966859619361      0.43914512714746
  N   0.66533667800977      1.49980633915122     -0.90726917936725
  H   1.26427996592176      1.62948106324108     -1.71384805114108
  H   1.13199679704819      1.92851071903142     -0.11441442244547
