16
Coordinates from ORCA-job run
  C   -0.58641646255034     -0.05853019135579      0.38214467804356
  C   0.56791684105397     -0.01974052394944     -0.63934985352705
  Cl  0.12030769524405      0.59467581481545      1.99356148878252
  H   0.09824704501377     -0.37014331520842     -1.56594197105829
  N   -1.61818731888180      0.88408911282687      0.00158375526084
  H   -2.36606521385453      0.36172853620387     -0.43902415321143
  H   -1.98539117162469      1.38044353595663      0.80092780746281
  N   -1.06681282328009     -1.37564433352151      0.49327743681506
  H   -0.29568587602830     -2.02972177242667      0.55111354092405
  H   -1.71794964476738     -1.49245322588017      1.25832060730460
  N   1.56477672755204     -1.00077167055189     -0.25473975258892
  H   2.23837447282802     -1.07979215855838     -1.00716160732409
  H   2.06417696395134     -0.66179402761808      0.56127341278171
  N   1.11558952568449      1.29272510125028     -0.90996703638709
  H   1.51835460915420      1.66645757468147     -0.05693839355197
  H   0.34976463050525      1.90647154333578     -1.16807995972632
