16
Coordinates from ORCA-job run
  C   -0.72146687215574     -0.16599762632593      0.30798693125482
  C   0.52640684628656      0.10319540051574     -0.53849744066009
  Cl  -0.32860356780110      0.60262444267185      2.05946406568244
  H   0.20857574836927     -0.17846384479225     -1.55025873027073
  N   -1.83326000287486      0.48332620216425     -0.24988185765008
  H   -2.64127429371107      0.44772769624013      0.35794202141011
  H   -1.58710483288883      1.44762459734515     -0.43745392968753
  N   -0.90817647462424     -1.55239549641222      0.46162494197003
  H   -0.14457957794929     -1.92545958882954      1.01209234252963
  H   -1.78781359351347     -1.76558632703765      0.91446392311768
  N   1.62135309082429     -0.74502222020327     -0.06525586062118
  H   2.49951506444428     -0.25156902792943     -0.14612736020543
  H   1.67832407734437     -1.58596642540678     -0.62592025794081
  N   0.79807734117573      1.51884016990933     -0.55639884459500
  H   1.46129498336489      1.74872270259794     -1.28467416392155
  H   1.15773206370921      1.81839934549269      0.34189421958770
