16
Coordinates from ORCA-job run
  C   -0.71359939255557     -0.18796844382513      0.31370786394221
  C   0.55907723727600      0.01220480998494     -0.51479189904182
  Cl  -0.21859068928129      0.29712172923672      2.13924520021319
  H   0.29944981543053     -0.43129579740348     -1.48427878397737
  N   -1.71701426989771      0.69565109664211     -0.12550838119187
  H   -2.60561837058925      0.50757694268721      0.32090583558501
  H   -1.42891179559947      1.64444201330878      0.07958892117501
  N   -1.10741884807804     -1.53424792038863      0.27712661349236
  H   -1.85757070821673     -1.73072262570169      0.92695117088157
  H   -0.30569631844599     -2.11418402726534      0.49290166649998
  N   1.62534595661817     -0.78082176598544      0.04410006444824
  H   2.39758338326799     -0.85399835643183     -0.60503971667238
  H   1.94630627186951     -0.37368589915508      0.91429639808447
  N   0.83348785094536      1.44470374319125     -0.63723068725495
  H   0.46119328074808      1.79772159585923     -1.50989734937653
  H   1.83097659650842      1.60650290524638     -0.63107691680712
