16
Coordinates from ORCA-job run
  C   -0.58155141208430     -0.14874611799010      0.51434574009883
  C   0.79789430143997      0.17835415734460     -0.08087011590502
  Cl  -0.59750409092153      0.78575263774453      2.16097855000202
  H   1.52401258384740     -0.03120038867307      0.72173041298595
  N   -1.60518439401889      0.25076992632484     -0.34805981462482
  H   -1.35550126190590      1.10498042982053     -0.83120671124703
  H   -2.50641326864176      0.30904823448932      0.10431970005700
  N   -0.65011181392537     -1.55326867963838      0.85155567505488
  H   -0.90144526078477     -1.70847162938400      1.81612304445406
  H   -1.32908814283118     -1.98779686610461      0.24032561059307
  N   0.81287161487902      1.56735816859300     -0.51618304222426
  H   0.81311105873987      2.16588595906638      0.30158747466322
  H   1.66263031504767      1.76033599993356     -1.03271198040557
  N   0.98278937242990     -0.67547484117122     -1.24039829703396
  H   1.11999609983242     -1.62332933966876     -0.91245920364683
  H   1.81349429889747     -0.39319765068662     -1.74707704282152
