16
Coordinates from ORCA-job run
  C   -0.54414118097770     -0.06672967545261      0.74976429746393
  C   0.77464725205216      0.13222468275567     -0.02446556814544
  Cl  -0.48964281573172      1.05792676669050      2.18142486651883
  H   1.58490480510083     -0.14894057853346      0.66061483410666
  N   -1.73126879877864      0.27966163739912      0.00762880924896
  H   -1.85839876232893     -0.41688709826041     -0.71842071235368
  H   -1.61304939392426      1.18828464847330     -0.42840412521323
  N   -0.56912742511497     -1.40578777313595      1.23896314430635
  H   -1.49205870510533     -1.61477981268263      1.60018235640137
  H   -0.34321103136959     -2.02051539572819      0.46471752061837
  N   0.85366080055224      1.50044777618985     -0.52132561916994
  H   1.72693179567469      1.61936077780648     -1.02139098127433
  H   0.85371950313640      2.15363037640124      0.25366821064327
  N   0.77041614008710     -0.81116356921572     -1.13342589536676
  H   0.36436814230091     -0.35333130622825     -1.94178474161650
  H   1.71224967442681     -1.09440145647892     -1.36874639616784
