16
Coordinates from ORCA-job run
  C   -0.40135632322024      0.03119715275242      0.68335086277507
  C   0.89451654029198      0.10003433457239     -0.14489493168080
  Cl  -0.17284494363064      0.98553328727208      2.18624174621071
  H   1.70800841892172     -0.22961791440507      0.51086518869943
  N   -1.45222926868252      0.66474805276171     -0.07838476886080
  H   -1.53825957323027      0.14642437886257     -0.94771420430551
  H   -2.33052121109883      0.63486228627307      0.42524615071932
  N   -0.59602821539144     -1.34965377550003      1.09927282162242
  H   -1.29599456074861     -1.39955020437190      1.83108046201783
  H   -0.94595281688275     -1.86038308912851      0.29516344865416
  N   1.20794911441609      1.41450006860010     -0.65685599544294
  H   0.33617773882985      1.87874124520832     -0.89153931593979
  H   1.65430871695077      1.96152863199200      0.06719484979414
  N   0.67885949404588     -0.79766877714490     -1.28593889154559
  H   0.99816530573028     -1.73044642138939     -1.05362532509743
  H   1.25520158369873     -0.44924925635485     -2.04246209762023
