16
Coordinates from ORCA-job run
  C   -0.51231142356042     -0.11678772647772      0.72620440210066
  C   0.65116409069968      0.38561622874262     -0.15450934536981
  Cl  0.02852751951467      0.05551684807685      2.46006091653265
  H   0.92056063370475      1.37521167860384      0.24057918163595
  N   -1.71193019760539      0.68063488201149      0.61487999383586
  H   -1.90977038940341      0.75401070186445     -0.37936763969711
  H   -1.56341590452490      1.61179654374788      0.98800539386636
  N   -0.75965590615392     -1.49094649698423      0.44933226890163
  H   -0.65136282929717     -1.66806535206739     -0.54169322382402
  H   -1.70160218997930     -1.72025128961687      0.74099047563736
  N   0.14469180425894      0.52677404151928     -1.52348547342849
  H   0.25859709227527      1.47085759685402     -1.86593072649404
  H   0.68283637003211     -0.09760391907191     -2.11098013299217
  N   1.75043248687771     -0.56166091822375     -0.14388277730106
  H   1.73355358191518     -1.12575902577950      0.69545910706800
  H   2.63868526124618     -0.08034379319905     -0.19366242047177
