16
Coordinates from ORCA-job run
  C   -0.58565171414938      0.08693390679287      0.67286034198649
  C   0.76635029946299      0.06538666009476     -0.07104710577614
  Cl  -0.33001334555099      1.05247975970185      2.19969446983183
  H   1.51014489211441     -0.26330155750407      0.66834607845795
  N   -1.56179456416393      0.73816868789380     -0.13277956064234
  H   -1.42715069762912      0.49121070808612     -1.10543984575031
  H   -2.48362448161472      0.45218483382679      0.17270654065232
  N   -1.02933176813461     -1.21660058728671      1.11016386578293
  H   -0.98409605695716     -1.81826059651436      0.29223468118231
  H   -0.41218928285565     -1.58837155645461      1.82377942909992
  N   1.05692289967910      1.36513520124910     -0.64730920288510
  H   0.57377463269315      2.09897298634453     -0.14626154554625
  H   2.05023376666194      1.55442442410202     -0.62180196534958
  N   0.66914529836277     -0.93061793004917     -1.14295574905100
  H   1.37993537046369     -1.64349039453367     -1.05277812113376
  H   0.80734475161751     -0.44525454574925     -2.02041231085926
