12

C	-0.073876	-0.027718	-1.52252
C	0.0	0.0	0.0
Br	-1.874988	0.438378	-2.225428
H	1.09579	0.0	0.0
H	0.085853	-1.048585	-1.87231
H	-0.353879	0.957738	0.389536
N	0.925147	0.830845	-2.121241
H	0.69562	1.788752	-1.879293
H	1.77904	0.605543	-1.575022
C	-0.63454	-1.111852	0.667092
N	-1.142677	-2.021566	1.21213
F	2.625627	0.0	0.0
