12

C	-0.160984	-0.350815	-1.485361
C	0.0	0.0	0.0
Br	-0.891442	1.541578	-2.450811
H	1.09388	0.0	0.0
H	-1.05452	-0.893094	-1.795051
H	-0.426266	0.96199	0.273947
N	1.021454	-0.816261	-1.945553
H	1.12083	-1.043798	-2.918379
H	1.870559	-0.506933	-1.40361
C	-0.549806	-1.057471	0.824333
N	-0.998132	-1.939082	1.463562
F	2.653826	0.0	0.0
