12

C	-0.091254	0.062618	-1.515083
C	0.0	0.0	0.0
Br	-1.9302	0.48987	-2.222203
H	1.098184	0.0	0.0
H	0.048687	-0.95131	-1.906875
H	-0.425931	-0.91817	0.404944
N	0.855854	1.030091	-1.967781
H	1.056838	0.903824	-2.951915
H	1.712402	0.857265	-1.407783
C	-0.522432	1.164281	0.684
N	-0.94783	2.08227	1.281302
F	2.6348	0.0	0.0
