12

C	-0.462405	-0.098002	-1.44155
C	0.0	0.0	0.0
Br	0.087394	-1.843675	-2.177364
H	1.091207	0.0	0.0
H	0.122696	0.609155	-2.039492
H	-0.381062	-0.846286	0.578687
N	-1.896398	0.004603	-1.594023
H	-2.134856	0.144641	-2.568748
H	-2.216718	0.808458	-1.064395
C	-0.49431	1.241177	0.566297
N	-0.91072	2.259979	0.983424
F	2.561537	0.0	0.0
