12

C	-0.329875	-0.025497	-1.455244
C	0.0	0.0	0.0
Br	-2.311793	-0.945228	-1.728748
H	1.09463	0.0	0.0
H	0.240661	-0.787547	-1.976548
H	-0.311596	-0.927129	0.481947
N	-0.280324	1.193865	-2.092671
H	-0.479177	1.156472	-3.079613
H	-0.799318	1.923146	-1.624129
C	-0.579482	1.139182	0.673118
N	-1.042907	2.098531	1.17239
F	2.524784	0.0	0.0
