12

C	-0.024724	-0.018067	-1.52404
C	0.0	0.0	0.0
Br	-1.836005	0.129653	-2.319909
H	1.097426	0.0	0.0
H	0.327832	-1.001239	-1.83962
H	-0.429576	-0.893658	0.455328
N	0.855973	0.973899	-2.101821
H	0.529971	1.890847	-1.804479
H	1.738113	0.798826	-1.591336
C	-0.545389	1.210095	0.57225
N	-0.982077	2.195507	1.041575
F	2.609293	0.0	0.0
