15
Coordinates from ORCA-job run
  C   -1.05070924183076     -0.22243566463952      0.09300161035096
  C   0.44582002669222     -0.02696667036906      0.33983658619495
  Br  -1.36288611940742     -1.20841856603205     -1.56024846304471
  H   0.52741879696354      0.48889869800972      1.30432101438982
  H   -1.45181967861431     -0.87577915855733      0.87258136688117
  N   -1.68179159841537      1.07576953499202     -0.01447985801985
  H   -1.65724359290242      1.52763345987269      0.89498170951512
  H   -2.65283177075132      0.96639468471286     -0.28105342485746
  C   1.19587262520435      0.71741874861562     -0.73735064758191
  H   2.22498912258192      0.89922911165632     -0.42574288296437
  H   0.69453249888420      1.66933465252505     -0.91186250645816
  H   1.21329765414389      0.14933777877314     -1.66492550032773
  N   1.04403280363937     -1.38144219502531      0.61998244951351
  O   1.91968099793622     -1.80417828982149     -0.12764695011799
  O   0.58963747587590     -1.97379612471268      1.59760549652665
