15
Coordinates from ORCA-job run
  C   -0.99941176825509      0.37812036938493     -0.04181817997091
  C   0.37577404788545     -0.10577668852525      0.39984573043666
  Br  -1.64440727661850      1.63229056013556      1.30654033523041
  H   0.28851730855599     -0.57061337959483      1.38248622452364
  H   -0.91642412937424      0.96701792574278     -0.96057195696051
  N   -1.92043926645302     -0.73836825185149     -0.10481392502233
  H   -1.77365890617916     -1.22122037636944     -0.98503158354835
  H   -2.87555599796513     -0.40380854308456     -0.09063115900731
  C   1.47713177251908      0.93946899993625      0.34795369619752
  H   1.26617573276101      1.74421246113163      1.05120313411172
  H   2.43224205819249      0.48506006666935      0.61706232583386
  H   1.55525286429820      1.35773080616957     -0.65824970372420
  N   0.79201205742025     -1.22089702171401     -0.51998052925122
  O   0.48090300305282     -1.11619741314884     -1.70801921615390
  O   1.46088850015985     -2.12601951488163     -0.03497519269508
