15
Coordinates from ORCA-job run
  C   -1.07925329273755      0.04024099224316      0.45276078101118
  C   0.43989486164986     -0.12361959860781      0.53220474506510
  Br  -1.94709792735736     -1.29571491824532      1.67839335622616
  H   0.71727405741333     -0.32766166948193      1.56511772759178
  H   -1.32177667531351      0.98001320094762      0.95625727814668
  N   -1.58427995990770     -0.06690674266514     -0.85455055629500
  H   -0.90907028693246     -0.13000971600699     -1.59888079177166
  H   -2.38217868125278      0.50883434920255     -1.06080245541344
  C   1.16396623516645      1.10401583517093     -0.00036823389499
  H   2.22631993700904      0.89619914717857     -0.13754468449455
  H   0.75597900753230      1.43164156358975     -0.95525693679629
  H   1.06431207596906      1.91451901726326      0.72482011547973
  N   0.85864173261162     -1.33936723064570     -0.23583063362113
  O   0.93741476710240     -1.21942096800473     -1.46096103886555
  O   1.05785414904728     -2.37176326193821      0.39464132763199
