15
Coordinates from ORCA-job run
  C   -1.05271376288593      0.37422540294757     -0.07015690075998
  C   0.36034151560090     -0.01817417409033      0.37952483354594
  Br  -1.68992371669980      1.74363670288870      1.19777654060382
  H   0.32476059337165     -0.42699754706179      1.39122963494057
  H   -0.99888687420018      0.87476120056759     -1.03739033300197
  N   -1.99635284052707     -0.68874799381354     -0.14875416775486
  H   -1.92511382806063     -1.34106662858858      0.62055663611232
  H   -1.94740035767556     -1.17031723351358     -1.03557757603527
  C   1.41405715159762      1.06331112540640      0.23816538928328
  H   1.42067280148016      1.45369968612872     -0.78058680430550
  H   1.20701538623941      1.87652758156930      0.93219592644734
  H   2.40283550166553      0.65841808856080      0.46448253528981
  N   0.74250911179122     -1.17719484045253     -0.49406151996043
  O   0.93308434073684     -2.26479009009312      0.04535473779475
  O   0.80611497756585     -0.95629128045562     -1.70275893219983
