15
Coordinates from ORCA-job run
  C   -1.04914997583280      0.18244977872941      0.42439553010590
  C   0.44012740137721     -0.11890039578839      0.53551423878131
  Br  -2.03025869776035     -1.37138893563509      1.29116430312054
  H   0.68856231831129     -0.27546988166489      1.58501069638489
  H   -1.27264015892354      0.99505050359222      1.11649960973730
  N   -1.48396921319531      0.51580269451840     -0.86760430757908
  H   -2.45448958063729      0.79613253999072     -0.88308961588904
  H   -1.31580104994198     -0.23127501264924     -1.52813239326002
  C   1.29712275278385      0.97337289488680     -0.08566118018554
  H   1.06948395143528      1.93016722570586      0.38847999485713
  H   1.09059965560460      1.06036175494077     -1.15091356283407
  H   2.35484075417166      0.75077878389856      0.07076585219850
  N   0.78917176404093     -1.41857666872681     -0.12572436442708
  O   1.48465054981676     -2.20324052961315      0.50997797737703
  O   0.39374952874968     -1.58626475218517     -1.27968277838776
