15
Coordinates from ORCA-job run
  C   -0.99868738957708      0.16214439788697      0.53874964157533
  C   0.50621173546063     -0.06976101012086      0.48337981398611
  Br  -1.79488194440966     -1.37752941065343      1.59610609609709
  H   0.88503326098766     -0.15644338813223      1.50154595882150
  H   -1.17653576891188      1.00359979042790      1.20934571234015
  N   -1.59912534077050      0.40348876366229     -0.70689206150411
  H   -2.57713626727402      0.64109132879824     -0.61889869360312
  H   -1.47421366423912     -0.37182566278827     -1.34405638080392
  C   1.22943117145873      1.02036784077739     -0.29215248817815
  H   0.89019400925424      1.04121656689998     -1.32624936283879
  H   1.01772869548428      1.99148309025993      0.15974531521021
  H   2.30748852844625      0.84892810719845     -0.25801261527858
  N   0.83496145352891     -1.38945901479601     -0.14795182627519
  O   0.31868056653590     -1.63513094283854     -1.23853579318465
  O   1.63085095402565     -2.11217045658184      0.44187668363612
