12

C	-0.26995	0.051883	-1.49283
C	0.0	0.0	0.0
F	-1.590837	0.353127	-1.805554
H	1.097476	0.0	0.0
H	0.363867	0.843639	-1.905986
C	0.070346	-1.221198	-2.144322
N	0.295642	-2.230434	-2.699293
C	-0.53119	-1.176454	0.65553
N	-0.899083	-2.152439	1.20043
C	-0.446706	1.224024	0.636678
N	-0.735052	2.243416	1.147853
H	2.464645	0.0	0.0
