12

C	-0.288359	0.01742	-1.502397
C	0.0	0.0	0.0
F	0.002417	1.27023	-2.001362
H	1.096759	0.0	0.0
H	0.398237	-0.700006	-1.96831
C	-1.682291	-0.305256	-1.853333
N	-2.785495	-0.570369	-2.157657
C	-0.459036	-1.243072	0.587585
N	-0.801085	-2.274997	1.039085
C	-0.544126	1.156481	0.679861
N	-0.928417	2.113049	1.246777
H	2.473173	0.0	0.0
