12

C	-0.266825	0.06045	-1.493443
C	0.0	0.0	0.0
F	-1.586408	0.362451	-1.808752
H	1.0975	0.0	0.0
H	0.368085	0.854567	-1.899951
C	0.07709	-1.21095	-2.146885
N	0.311111	-2.237124	-2.666349
C	-0.534897	-1.177361	0.649393
N	-0.912428	-2.152126	1.18977
C	-0.449094	1.221926	0.639848
N	-0.792464	2.232888	1.132695
H	2.468687	0.0	0.0
