12

C	-0.426892	0.01843	-1.47083
C	0.0	0.0	0.0
F	-0.002386	-1.142534	-2.082094
H	1.096592	0.0	0.0
H	-1.517441	0.05349	-1.570067
C	0.134686	1.183641	-2.179818
N	0.481705	2.121808	-2.795095
C	-0.503421	-1.197543	0.64575
N	-0.866855	-2.188373	1.165848
C	-0.486051	1.193152	0.667457
N	-0.880904	2.162826	1.204407
H	2.483549	0.0	0.0
