15

C	-0.423939	0.012107	-1.467749
C	0.0	0.0	0.0
F	0.063858	1.134975	-2.030357
H	1.093764	0.0	0.0
C	-0.038467	-1.149804	-2.270274
N	0.254245	-1.984658	-3.043731
N	-1.965699	0.105244	-1.54252
O	-2.448128	1.09431	-2.068731
O	-2.553742	-0.842377	-1.037161
N	-0.410231	-1.253591	0.716124
O	-0.102088	-2.302096	0.164217
O	-0.950898	-1.135435	1.809611
C	-0.526406	1.178562	0.664866
N	-0.928291	2.149889	1.190194
Br	3.225764	0.0	0.0
