16

C	0.0	0.0	0.0
C	-0.420729	-0.051891	-1.477406
F	1.399557	0.0	0.0
H	-0.153509	-1.003385	-1.932295
H	-1.497568	0.133719	-1.530999
N	-0.453283	1.136385	0.736218
H	-1.460378	1.023843	0.857698
H	-0.313513	1.972207	0.179536
C	-0.448467	-1.275164	0.683964
H	-1.533433	-1.373479	0.622797
H	-0.14593	-1.215153	1.730827
H	0.038141	-2.13488	0.217569
N	0.291598	0.9789	-2.27387
O	0.103658	2.162129	-1.985034
O	1.04048	0.596389	-3.173512
Br	-3.818939	0.0	0.0
