16

C	0.0	0.0	0.0
C	-0.488561	-0.047216	-1.438208
F	1.420722	0.0	0.0
H	-0.281285	-1.01531	-1.887596
H	-1.564061	0.171092	-1.430785
N	-0.472558	1.154385	0.661314
H	-0.121968	1.200905	1.606707
H	-0.267471	1.998899	0.148613
C	-0.45616	-1.245936	0.725492
H	-0.143279	-1.185128	1.771764
H	-0.002425	-2.134154	0.279873
H	-1.546799	-1.294741	0.679964
N	0.213846	0.943474	-2.297128
O	0.815302	0.520143	-3.283684
O	0.152741	2.131846	-1.98016
Br	-4.025865	0.0	0.0
