16

C	0.0	0.0	0.0
C	-0.450383	-0.033007	-1.456826
F	1.413903	0.0	0.0
H	-1.520761	-0.25801	-1.479177
H	-0.236265	0.921672	-1.934321
N	-0.478436	1.222112	0.532561
H	0.085816	2.002845	0.228207
H	-0.571447	1.203248	1.536579
C	-0.459541	-1.180445	0.819091
H	-0.058377	-2.102417	0.400507
H	-1.55155	-1.208968	0.822305
H	-0.079932	-1.062835	1.838648
N	0.300874	-1.050404	-2.23582
O	1.160238	-0.64802	-3.022502
O	0.034052	-2.235978	-2.039944
Br	-3.966206	0.0	0.0
