16

C	0.0	0.0	0.0
C	-0.422174	-0.359799	-1.432794
F	1.39942	0.0	0.0
H	-1.499755	-0.192027	-1.521474
H	-0.153257	-1.385181	-1.67744
N	-0.451591	1.266213	0.481597
H	-0.32279	1.963674	-0.243211
H	-1.455856	1.183862	0.641956
C	-0.454101	-1.101315	0.934085
H	0.026706	-2.043108	0.66228
H	-0.154251	-0.82432	1.946263
H	-1.539999	-1.199482	0.889138
N	0.285576	0.482208	-2.429309
O	0.0994	1.699836	-2.391502
O	1.029073	-0.07924	-3.234859
Br	-3.822745	0.0	0.0
