16

C	0.0	0.0	0.0
C	-0.458306	0.00591	-1.454602
F	1.414011	0.0	0.0
H	-1.527329	-0.229085	-1.470358
H	-0.259706	0.974107	-1.9103
N	-0.476048	1.21036	0.566081
H	-0.597953	1.159337	1.566156
H	0.099316	1.997443	0.300087
C	-0.477054	-1.195357	0.786152
H	-0.093574	-1.118979	1.808531
H	-0.099886	-2.113584	0.337712
H	-1.569986	-1.202631	0.790786
N	0.294506	-0.983686	-2.269027
O	1.120865	-0.551081	-3.075809
O	0.058353	-2.179078	-2.083214
Br	-4.000849	0.0	0.0
