16

C	0.0	0.0	0.0
C	-0.475207	0.077845	-1.449278
F	1.385111	0.0	0.0
H	-0.236694	1.062424	-1.843262
H	-1.548601	-0.128396	-1.484557
N	-0.465136	1.214376	0.622533
H	-1.480829	1.23603	0.498425
H	-0.310659	1.131014	1.623041
C	-0.416933	-1.270115	0.720263
H	-0.033153	-1.218451	1.744211
H	-1.505766	-1.326758	0.74007
H	-0.006327	-2.154357	0.233744
N	0.232813	-0.897481	-2.314087
O	-0.046071	-2.089733	-2.188453
O	1.061154	-0.455539	-3.112612
Br	-3.828058	0.0	0.0
