16

C	0.0	0.0	0.0
C	-0.469888	0.026535	-1.451724
F	1.379245	0.0	0.0
H	-1.560754	0.070401	-1.479459
H	-0.074722	-0.841142	-1.978109
N	-0.44628	1.194843	0.657223
H	-0.262173	1.103912	1.650917
H	-1.459918	1.248056	0.542886
C	-0.430298	-1.303056	0.654201
H	-0.042058	-1.317027	1.677486
H	-1.519883	-1.356832	0.6759
H	-0.016315	-2.162523	0.11878
N	0.07429	1.217552	-2.155018
O	-0.613165	2.234848	-2.182067
O	1.192836	1.106562	-2.662515
Br	-3.837774	0.0	0.0
