16

C	0.0	0.0	0.0
C	-0.493267	-0.071221	-1.436234
F	1.419663	0.0	0.0
H	-0.323961	-1.057634	-1.860001
H	-1.560885	0.180915	-1.429709
N	-0.459084	1.178656	0.634545
H	-0.236775	2.003267	0.095617
H	-0.086164	1.247511	1.570625
C	-0.468407	-1.221293	0.754777
H	-1.560711	-1.247403	0.717547
H	-0.146288	-1.148488	1.797217
H	-0.039911	-2.127092	0.318987
N	0.239693	0.871753	-2.319033
O	0.852408	0.40115	-3.277143
O	0.193682	2.071937	-2.046318
Br	-4.001549	0.0	0.0
