13

C	-0.367661	-0.06254	-1.456748
C	0.0	0.0	0.0
F	-1.752706	-0.261066	-1.603126
H	1.093515	0.0	0.0
H	-0.135742	0.895264	-1.928968
H	-0.330316	-0.938221	0.477714
N	0.309702	-1.116924	-2.175357
H	1.306229	-0.910533	-2.090656
H	0.174553	-1.976043	-1.650932
N	-0.50011	1.210071	0.652745
H	-1.376575	1.025083	1.121134
H	0.179015	1.488287	1.349564
H	3.048861	0.0	0.0
