16

C	0.0	0.0	0.0
C	-0.238204	0.207728	-1.536076
F	1.386893	0.0	0.0
H	0.538545	-0.406445	-1.999786
C	-0.538952	1.07659	0.900954
H	-0.235798	0.859442	1.927045
H	-1.632555	1.06661	0.830046
H	-0.137671	2.04533	0.599228
C	-0.409812	-1.34703	0.431129
N	-0.533592	-2.427382	0.875523
C	0.003224	1.597893	-1.905178
N	0.280244	2.702931	-2.189582
N	-1.498439	-0.311437	-2.205236
O	-2.168773	0.484068	-2.842935
O	-1.634689	-1.524108	-2.13938
Br	-3.807331	0.0	0.0
