16

C	0.0	0.0	0.0
C	-0.54576	-0.124772	-1.432449
F	1.378614	0.0	0.0
H	-1.651375	-0.149192	-1.345428
C	-0.47884	1.261501	0.685966
H	-1.567002	1.323104	0.618182
H	-0.17117	1.228245	1.73335
H	-0.01179	2.125155	0.20881
C	-0.405967	-1.219522	0.730284
N	-0.588645	-2.235849	1.291227
C	-0.007969	-1.290095	-2.122255
N	0.396101	-2.236973	-2.686557
N	-0.165503	1.114492	-2.200221
O	-0.994774	2.018524	-2.225764
O	0.954251	1.142405	-2.70791
Br	-3.71461	0.0	0.0
