16

C	0.0	0.0	0.0
C	-0.291027	-0.133218	-1.524321
F	1.384826	0.0	0.0
H	-0.034811	0.830678	-1.970203
C	-0.510699	1.293718	0.582578
H	-0.099557	2.128448	0.009238
H	-1.603401	1.290909	0.543304
H	-0.176533	1.368387	1.619406
C	-0.421091	-1.17523	0.780009
N	-0.553919	-2.09828	1.494401
C	-1.552624	-0.610101	-2.089006
N	-2.259248	-1.067711	-2.914443
N	0.754411	-1.090147	-2.088395
O	1.558339	-0.618499	-2.885869
O	0.702095	-2.250598	-1.704528
Br	-3.681375	0.0	0.0
