13

C	-0.313897	0.066818	-1.497797
C	0.0	0.0	0.0
F	-1.681325	0.188775	-1.710768
H	1.096081	0.0	0.0
H	-0.033455	-0.896269	-1.94546
N	0.348448	1.210038	-2.037271
H	1.307035	1.236698	-1.695351
H	0.370732	1.156051	-3.047149
C	-0.514381	-1.226624	0.599412
N	-0.938899	-2.222853	1.053137
C	-0.50098	1.177956	0.704224
N	-0.918302	2.116797	1.271693
Br	3.35544	0.0	0.0
