13

C	-0.426562	-0.080253	-1.470916
C	0.0	0.0	0.0
F	-1.789537	-0.461814	-1.521826
H	1.095498	0.0	0.0
H	0.133659	-0.887129	-1.946647
N	-0.181951	1.135636	-2.134175
H	-0.346235	1.055183	-3.127054
H	-0.731168	1.892401	-1.747525
C	-0.46455	-1.17521	0.737517
N	-0.82738	-2.126594	1.32124
C	-0.506936	1.222551	0.619783
N	-0.905226	2.232234	1.068148
Br	3.364546	0.0	0.0
