13

C	-0.346527	-0.091713	-1.498867
C	0.0	0.0	0.0
F	-0.125997	1.190432	-2.037292
H	1.097628	0.0	0.0
H	-1.407029	-0.296225	-1.672007
N	0.462101	-1.092895	-2.064006
H	1.443762	-0.932844	-1.841856
H	0.329167	-1.161206	-3.063582
C	-0.485094	-1.187408	0.699911
N	-0.908737	-2.128631	1.259505
C	-0.531676	1.210416	0.617519
N	-0.98818	2.169377	1.117219
Br	3.385539	0.0	0.0
