13

C	-0.431199	-0.017399	-1.474981
C	0.0	0.0	0.0
F	-0.073229	-1.234832	-2.010878
H	1.096037	0.0	0.0
H	0.168656	0.734932	-2.003834
N	-1.854711	0.112927	-1.61311
H	-2.094674	0.232527	-2.58967
H	-2.192401	0.915188	-1.0968
C	-0.519134	-1.162574	0.717204
N	-0.931045	-2.096588	1.296397
C	-0.461188	1.23839	0.624526
N	-0.856079	2.255922	1.059016
Br	3.36542	0.0	0.0
