13

C	-0.439508	-0.049783	-1.467367
C	0.0	0.0	0.0
F	-1.816106	-0.389542	-1.504187
H	1.095403	0.0	0.0
H	0.088172	-0.869139	-1.960425
N	-0.166081	1.16569	-2.118826
H	-0.352822	1.105439	-3.109264
H	-0.678404	1.938034	-1.710555
C	-0.466503	-1.186833	0.717431
N	-0.828771	-2.148736	1.283883
C	-0.500664	1.213354	0.643363
N	-0.893402	2.218068	1.107405
Br	3.377318	0.0	0.0
