13

C	-0.307522	0.046125	-1.500273
C	0.0	0.0	0.0
F	-1.670466	0.20074	-1.720676
H	1.097053	0.0	0.0
H	-0.052746	-0.932	-1.929837
N	0.387035	1.161254	-2.057458
H	1.346868	1.16528	-1.716493
H	0.405961	1.089937	-3.066836
C	-0.51877	-1.214957	0.618017
N	-0.931693	-2.205675	1.093733
C	-0.497783	1.190889	0.684296
N	-0.910012	2.128548	1.257379
Br	3.357601	0.0	0.0
