12
Coordinates from ORCA-job run
  C   -0.66524026216380      1.00558651833179     -0.29544643066188
  C   0.01726895236775     -0.34669942484721     -0.28361320797879
  F   -0.06831953312587      1.82697646978699     -1.23340808554804
  H   0.00284814067921     -0.80009594334986     -1.27409802941675
  H   -1.71763334009907      0.87591758695758     -0.55974946136267
  H   -0.57537187357985      1.47405984050635      0.68722994272355
  N   -0.48630415779673     -1.26468479338581      0.69627817137315
  H   -0.71126163370318     -0.80371034174205      1.56752381150124
  H   -1.28245250888661     -1.78073895614659      0.35289120798454
  N   1.47513440665253     -0.11697239810012      0.02715129921167
  O   2.30479934715206     -0.45277493347109     -0.80979011491942
  O   1.70653246250357      0.38513637546002      1.12403089709339
