13

C	-0.270472	-0.108349	-1.503987
C	0.0	0.0	0.0
Cl	-2.028478	-0.266724	-1.865847
H	1.098483	0.0	0.0
H	0.016144	0.84937	-1.953498
N	0.434665	-1.260621	-1.985141
H	0.435272	-1.270532	-2.996735
H	1.399089	-1.198365	-1.659041
C	-0.49401	-1.159049	0.736752
N	-0.884549	-2.079799	1.351426
C	-0.509031	1.245211	0.561385
N	-0.910389	2.257525	1.001231
Cl	3.184482	0.0	0.0
