13

C	-0.445614	0.021759	-1.471002
C	0.0	0.0	0.0
Cl	0.020774	1.572271	-2.210059
H	1.09598	0.0	0.0
H	0.15614	-0.734929	-1.987573
N	-1.878909	-0.131081	-1.586273
H	-2.141613	-0.122372	-2.564709
H	-2.147835	-1.027594	-1.194047
C	-0.446814	-1.262537	0.59153
N	-0.826438	-2.298645	0.995309
C	-0.532865	1.127402	0.760506
N	-0.948858	2.032834	1.381098
Cl	3.186778	0.0	0.0
