13

C	-0.486464	-0.030105	-1.455219
C	0.0	0.0	0.0
Cl	0.241476	1.402454	-2.312513
H	1.094891	0.0	0.0
H	-0.047419	-0.902822	-1.938932
N	-1.907455	-0.081918	-1.530935
H	-2.310829	0.76052	-1.135616
H	-2.208714	-0.157651	-2.492598
C	-0.458968	-1.21112	0.684286
N	-0.806669	-2.195993	1.220728
C	-0.514646	1.183971	0.686849
N	-0.964237	2.138273	1.20342
Cl	3.201497	0.0	0.0
