13

C	-0.3432	0.099477	-1.501508
C	0.0	0.0	0.0
Cl	-0.091001	-1.562669	-2.258283
H	1.097443	0.0	0.0
H	-1.402936	0.296246	-1.670225
N	0.465732	1.120437	-2.037355
H	0.346875	1.220349	-3.035217
H	1.445956	0.96175	-1.807131
C	-0.543039	-1.177526	0.665946
N	-0.999323	-2.101385	1.22909
C	-0.473416	1.210541	0.67258
N	-0.887117	2.167517	1.213187
Cl	3.202926	0.0	0.0
