13

C	-0.444582	-0.023275	-1.471173
C	0.0	0.0	0.0
Cl	0.023965	1.503152	-2.259392
H	1.097024	0.0	0.0
H	0.155783	-0.796826	-1.9634
N	-1.877637	-0.177089	-1.581187
H	-2.147795	-1.062404	-1.164175
H	-2.14174	-0.193047	-2.559336
C	-0.448627	-1.243383	0.629069
N	-0.852186	-2.256003	1.06776
C	-0.533266	1.149482	0.725345
N	-0.950226	2.071831	1.319977
Cl	3.187899	0.0	0.0
