13

C	-0.358679	-0.071526	-1.515969
C	0.0	0.0	0.0
Cl	-0.111755	-1.751605	-2.07371
H	1.095494	0.0	0.0
H	-1.417121	0.151865	-1.667968
N	0.44303	0.819748	-2.300682
H	0.168658	1.776363	-2.107715
H	1.421485	0.706099	-2.034025
C	-0.564045	-1.062383	0.820749
N	-1.044711	-1.904101	1.484305
C	-0.445857	1.304596	0.488712
N	-0.823439	2.368314	0.815404
Cl	3.193982	0.0	0.0
