13

C	-0.564675	-0.052677	-1.434307
C	0.0	0.0	0.0
Cl	0.07068	-1.5085	-2.256558
H	1.095715	0.0	0.0
H	-1.64748	-0.227815	-1.373068
N	-0.179466	1.115964	-2.16974
H	-0.683643	1.164608	-3.045045
H	-0.348192	1.958189	-1.633399
C	-0.476235	-1.151453	0.767105
N	-0.890494	-2.068357	1.373783
C	-0.47253	1.227101	0.644641
N	-0.896214	2.227056	1.0938
Cl	3.1916	0.0	0.0
