13

C	-0.343063	0.257053	-1.483013
C	0.0	0.0	0.0
Cl	-0.095869	-1.318844	-2.409499
H	1.089373	0.0	0.0
H	-1.401858	0.473348	-1.630229
N	0.468573	1.325747	-1.908621
H	0.34897	1.5323	-2.890595
H	1.449033	1.142563	-1.696078
C	-0.547501	-1.239605	0.538506
N	-1.012336	-2.21442	0.999527
C	-0.471321	1.134872	0.794919
N	-0.879336	2.031458	1.434209
Cl	3.203454	0.0	0.0
