13

C	-0.443567	-0.000109	-1.471974
C	0.0	0.0	0.0
Cl	0.020079	1.541379	-2.232297
H	1.095779	0.0	0.0
H	0.161418	-0.762331	-1.976819
N	-1.876192	-0.158579	-1.587477
H	-2.138283	-0.156849	-2.566328
H	-2.142301	-1.053504	-1.189528
C	-0.447207	-1.254323	0.608542
N	-0.834744	-2.282541	1.024886
C	-0.534338	1.137575	0.743799
N	-0.951439	2.051222	1.351553
Cl	3.187391	0.0	0.0
