13

C	-0.475789	0.024013	-1.444307
C	0.0	0.0	0.0
Cl	0.117172	1.541423	-2.209749
H	1.092231	0.0	0.0
H	-0.363816	0.910548	0.484915
C	0.13114	-1.089166	-2.203312
N	0.498833	-2.036182	-2.794642
N	-1.920449	0.028404	-1.550455
H	-2.281782	-0.754418	-1.014228
H	-2.199219	-0.085658	-2.518834
C	-0.5469	-1.16044	0.673271
N	-1.014037	-2.105075	1.197354
F	2.518995	0.0	0.0
