13

C	-0.46384	-0.044004	-1.446476
C	0.0	0.0	0.0
Cl	0.219904	1.476675	-2.246324
H	1.091841	0.0	0.0
H	-0.334701	0.945394	0.441343
C	0.134262	-1.168383	-2.179804
N	0.533079	-2.078831	-2.804779
N	-1.882025	-0.117472	-1.587315
H	-2.314599	0.619001	-1.043252
H	-2.160355	-0.029051	-2.557477
C	-0.537985	-1.113056	0.757752
N	-0.942844	-2.012728	1.397684
F	2.519858	0.0	0.0
