13

C	-0.469439	-0.033696	-1.445335
C	0.0	0.0	0.0
Cl	0.236846	1.473976	-2.243113
H	1.091825	0.0	0.0
H	-0.331032	0.944519	0.445936
C	0.104233	-1.168237	-2.181907
N	0.489047	-2.08437	-2.807593
N	-1.890347	-0.080531	-1.579202
H	-2.169913	0.020568	-2.547236
H	-2.303495	0.664208	-1.03157
C	-0.541318	-1.11435	0.753206
N	-0.948854	-2.014628	1.390857
F	2.519418	0.0	0.0
