13

C	-0.122132	0.10761	-1.528844
C	0.0	0.0	0.0
Cl	-1.713751	-0.543637	-2.126027
H	1.093574	0.0	0.0
H	-0.324099	-1.001381	0.299101
C	-0.068496	1.511931	-1.963971
N	-0.039388	2.62786	-2.327935
N	0.955426	-0.615626	-2.179367
H	1.79236	-0.404562	-1.591488
H	0.768246	-1.60509	-2.046159
C	-0.677832	1.013737	0.770471
N	-1.234412	1.827604	1.41085
F	2.608746	0.0	0.0
