13

C	-0.103991	-0.126588	-1.528345
C	0.0	0.0	0.0
Cl	-1.723871	-0.756201	-2.119374
H	1.095702	0.0	0.0
H	-0.430498	0.927686	0.3756
C	-0.015721	1.22886	-2.114541
N	0.117459	2.295005	-2.593084
N	0.941621	-1.003989	-1.938986
H	1.111982	-0.94191	-2.934467
H	1.787614	-0.752204	-1.379083
C	-0.523878	-1.152756	0.700139
N	-0.937458	-2.067208	1.311249
F	2.620112	0.0	0.0
