17

C	0.0	0.0	0.0
C	-0.392039	0.200881	-1.498546
Cl	1.851945	0.0	0.0
H	0.536689	0.291177	-2.068654
H	-0.201664	0.930391	0.541678
N	-0.587841	-1.149793	0.59277
H	-1.610304	-0.914949	0.45496
H	-0.410273	-1.109481	1.592466
C	-1.169418	1.508921	-1.645761
H	-2.078941	1.399366	-1.046833
H	-0.570681	2.364673	-1.304125
H	-1.428354	1.681314	-2.697349
C	-1.186841	-0.966201	-2.079119
H	-0.680996	-1.919222	-1.908647
H	-2.164783	-0.967704	-1.593753
H	-1.30497	-0.81847	-3.159254
F	-2.931939	0.0	0.0
