17

C	0.0	0.0	0.0
C	-0.468887	0.013933	-1.457428
Cl	1.79884	0.0	0.0
H	-1.560285	-0.013298	-1.316827
H	-0.262433	0.96299	0.456021
N	-0.550061	-1.135907	0.673905
H	-0.334671	-1.062342	1.663935
H	-1.578208	-0.931285	0.552607
C	0.012077	-1.213901	-2.22344
H	1.08603	-1.162408	-2.433536
H	-0.179702	-2.1171	-1.643614
H	-0.513663	-1.291788	-3.181524
C	-0.07798	1.299917	-2.172865
H	-0.439021	2.176224	-1.625715
H	1.007548	1.38845	-2.286801
H	-0.523179	1.327242	-3.173291
F	-2.853258	0.0	0.0
