17

C	0.0	0.0	0.0
C	-0.408778	0.131083	-1.506378
Cl	1.796511	0.0	0.0
H	0.515853	0.18915	-2.087712
H	-0.236435	0.94733	0.497826
N	-0.591396	-1.132313	0.641144
H	-1.611564	-0.900695	0.504245
H	-0.408194	-1.053946	1.637843
C	-1.183952	1.432999	-1.710359
H	-2.100362	1.341839	-1.119156
H	-0.590893	2.298204	-1.387358
H	-1.426233	1.569485	-2.771596
C	-1.208085	-1.060587	-2.028397
H	-0.691228	-2.003095	-1.832547
H	-1.343166	-0.952212	-3.111825
H	-2.178206	-1.051733	-1.528882
F	-2.949445	0.0	0.0
