14

C	0.0	0.0	0.0
C	-0.575241	-0.040034	-1.409242
Br	1.945081	0.0	0.0
H	-0.342551	0.932717	-1.854092
H	-1.66392	-0.085869	-1.255278
C	-0.393275	1.209783	0.716989
N	-0.603992	2.240772	1.240546
N	-0.426564	-1.214138	0.829981
O	-0.886586	-2.165772	0.220087
O	-0.232992	-1.13843	2.035741
N	-0.023446	-1.124339	-2.204426
H	0.196562	-0.787564	-3.132365
H	-0.714247	-1.859837	-2.281037
Br	-3.789418	0.0	0.0
