16

C	0.0	0.0	0.0
C	-0.244946	0.092728	-1.543077
F	1.354986	0.0	0.0
H	0.189414	-0.830573	-1.921799
N	-0.39764	1.183552	0.835403
O	-0.433274	2.265099	0.26585
O	-0.486913	0.985415	2.038633
C	-0.505872	-1.249119	0.554812
N	-0.587683	-2.350596	0.963659
N	0.627465	1.160136	-2.198615
O	1.757834	0.775102	-2.498219
O	0.175216	2.274515	-2.422212
N	-1.624688	0.117444	-2.150228
O	-2.211985	1.169878	-2.306979
O	-1.980206	-0.989117	-2.550705
F	-2.201045	0.0	0.0
