14

C	-0.015165	-0.019327	0.018104
C	-0.562835	-0.017972	-1.393601
F	1.37703	0.079026	0.0293
H	-1.665601	0.028482	-1.242927
H	-0.262382	-0.926087	-1.914739
N	-0.617737	0.92027	0.808544
H	-1.672503	0.838736	0.59826
H	-0.39255	0.764041	1.782589
N	-0.156695	-1.495829	0.590565
O	-0.088958	-2.449284	-0.181374
O	-0.259413	-1.590019	1.810752
C	-0.087773	1.145594	-2.127666
N	0.28715	2.054897	-2.768845
F	-2.925726	0.37572	-0.069575
