14
Coordinates from ORCA-job run
  C   -0.43888177779097      0.43510033989360      0.08689127467281
  C   0.89223131934271      0.35101013216221      0.28431838698221
  H   1.39292825095552      1.24378032335369      0.66236324557957
  C   -1.32236795135333     -0.66517119536734     -0.42594665843640
  H   -0.76720056603760     -1.55664042214709     -0.70857095555005
  H   -2.05956305437369     -0.93304826801902      0.33577911467738
  H   -1.87708661140427     -0.32550961142941     -1.30800735385083
  N   -1.17869089447286      1.57563240951705      0.46416596398755
  H   -1.88858688589361      1.82014482817316     -0.21288802757635
  H   -0.59139179204231      2.37520745828274      0.65822379477263
  C   1.77533927025077     -0.84390407571115      0.07830570902504
  H   1.22483476362863     -1.72134581276938     -0.26083021170019
  H   2.28498480326750     -1.11848166696022      1.00759497236674
  H   2.55545112592350     -0.63677443897886     -0.66139925495012
