14
Coordinates from ORCA-job run
  C   -0.48522778610652      0.02712044725240     -0.06593766866941
  C   0.60453017039042     -0.66171306639159      0.32708428188231
  H   0.45806308647023     -1.64451177532706      0.76232719198148
  C   -1.88150110213357     -0.50307676801050      0.06746182378035
  H   -1.88322739849284     -1.48773173387647      0.53500641649685
  H   -2.35634571670235     -0.57954233621255     -0.91515786658161
  H   -2.49887321253867      0.16493947276654      0.67895993131612
  N   -0.40336287951120      1.25592864478462     -0.73926303621266
  H   0.46919879172062      1.74315840286866     -0.59497814901797
  H   -1.18855330945304      1.86414670973933     -0.55732897884222
  C   2.00727023148430     -0.14787727239822      0.15812021598883
  H   2.16227818319103      0.80550167308254      0.67891437164851
  H   2.25885315766530      0.01451384005875     -0.89618954905789
  H   2.73589778401629     -0.85185623833642      0.56198101528730
