14
Coordinates from ORCA-job run
  C   -0.48978264634054      0.02344135752839     -0.00641079898609
  C   0.64518703385209     -0.69511121189400      0.10338743378745
  H   0.56074275541495     -1.77291621386141      0.19276534155292
  C   -1.85503779140980     -0.59668697076693     -0.00664316995204
  H   -2.39765760690684     -0.35220343474261     -0.92703233912069
  H   -2.44640491671306     -0.21823107058989      0.83235734930976
  H   -1.79185979080748     -1.68212762531075      0.07065299731431
  N   -0.50055902203895      1.42694203205234     -0.01683765755059
  H   -1.26203712314607      1.81654007040427     -0.55341809751641
  H   0.37940219612074      1.83993019939689     -0.29012286047379
  C   2.01261735266936     -0.07155916920005      0.14308124698465
  H   2.79064439385384     -0.83267134836999      0.21357177833970
  H   2.22319400758374      0.51726719453018     -0.75865394306075
  H   2.13155115786803      0.59838619082355      1.00230271937155
