14
Coordinates from ORCA-job run
  C   -0.41088448557468      0.46274280743755     -0.08093331991973
  C   0.91797255353337      0.37404641572072      0.12918458318580
  H   1.47765797513373      1.31063773615352      0.14920918188194
  C   -1.36862952332272     -0.69161439612267     -0.14691689046344
  H   -1.92723430131660     -0.66667306188044     -1.08950657589722
  H   -0.87188281514912     -1.65705911123220     -0.08329444018307
  H   -2.09864441704419     -0.61445116750778      0.66341522593709
  N   -1.07392629903059      1.70570980862173     -0.15247981350999
  H   -1.78795926855158      1.72616133383509     -0.86784930216081
  H   -0.43743615566394      2.48203597203472     -0.27109885240690
  C   1.72552406847625     -0.86401163325007      0.38414614483864
  H   1.11851904028127     -1.76932288648141      0.39184545231422
  H   2.50201405825530     -0.99375730548669     -0.37670811008780
  H   2.23590956997350     -0.80544451184206      1.35098671647125
