14
Coordinates from ORCA-job run
  C   -0.48745419283042      0.00774602148296     -0.05448350720659
  C   0.61908280291823     -0.53088760143535      0.49484691357422
  H   0.49330597799552     -1.33171559520280      1.21575755831487
  C   -1.87548585000593     -0.44683011723823      0.28489584947704
  H   -2.38412193930945     -0.81927060988855     -0.60921551912209
  H   -2.47402993995317      0.38069235634909      0.68264646885336
  H   -1.85566564517486     -1.24021654614067      1.03212906788985
  N   -0.43596730782267      0.96829593186940     -1.07672688162927
  H   -1.21718522556892      1.60793565423627     -1.06278633312235
  H   0.43879924054589      1.47071568955815     -1.12100072477003
  C   2.01237590233506     -0.10295708498407      0.12622629541278
  H   2.22770299178121     -0.28105831411934     -0.93358576073177
  H   2.17963336596251      0.96480849962365      0.31614639529818
  H   2.75800981912701     -0.64825828411051      0.70615017776181
