14
Coordinates from ORCA-job run
  C   -0.39557047749437      0.34655183347912     -0.33655337351774
  C   0.93428099883415      0.12441846540765     -0.33202223050527
  H   1.52082201444352      0.62584538725920     -1.10352177023793
  C   -1.38765080842796     -0.23966690088661      0.62564652206768
  H   -0.93854933026299     -0.95221545591266      1.31371713400146
  H   -2.18179312474247     -0.76063976332374      0.07882682088013
  H   -1.86296116022127      0.55838152208599      1.20234567737487
  N   -0.99393670343258      1.27529594401345     -1.21417720475470
  H   -1.87237110036531      0.94433844702140     -1.58968085191933
  H   -0.37738615198512      1.55549582264499     -1.96466888684907
  C   1.72195199630094     -0.70536024983462      0.63796862276558
  H   2.24369064468029     -1.52192120929853      0.12835492738626
  H   2.48790565184395     -0.10216918403373      1.13602815404689
  H   1.10056755082923     -1.14735465862188      1.41673645926117
