14
Coordinates from ORCA-job run
  C   -0.48814540896765      0.04232214604417     -0.01988527536903
  C   0.61302860231189     -0.70799794168104      0.18250188003658
  H   0.48095898394860     -1.76832256414079      0.36983858157155
  C   -1.87832032950422     -0.51926824706476      0.00356617165100
  H   -2.38928679365210     -0.34365242836423     -0.95002144357306
  H   -1.86336276149611     -1.59367457245486      0.18695625447939
  H   -2.47106112802600     -0.03754651412795      0.78681426062786
  N   -0.43932016869544      1.43796013864342     -0.16055942151495
  H   -1.17254151954133      1.80603780460024     -0.74915149513825
  H   0.46278360390007      1.78845344513471     -0.44851614738032
  C   2.00456137585920     -0.13918736126878      0.19739884417099
  H   2.25796324125807      0.35541898964778     -0.74882095029031
  H   2.13485072810442      0.60114474902033      0.99500787439069
  H   2.74789157450061     -0.92168764398824      0.35487086633787
