14
Coordinates from ORCA-job run
  C   -0.48807889270689      0.02591619040092      0.03993780047064
  C   0.63552286811017     -0.70200218523678     -0.11534281848093
  H   0.53403945866037     -1.77123719848845     -0.26790281700985
  C   -1.86281776464812     -0.57237535213015      0.01055660600915
  H   -1.81865778123996     -1.64676929924979     -0.16805203137655
  H   -2.37612396642813     -0.39462139199875      0.96017160730237
  H   -2.47122704627556     -0.12042710530829     -0.78119879877177
  N   -0.46851866130443      1.39374513283192      0.35406406001590
  H   -1.26072115236361      1.89961383378374     -0.01485578898373
  H   0.39653313789767      1.85562553373031      0.11326444042089
  C   2.01563179432044     -0.10969673663441     -0.04545756674567
  H   2.21868439938018      0.33910271256808      0.93363484535723
  H   2.16695736516567      0.67336538691755     -0.79912710629824
  H   2.77877624143220     -0.86923952118592     -0.21969243190944
