14
Coordinates from ORCA-job run
  C   -0.48578957688155      0.03274824939022     -0.05905344155732
  C   0.64207241614574     -0.70472189159465     -0.03506090169287
  H   0.55247999347539     -1.77807681678216     -0.16442404683705
  C   -1.84867937241639     -0.56015868769585     -0.25720644097357
  H   -2.50424453083986     -0.33140454269702      0.59081395354331
  H   -1.79307778130778     -1.64397264699360     -0.35921026035003
  H   -2.31735081968602     -0.14614801166122     -1.15487122019853
  N   -0.47535885950301      1.43572575903986     -0.01188282839989
  H   -1.29505296113320      1.82580111500974      0.43035605864152
  H   0.36672476240264      1.82397513548494      0.38785334902297
  C   2.01247856879731     -0.10767011793028      0.12460278050114
  H   2.25676050535770      0.57965274534015     -0.69338637634751
  H   2.78003641609828     -0.88240805879602      0.13921390135907
  H   2.11000123949075      0.45565776988588      1.06125547328875
