14
Coordinates from ORCA-job run
  C   -0.39750155157481      0.38159867701181     -0.29334702651259
  C   0.92170837331123      0.11369358220801     -0.36971724644667
  H   1.50264287855087      0.69388721082686     -1.08843824004006
  C   -1.37965191774422     -0.29191759001081      0.62064941015382
  H   -1.91251327694523      0.45436030475748      1.22072482077649
  H   -0.90732903863391     -0.99085717666274      1.30723233937499
  H   -2.12868153877726     -0.82684490519134      0.03048541276679
  N   -1.02863549356688      1.27862956689434     -1.18085894925865
  H   -0.36929352998501      1.85082226412642     -1.69055000429864
  H   -1.71599841368954      1.86151804314349     -0.72276665460645
  C   1.69152089583269     -0.92339861688261      0.39305817004005
  H   2.18072160404907     -1.62703178043247     -0.28830408736882
  H   2.48192667074185     -0.46620588897165      0.99715659607763
  H   1.06108433843115     -1.50725369081679      1.06367545934208
