15

C	0.0	0.0	0.0
C	-0.600124	-0.126308	-1.417259
Br	1.954764	0.0	0.0
H	-1.708406	-0.085595	-1.220659
C	-0.382393	1.298414	0.559576
N	-0.605772	2.36224	1.007526
C	-0.46934	-1.150252	0.886938
H	-1.561963	-1.14857	0.881889
H	-0.099851	-1.002628	1.90267
H	-0.081051	-2.093917	0.499969
C	-0.260106	-1.40996	-2.027313
N	-0.003695	-2.444592	-2.521228
C	-0.212238	0.973485	-2.296388
N	0.086682	1.857752	-3.009232
Cl	-3.527708	0.0	0.0
