15

C	0.0	0.0	0.0
C	-0.494161	-0.286403	-1.470182
Br	1.958842	0.0	0.0
H	0.408843	-0.386907	-2.085475
C	-0.383179	1.335892	0.448251
N	-0.548411	2.439518	0.820361
C	-0.400061	-1.072199	1.015883
H	0.016011	-0.808778	1.990012
H	-1.488609	-1.103311	1.061476
H	0.003238	-2.038324	0.70605
C	-1.236016	0.818856	-2.083902
N	-1.609469	1.725177	-2.731967
C	-1.18304	-1.573836	-1.596587
N	-1.535531	-2.677523	-1.789412
Cl	-3.257218	0.0	0.0
