15

C	0.0	0.0	0.0
C	-0.570828	-0.252756	-1.413218
Br	1.954781	0.0	0.0
H	-1.679769	-0.200918	-1.245984
C	-0.406931	1.33257	0.44273
N	-0.613291	2.433831	0.798924
C	-0.460898	-1.089428	0.963794
H	-0.143542	-0.838882	1.976502
H	-1.551118	-1.140696	0.923064
H	-0.014142	-2.042868	0.674605
C	-0.20518	-1.579962	-1.907284
N	0.0805	-2.644136	-2.314011
C	-0.152412	0.76294	-2.376998
N	0.197897	1.56895	-3.15799
Cl	-3.492526	0.0	0.0
