15

C	0.0	0.0	0.0
C	-0.582528	-0.116312	-1.427584
Br	1.954851	0.0	0.0
H	-1.691821	-0.087941	-1.251293
C	-0.388788	1.292099	0.566721
N	-0.627653	2.350639	1.019198
C	-0.474222	-1.159622	0.868897
H	-1.566989	-1.159414	0.856002
H	-0.112876	-1.02433	1.889332
H	-0.08075	-2.098468	0.474322
C	-0.213864	-1.387849	-2.048284
N	0.077652	-2.406705	-2.555688
C	-0.185995	0.995627	-2.289172
N	0.136188	1.88193	-2.989715
Cl	-3.522638	0.0	0.0
