15

C	0.0	0.0	0.0
C	-0.598674	-0.082557	-1.421153
Br	1.954921	0.0	0.0
H	-1.706819	-0.046945	-1.224903
C	-0.3797	1.281487	0.599773
N	-0.605124	2.330183	1.081113
C	-0.468705	-1.176276	0.851491
H	-1.56169	-1.170539	0.851706
H	-0.093286	-1.063222	1.869414
H	-0.085465	-2.108423	0.431415
C	-0.257922	-1.347249	-2.069342
N	0.001091	-2.364948	-2.596074
C	-0.206701	1.042723	-2.265973
N	0.096133	1.946546	-2.95281
Cl	-3.528881	0.0	0.0
