15

C	0.0	0.0	0.0
C	-0.485265	-0.089147	-1.498273
Br	1.957644	0.0	0.0
H	0.420028	-0.196072	-2.108985
C	-0.393652	1.251641	0.641124
N	-0.544017	2.271642	1.207297
C	-0.3912	-1.215308	0.84465
H	0.025205	-1.098379	1.846731
H	-1.478744	-1.263617	0.886588
H	0.019243	-2.120623	0.393535
C	-1.126213	1.134084	-1.985048
N	-1.457704	2.13876	-2.49592
C	-1.263048	-1.298792	-1.78697
N	-1.638633	-2.353427	-2.144613
Cl	-3.242524	0.0	0.0
