15

C	0.0	0.0	0.0
C	-0.48846	-0.013608	-1.50042
Br	1.957198	0.0	0.0
H	0.416171	-0.036956	-2.121103
C	-0.389778	1.225918	0.691108
N	-0.552324	2.223269	1.293077
C	-0.397158	-1.244626	0.794174
H	0.017605	-1.170043	1.800958
H	-1.485	-1.288794	0.830793
H	0.009684	-2.134278	0.308486
C	-1.195924	1.201414	-1.911994
N	-1.570181	2.213957	-2.37588
C	-1.212022	-1.238663	-1.85597
N	-1.563904	-2.286334	-2.255531
Cl	-3.251295	0.0	0.0
