17

C	0.0	0.0	0.0
C	-0.384665	-0.040029	-1.529253
Br	2.005816	0.0	0.0
H	0.525927	-0.221098	-2.104136
C	-0.49097	1.212134	0.764891
H	-0.219599	1.085446	1.81633
H	-1.583664	1.217801	0.669498
H	-0.049574	2.133006	0.397213
N	-0.486622	-1.160171	0.602117
H	-0.530234	-1.13953	1.60657
H	-0.180333	-2.043729	0.227922
N	-0.843752	1.286334	-2.096325
O	-1.846027	1.307467	-2.794864
O	-0.085028	2.230007	-1.885425
C	-1.30164	-1.121697	-1.885553
N	-1.732069	-2.131535	-2.304558
Br	-3.812797	0.0	0.0
