12

C	0.0	0.0	0.0
C	-0.528326	0.072495	-1.4171
Br	1.915932	0.0	0.0
H	-1.648203	0.085095	-1.199054
H	-0.392659	-0.848551	0.553746
H	-0.194638	0.995684	-1.893797
N	-0.413941	1.225625	0.779031
O	-0.486967	1.094839	1.995274
O	-0.511037	2.280342	0.160458
C	-0.135624	-1.082674	-2.197962
N	0.158561	-2.030904	-2.828696
H	-2.753246	0.0	0.0
