16

C	0.0	0.0	0.0
C	-0.614452	-0.011566	-1.386325
Cl	1.793566	0.0	0.0
H	-1.653671	0.282315	-1.159824
H	-0.264164	0.975852	0.410873
C	-0.572439	-1.073982	0.896145
H	-0.236743	-0.936571	1.927824
H	-0.258844	-2.067188	0.559963
H	-1.66557	-0.929633	0.812141
N	-0.574466	-1.376344	-1.96111
H	-0.939835	-1.289155	-2.905266
H	-1.293315	-1.894441	-1.457485
N	0.027633	0.964482	-2.247947
H	-0.56457	1.121874	-3.054956
H	0.907687	0.577242	-2.572862
F	-3.097884	0.0	0.0
