16

C	0.0	0.0	0.0
C	-0.565197	0.181145	-1.413086
Cl	1.790858	0.0	0.0
H	-1.643344	0.019631	-1.238913
H	-0.308	0.863224	0.591476
C	-0.540471	-1.254799	0.650277
H	-0.226352	-2.144764	0.094875
H	-1.634892	-1.110809	0.60913
H	-0.18326	-1.351331	1.679288
N	-0.068227	-0.744323	-2.419057
H	-0.463677	-1.658762	-2.242497
H	0.94104	-0.813053	-2.338892
N	-0.265685	1.538789	-1.888661
H	-0.608843	1.567972	-2.84312
H	-0.858722	2.167001	-1.351903
F	-2.981938	0.0	0.0
