16

C	0.0	0.0	0.0
C	-0.357977	-0.151779	-1.520249
Cl	1.798098	0.0	0.0
H	0.332023	0.525618	-2.040763
H	-0.283747	1.011387	0.29906
C	-0.663341	-0.999897	0.906029
H	-1.745635	-0.820764	0.774318
H	-0.385207	-0.840134	1.951323
H	-0.41104	-2.024786	0.628498
N	-1.702693	0.197088	-1.880451
H	-2.425601	0.056093	-1.103398
H	-1.739407	1.178484	-2.121014
N	-0.090632	-1.511792	-2.016996
H	0.622844	-1.972433	-1.463393
H	-0.960861	-2.023474	-1.923374
F	-3.413732	0.0	0.0
