16

C	0.0	0.0	0.0
C	-0.545738	0.147906	-1.479584
Cl	1.802066	0.0	0.0
H	0.330203	0.22573	-2.136247
H	-0.264457	0.910212	0.538893
C	-0.525895	-1.176576	0.789789
H	-0.218572	-2.12923	0.348954
H	-0.155451	-1.142056	1.818183
H	-1.616712	-1.060108	0.769507
N	-1.353628	1.352333	-1.619842
H	-0.837105	2.129658	-1.220835
H	-2.166963	1.157747	-1.011282
N	-1.374776	-0.957469	-1.92848
H	-2.210374	-0.885593	-1.327826
H	-0.903463	-1.828665	-1.715203
F	-3.06535	0.0	0.0
