16

C	0.0	0.0	0.0
C	-0.408435	0.106089	-1.520163
Cl	1.802044	0.0	0.0
H	0.424964	0.626141	-2.009225
H	-0.270116	0.950546	0.462452
C	-0.633585	-1.118712	0.780468
H	-1.721155	-0.944787	0.671242
H	-0.35118	-2.099313	0.39107
H	-0.346642	-1.070902	1.834593
N	-1.61023	0.856378	-1.774917
H	-1.420188	1.832096	-1.569019
H	-2.36942	0.529959	-1.11105
N	-0.541051	-1.204671	-2.158967
H	0.151446	-1.840987	-1.776463
H	-1.457912	-1.554826	-1.898656
F	-3.255749	0.0	0.0
