14

C	-0.54388	0.009352	-1.413264
C	0.0	0.0	0.0
Cl	0.146284	-1.429636	-2.335195
H	1.093363	0.0	0.0
H	-0.129401	0.883293	-1.912167
N	-1.971313	0.03703	-1.456038
H	-2.336545	-0.818575	-1.050392
H	-2.296546	0.094157	-2.413245
C	-0.535689	-1.143538	0.738774
N	-1.019979	-2.022841	1.353324
N	-0.343438	1.284929	0.615671
H	0.38141	1.488518	1.293157
H	-1.247727	1.264612	1.069977
F	2.564584	0.0	0.0
