14

C	-0.215838	-0.177892	-1.531876
C	0.0	0.0	0.0
Cl	-0.32023	1.447027	-2.326204
H	1.095073	0.0	0.0
H	-1.163726	-0.663559	-1.780783
N	0.885195	-0.920273	-2.080575
H	0.694928	-1.910832	-1.99822
H	1.72418	-0.687132	-1.523443
C	-0.430355	-1.256797	0.613819
N	-0.826533	-2.254033	1.098438
N	-0.547594	1.172334	0.652729
H	0.132777	1.497125	1.328686
H	-1.416149	0.969389	1.132422
F	2.63651	0.0	0.0
