14

C	-0.48498	-0.005178	-1.424026
C	0.0	0.0	0.0
Cl	-2.429593	-0.152668	-1.407574
H	1.094853	0.0	0.0
H	-0.226977	-0.922048	-1.949883
N	-0.074532	1.144033	-2.089801
H	-0.520229	1.271972	-2.985355
H	-0.194446	1.940398	-1.475181
C	-0.44753	-1.174011	0.737948
N	-0.78242	-2.098989	1.382923
N	-0.353695	1.266408	0.645649
H	0.410597	1.500353	1.267829
H	-1.214483	1.196209	1.173757
F	2.541243	0.0	0.0
