14

C	-0.47446	-0.00097	-1.441092
C	0.0	0.0	0.0
F	0.002226	-1.195409	-2.014991
H	1.094332	0.0	0.0
H	0.001082	0.815921	-1.9809
N	-1.889215	0.092364	-1.537089
H	-2.177551	0.091712	-2.507254
H	-2.316829	-0.697376	-1.067705
C	-0.511989	-1.138168	0.730602
N	-0.911674	-2.105892	1.265809
N	-0.33832	1.248903	0.667259
O	-0.548426	1.229946	1.887497
O	-0.227093	2.27966	-0.009224
H	2.448765	0.0	0.0
