14

C	-0.272601	0.043467	-1.509686
C	0.0	0.0	0.0
F	-1.62381	0.278894	-1.743153
H	1.092514	0.0	0.0
H	-0.047595	-0.962976	-1.877006
N	0.502347	0.985507	-2.255457
H	0.332358	1.894403	-1.837953
H	1.479512	0.767111	-2.052236
C	-0.525788	-1.194795	0.62087
N	-0.909438	-2.225003	1.038332
N	-0.410051	1.187111	0.741133
O	-0.313746	2.281501	0.169115
O	-0.718754	1.058612	1.931161
H	2.485631	0.0	0.0
