14

C	-0.349515	-0.083644	-1.478698
C	0.0	0.0	0.0
F	0.154713	1.062572	-2.110237
H	1.095634	0.0	0.0
H	-1.423785	-0.079858	-1.684011
N	0.270335	-1.265941	-1.956894
H	0.171588	-1.330087	-2.961388
H	1.260478	-1.218736	-1.713799
C	-0.468548	-1.153136	0.738038
N	-0.846101	-2.087222	1.34431
N	-0.482652	1.213455	0.681129
O	-1.13969	2.043792	0.045134
O	-0.150121	1.333571	1.862384
H	2.535303	0.0	0.0
