14

C	-0.351931	-0.082152	-1.478939
C	0.0	0.0	0.0
F	0.145991	1.070914	-2.109322
H	1.093724	0.0	0.0
H	-1.428656	-0.080821	-1.679583
N	0.273862	-1.261075	-1.960222
H	1.263829	-1.21216	-1.712902
H	0.17882	-1.32446	-2.965414
C	-0.46363	-1.154966	0.739293
N	-0.822124	-2.096843	1.345936
N	-0.487847	1.213475	0.679766
O	-0.164007	1.33399	1.864472
O	-1.142719	2.040892	0.040116
H	2.537692	0.0	0.0
