14

C	-0.524003	0.052881	-1.432454
C	0.0	0.0	0.0
F	0.344555	0.759978	-2.243336
H	1.093824	0.0	0.0
H	-1.453627	0.636502	-1.454674
N	-0.629586	-1.269321	-1.993166
H	-1.110947	-1.210947	-2.880382
H	-1.143785	-1.886791	-1.380684
C	-0.442015	-1.17165	0.717539
N	-0.790922	-2.15408	1.265106
N	-0.345635	1.188451	0.748113
O	-0.524571	2.240027	0.107979
O	-0.268689	1.127251	1.98668
H	2.366844	0.0	0.0
