16
Coordinates from ORCA-job run
  C   0.82174781533370     -0.32185540323022      0.40146949060186
  C   -0.49693385552972      0.39335196483696      0.10507345436089
  F   0.59460930170172     -1.64121753802598      0.62061573415864
  H   -0.25011178771514      1.45280460148685     -0.00705219224108
  N   1.71975306957341     -0.20203808198888     -0.83084440498058
  O   1.94700448549863     -1.21810885076253     -1.46709106224201
  O   2.07779134713453      0.94147783735492     -1.08452635112113
  C   1.54076516357246      0.25764697420839      1.53703909030326
  N   2.12902979226698      0.72392679652127      2.43993586082935
  N   -1.29867084147667      0.23604971761731      1.30682544859388
  H   -2.00487644598436      0.95724545018421      1.36151863839178
  H   -1.75915187216987     -0.66571751819307      1.31206336548128
  C   -1.12613282256597     -0.13275711200346     -1.18376564927831
  H   -1.26847039040269     -1.21455721881830     -1.13097362210085
  H   -2.10228525721154      0.33773718698415     -1.31599280917323
  H   -0.52406770202547      0.09501119382839     -2.06629499158374
