16
Coordinates from ORCA-job run
  C   0.87447861461340      0.23752596489613      0.41387648524843
  C   -0.57886858998706     -0.19570574326303      0.25048981903805
  F   1.01726702644900      1.05661440597866      1.49513319028425
  H   -0.81801984126299     -0.70087900511467      1.19105032557105
  N   1.71391656442920     -1.00650521041010      0.70026187197693
  O   1.40341442831841     -1.59987511026519      1.72413936943434
  O   2.60290918649038     -1.29589364154294     -0.08743558800734
  C   1.38850237880863      0.90138034451787     -0.78666348990277
  N   1.69460046972414      1.48506330339671     -1.75889744847337
  N   -0.58521283404504     -1.17904201048302     -0.81931472051871
  H   -1.28657123843705     -1.88892458588355     -0.66264624837885
  H   -0.76220600546181     -0.74436550679432     -1.71687489555943
  C   -1.48865157442357      1.01025971047912      0.05496881962422
  H   -1.38287618636619      1.73158045586413      0.86747501945101
  H   -1.26394986244041      1.51501063976809     -0.88911409205836
  H   -2.52773253640906      0.67575598885610      0.02355158227058
