16
Coordinates from ORCA-job run
  C   0.85033367376012     -0.28985804346871      0.08785600429885
  C   -0.62367506604138      0.12893116702334      0.27216199079311
  F   0.93237300569945     -1.37301712717940     -0.72510608674943
  H   -0.61295204695485      0.99479633633846      0.94042798396222
  N   1.60802753452075      0.85621257388575     -0.57227562496859
  O   1.96956826610658      0.70549595259487     -1.72787396947265
  O   1.71924385482389      1.85457102134340      0.12957646918879
  C   1.49889928969331     -0.58241822839165      1.36816911764630
  N   1.95100558556295     -0.83932239614662      2.42154263753818
  N   -1.40570217947704     -0.91825569829954      0.89123031559026
  H   -1.09846713263803     -1.11858768764175      1.83509761298909
  H   -1.37109559264227     -1.76957061600010      0.34426299095805
  C   -1.23049048308582      0.51725507652961     -1.06948129120172
  H   -0.74274547353649      1.39002380092356     -1.50647849480812
  H   -1.16294006755176     -0.30833292720118     -1.78128062785495
  H   -2.28238316823942      0.75107679568995     -0.90782902790940
