16
Coordinates from ORCA-job run
  C   0.89643013181312      0.20285837077101      0.38509187479486
  C   -0.57415280445736     -0.18522486314515      0.26891766931478
  F   1.10473117656270      0.99106594342581      1.47841139696114
  H   -0.79157871331005     -0.70590839735262      1.20629388030362
  N   1.70949025637239     -1.07124262401639      0.60908677739428
  O   1.42245344038866     -1.67929981196998      1.63117225959282
  O   2.55703807109262     -1.36775800313971     -0.22046751407489
  C   1.38252267430718      0.88067529008024     -0.81936230217207
  N   1.66747047930795      1.47797697601128     -1.78976044673337
  N   -0.65043507370471     -1.14215700434083     -0.82191439450646
  H   -0.84774559597507     -0.68116152831989     -1.70190652869486
  H   -1.36665879771361     -1.83448000608105     -0.65465432118927
  C   -1.45534728474728      1.05020834032576      0.13653237910969
  H   -1.29774344009730      1.74883808789817      0.96032853658297
  H   -1.25241234982879      1.57072106679037     -0.80383717554500
  H   -2.50406217001046      0.74588816306299      0.13806790886177
