16
Coordinates from ORCA-job run
  C   0.89673548591520     -0.00014268517624      0.57661413599631
  C   -0.62929103618682     -0.06935004735984      0.45048861816341
  F   1.33900229831988     -0.74601801446430      1.62207473369111
  H   -0.96890881893234      0.43453218745356      1.36374946387702
  N   1.62639936746501     -0.57559521168963     -0.64682634668839
  O   1.02405383037232     -1.40562082710391     -1.31869356909490
  O   2.78265473232283     -0.20408051566646     -0.80822192647091
  C   1.35741063028213      1.38509132782262      0.74220310303479
  N   1.66502113959300      2.51291596572626      0.85468076804153
  N   -1.07113571317244     -1.44698808549447      0.53886280713172
  H   -1.07628290459492     -1.88425965156211     -0.37199436917877
  H   -2.00066881332124     -1.48639747442742      0.93286344656193
  C   -1.12861567976285      0.72675983585799     -0.75700441909110
  H   -0.76175673706372      1.75625904362913     -0.76334334645357
  H   -2.21929283410783      0.76202528297237     -0.72586769859103
  H   -0.83432494712821      0.24086886948245     -1.68858540092915
