16
Coordinates from ORCA-job run
  C   0.90988747657852      0.27518102488590      0.30004577973578
  C   -0.56471046410711     -0.11473711669409      0.32243018536449
  F   1.15693250476961      1.28730429834769      1.17996726016817
  H   -0.75070170121548     -0.40952872915668      1.35959337867443
  N   1.72712327258900     -0.92376423937127      0.77833720951873
  O   2.54335411733931     -1.40910676873877      0.00858225223554
  O   1.47551630356645     -1.28192971310837      1.92067077963723
  C   1.35518757802355      0.65967581356526     -1.04176401201696
  N   1.60599079575058      1.02072754503261     -2.13095884959712
  N   -0.67995582734150     -1.29208150293178     -0.52150301738910
  H   -1.39684532092159     -1.91827807394898     -0.18304656259790
  H   -0.89987944349228     -1.03842920973829     -1.47727893983494
  C   -1.44783177140932      1.06753020742071     -0.05523421532392
  H   -1.26009789555020      1.93259880474752      0.58371712063523
  H   -1.27764895201498      1.36060052447967     -1.09533354777675
  H   -2.49632067256456      0.78123713520888      0.05077517856709
