16
Coordinates from ORCA-job run
  C   0.87276419307943     -0.34610568444426      0.23465605020933
  C   -0.55382827378896      0.22098669873334      0.14093347686539
  F   0.92721676721567     -1.61527594591142     -0.21649675687719
  H   -0.47025810690457      1.29178472170629      0.36591773029241
  N   1.78009682533926      0.50754859069013     -0.65444048920286
  O   1.94273623632393      1.65752786480889     -0.26413518172825
  O   2.20648032674108     -0.00237015202415     -1.67849884756007
  C   1.39538851362573     -0.27044511413526      1.60158608510182
  N   1.76543235039599     -0.19792646645846      2.71383115084146
  N   -1.34920191639886     -0.51273623969781      1.11004664280261
  H   -2.28546485464250     -0.67656869900894      0.76772313263353
  H   -1.40492748538009     -0.02695467988445      1.99532884038024
  C   -1.09694753198743      0.02836727356928     -1.26716054540047
  H   -0.45584385197708      0.48160163435827     -2.02458599599866
  H   -2.08102423520448      0.49657999578936     -1.33883700979197
  H   -1.19461895643711     -1.03601379809083     -1.48686828256730
