16
Coordinates from ORCA-job run
  C   0.88930953395766     -0.35909441195029      0.15809637358795
  C   -0.56368458849210      0.14644525027595      0.19940766380557
  F   0.99770355517386     -1.46072958384753     -0.61280669680491
  H   -0.53558882082884      1.10490247013694      0.73030739000804
  N   1.75690354570983      0.73639802952261     -0.46433565996549
  O   1.85632944431707      1.75325881162357      0.21234273937731
  O   2.21597176756454      0.53077211664414     -1.57670216771849
  C   1.40806220562073     -0.62633353397159      1.50162553156238
  N   1.78716551415986     -0.83502519998148      2.59332164923887
  N   -1.32500873348467     -0.86348376793203      0.91241294092144
  H   -2.16713422483388     -1.11954417426779      0.41818048837626
  H   -1.56310919842536     -0.57077541544759      1.84888022263874
  C   -1.08357767403012      0.35341803979428     -1.21616058186901
  H   -2.09685458280958      0.75752377335794     -1.16885929166653
  H   -1.10713810139166     -0.59837238153600     -1.75013897707030
  H   -0.47034964220733      1.05263997757889     -1.78657162442183
