16
Coordinates from ORCA-job run
  C   0.86533710822127      0.17678437747573      0.46160814034166
  C   -0.59433876442310     -0.19151522508632      0.21528443154912
  F   0.99326744534001      0.91338665117873      1.60228880743877
  H   -0.88642374764369     -0.75131185614473      1.10881633942399
  N   1.65047474199949     -1.11394783121837      0.68962035954015
  O   2.55658164181131     -1.38232245141472     -0.08585318723205
  O   1.28214516592010     -1.76365235178424      1.65861847458692
  C   1.44743182018712      0.90299306095082     -0.66980159928780
  N   1.81031457788774      1.54069770637099     -1.58701243303489
  N   -0.59205883001475     -1.09809404297858     -0.92030726492220
  H   -0.71812350097829     -0.59638513949782     -1.79109408023381
  H   -1.32346899644953     -1.79008293261112     -0.84000220394933
  C   -1.45510086740062      1.05692421092535      0.07170647084407
  H   -1.35929630081613      1.71515893179756      0.93721185597764
  H   -1.17538744794873      1.61855449618020     -0.82423175729656
  H   -2.50235404569220      0.76281239585653     -0.02385235374567
