16
Coordinates from ORCA-job run
  C   0.80599609932210     -0.33502395912539      0.22958396436387
  C   -0.60895093012447      0.27884840670449      0.17672005767763
  F   0.77188222246708     -1.62906051466115     -0.17737365758353
  H   -0.50658440492750      1.31039736885836      0.52587412910970
  N   1.71273251754999      0.43683912948887     -0.72205950641809
  O   1.93129764127931      1.59304295194572     -0.37988738987325
  O   2.07672773587309     -0.12744420776601     -1.74085025861924
  C   1.38621503649057     -0.25440719700556      1.57205221001463
  N   1.78133187878175     -0.19359674353893      2.67668186211499
  N   -1.52680533203336     -0.41301955636073      1.05451709317441
  H   -1.58473585086987     -1.39585750430923      0.81823283352481
  H   -1.26713287723344     -0.32162810519790      2.02893895207161
  C   -1.13412502085650      0.26509983059565     -1.25260576305928
  H   -1.15115924930359     -0.75148362072903     -1.65159558401912
  H   -0.53427871367443      0.88712812163805     -1.91875192739656
  H   -2.15341075274073      0.65016559946281     -1.24047701508257
