16
Coordinates from ORCA-job run
  C   0.86096695146770     -0.02473791805857      0.60450082870500
  C   -0.65127648734332     -0.03587516972514      0.36495595520698
  F   1.12851793986111     -0.75241405462278      1.72392502425200
  H   -1.05776611088427      0.33508631379005      1.32073198803488
  N   1.57321630812674     -0.71140952311877     -0.56087819437789
  O   2.00863107463801     -1.83151161492332     -0.36843036483661
  O   1.60873783923455     -0.05355963717780     -1.59309864939646
  C   1.41828545469556      1.32080851539014      0.75126309054058
  N   1.82292185657400      2.41270093312106      0.90567719282490
  N   -1.00859262589334     -1.41147332695382      0.06478576469343
  H   -0.90611424685332     -2.00153020324075      0.88128928655606
  H   -1.97112437738610     -1.45888511528386     -0.24368702294948
  C   -1.10980076130508      0.88328728875610     -0.75499743608655
  H   -2.20248040042128      0.90731703967141     -0.76323405221289
  H   -0.75452701251123      1.90488222009187     -0.61303017415817
  H   -0.75959540199975      0.51631425228415     -1.71877323679577
