16
Coordinates from ORCA-job run
  C   0.81068606355199     -0.03032216240493      0.62803987893032
  C   -0.71907851406944      0.02737562795181      0.39315036147782
  F   1.05621881118222     -0.81120973650235      1.71516182093566
  H   -1.08994580572977      0.50746208543075      1.30743780051503
  N   1.47305986195945     -0.69857041988239     -0.56691552990961
  O   1.58955226266933     -1.91517612751163     -0.51554209223043
  O   1.75495066344346      0.03939210323979     -1.50469024049455
  C   1.41858428930019      1.28500199302690      0.82199098798340
  N   1.85592738402302      2.35322445947362      1.04140521947448
  N   -1.32412324640177     -1.27879153348487      0.30385742239477
  H   -1.04835461893156     -1.87040987105390      1.07723550682909
  H   -1.08101586099692     -1.74544048575490     -0.56138679840401
  C   -1.09411469871476      0.87834436199632     -0.80836588254300
  H   -0.66072997379788      1.87800722932664     -0.75380802117986
  H   -0.76219167712206      0.41587628052019     -1.74050393293120
  H   -2.18042494036552      0.96423619562894     -0.83706650084791
