16
Coordinates from ORCA-job run
  C   0.88170383267613     -0.19222532463867      0.02850594339552
  C   -0.62350781444629      0.01527860498944      0.29986174880263
  F   1.06005546441304     -1.13520472393735     -0.93056260006315
  H   -0.69016607649074      0.77974038480877      1.07952882750879
  N   1.47488603004662      1.11722568528263     -0.47788196733052
  O   1.50771482814347      2.01118008061655      0.35937585644462
  O   1.79442098875507      1.17619171676084     -1.65423561287917
  C   1.60627320278374     -0.57791079661163      1.24183454421703
  N   2.12341993944546     -0.92087022073477      2.23930280854985
  N   -1.25313406763862     -1.19199603839473      0.78660334341033
  H   -1.14482846572411     -1.95055762485589      0.12533434256116
  H   -0.88557584554525     -1.48101926393771      1.68451635950622
  C   -1.32211100770155      0.50099605382751     -0.96316563241762
  H   -2.38715095464824      0.58378974336059     -0.74838223115550
  H   -0.95599241312839      1.47547514269969     -1.28979479988042
  H   -1.18600764094035     -0.21009341923525     -1.78084093066978
