16
Coordinates from ORCA-job run
  C   0.91128068479388     -0.32385535086372      0.06454049973488
  C   -0.54250662032591      0.06523299196791      0.33681511665983
  F   0.95758198871230     -1.37121853796877     -0.79629812816243
  H   -0.50821817846928      0.87511929390336      1.07082910396243
  N   1.60813680335988      0.86106077376010     -0.60474370287681
  O   1.93185307569309      0.74106123581709     -1.77508584458555
  O   1.71882936841298      1.84996330299708      0.10957591572695
  C   1.65155419628651     -0.64658347751923      1.28538217747073
  N   2.25636480151326     -0.89635024418612      2.26036250152769
  N   -1.14075996381541     -1.09887419700357      0.96833796330431
  H   -1.43668946363109     -1.77049927893014      0.27099391093680
  H   -1.94500487572404     -0.83293446143803      1.51962058080023
  C   -1.22654515957864      0.54843750837904     -0.94063188710438
  H   -1.16307616074408     -0.21134247814024     -1.72301387732839
  H   -0.79337806130802      1.47576127649743     -1.32230702943821
  H   -2.28042243517542      0.73602164272779     -0.72637730062809
