16
Coordinates from ORCA-job run
  C   0.78684119682988      0.15876356210892      0.50793726762696
  C   -0.68522970407542     -0.17685585365490      0.16579600838662
  F   0.85092409887563      0.92526153841494      1.62516905360660
  H   -1.05000186137302     -0.72514107477193      1.04354012603770
  N   1.50768380775773     -1.14900365216765      0.82176802410638
  O   1.51904519990136     -1.49256854332896      1.99363239119768
  O   1.93427553789325     -1.77214985430164     -0.14517501501429
  C   1.47555548559712      0.81829877043314     -0.60172119729711
  N   1.94985228188125      1.38818168534096     -1.51316576087894
  N   -0.86036455840221     -1.00022620836879     -1.00411714457910
  H   -0.35737052968295     -1.87599119867105     -0.95252344240739
  H   -0.57696634975385     -0.51195775398718     -1.84513673636551
  C   -1.46995197919699      1.11805221070913      0.01234651038718
  H   -1.12009452522393      1.68154556696166     -0.85773095618283
  H   -2.51857233053943      0.86522548458595     -0.14592599718041
  H   -1.38362577048841      1.75056532069741      0.89530686855646
