16
Coordinates from ORCA-job run
  C   0.87208675341014     -0.17669546124353      0.38688228047320
  C   -0.57354025302016      0.25472328367363      0.13521276927627
  F   0.94987792100226     -1.53003988422992      0.43859430833203
  H   -0.57330175169813      1.34797340161634      0.16001975428106
  N   1.72483678693957      0.29458725176932     -0.79139860487440
  O   2.17249418996059     -0.55611100552334     -1.54312770642722
  O   1.82096367616701      1.51175414045029     -0.88960362376519
  C   1.43397619663112      0.40443885092619      1.60715897442139
  N   1.89681279396464      0.87595832352463      2.57779183388468
  N   -1.32405566930202     -0.22817339956515      1.28202483824786
  H   -1.57343071191312     -1.20186360418570      1.16040953832887
  H   -2.17234204482314      0.30754844276606      1.40508111141151
  C   -1.06040732029656     -0.23447528919864     -1.22747598799047
  H   -0.52319964110653      0.23292277858500     -2.05578381445279
  H   -2.11805819481029      0.01457510648610     -1.33303385886959
  H   -0.95071273110539     -1.31812293585128     -1.31075181227722
