16
Coordinates from ORCA-job run
  C   0.87380106091073      0.15772932156838      0.45312064822946
  C   -0.59293438215173     -0.18997917997098      0.21872307948840
  F   1.02535534786614      0.86792442154136      1.60754558742837
  H   -0.87933354623698     -0.76699941434258      1.10313383863713
  N   1.64760103725024     -1.14594027900122      0.64218108795597
  O   1.28465981881512     -1.81326032663436      1.60120270779454
  O   2.54036928145524     -1.40698654866164     -0.15108691445808
  C   1.44772697444939      0.90227196678184     -0.67040816592691
  N   1.80414545934148      1.55628729840539     -1.57864894649720
  N   -0.61529231068882     -1.07061640605173     -0.93678805161496
  H   -1.35089322808284     -1.75858716695872     -0.86138640080926
  H   -0.74810537537969     -0.54894656862847     -1.79469338978663
  C   -1.44292411078039      1.06986617041686      0.11533258467248
  H   -2.49424871883312      0.78782799828792      0.02791526211366
  H   -1.32885214551024      1.70711257694538      0.99428886708933
  H   -1.17007516242454      1.64929613630259     -0.77143179431631
