16
Coordinates from ORCA-job run
  C   0.85318075118971      0.16024930399942      0.46830479353908
  C   -0.61350176900857     -0.16559703966650      0.21854727358940
  F   1.01618867540865      0.80199783264276      1.66492628340452
  H   -0.94993281226583     -0.68046541004582      1.12455182375419
  N   1.63496785415909     -1.14851636947059      0.60043884411265
  O   1.09548216434246     -2.00907170510341      1.28658939256027
  O   2.73636990966903     -1.21251195602247      0.07089895513189
  C   1.44024875551620      0.95744314627779     -0.60972738362722
  N   1.83081924738684      1.66576611835220     -1.46101829614573
  N   -0.63218426217388     -1.02971111594899     -0.95073538170735
  H   -0.80514391777962     -1.99350708894792     -0.70240880650951
  H   -1.31840269561928     -0.73150427731574     -1.62894516551816
  C   -1.41635417681604      1.10943861459988      0.01831494656116
  H   -1.25687520707956      1.81071198196051      0.83885035168713
  H   -2.48002753232353      0.86568930083700     -0.02229090237547
  H   -1.13483498460566      1.59958866385190     -0.91729672845682
