16
Coordinates from ORCA-job run
  C   0.80522490267356     -0.00022797321399      0.63477197224709
  C   -0.72333330615789      0.01606805970175      0.38659835385928
  F   1.06124555813664     -0.75855197885090      1.73540849784625
  H   -1.11351167271194      0.50223469186440      1.28958688205568
  N   1.49382445744101     -0.66932057210555     -0.54479798451414
  O   1.76950913120596      0.06180714974939     -1.48971916784057
  O   1.63728144736584     -1.88217210597994     -0.47538538320429
  C   1.37891380790500      1.33242213849682      0.81404270315969
  N   1.79197783464463      2.41210632730529      1.02407521666597
  N   -1.29666737995089     -1.30541958360427      0.31473341209922
  H   -1.03222512159408     -1.78187102496676     -0.53889910542775
  H   -1.01447129597466     -1.87608717501165      1.10151368510088
  C   -1.10755171905917      0.83720946981426     -0.83269599338156
  H   -0.69582583725372      1.84671725992323     -0.79384454050360
  H   -2.19519127097792      0.89935680916702     -0.87060863732665
  H   -0.75919953569237      0.36472850771088     -1.75377991083553
