16
Coordinates from ORCA-job run
  C   0.84335654917421      0.00509283048607      0.62826681803557
  C   -0.66145623689782     -0.02436134373028      0.34765370628927
  F   1.08278413416657     -0.67721051849478      1.78226742147239
  H   -1.09638038678551      0.38420432274155      1.27523860006781
  N   1.59189949336337     -0.72159683381025     -0.48904359990551
  O   1.65696001118623     -0.10193030730227     -1.54332787914586
  O   2.02375259339077     -1.83236405276112     -0.24254363819501
  C   1.39039302633617      1.35832288653500      0.73877037952342
  N   1.78899992466361      2.45600414043531      0.86486633409149
  N   -1.00410781176400     -1.41352564173618      0.09624518623163
  H   -1.95660874839030     -1.47957547166378     -0.23840317012691
  H   -0.92313604317870     -1.96811145888637      0.93960345545443
  C   -1.09236270596729      0.84388652140976     -0.82265225158806
  H   -2.18444743631673      0.86055013064838     -0.86316288599589
  H   -0.74666143106949      1.87276329402269     -0.71409118518858
  H   -0.71298493191111      0.43885150210625     -1.75968729102020
