16
Coordinates from ORCA-job run
  C   0.82219486135847      0.00161772464027      0.61575937624812
  C   -0.71173741039533      0.02750194365655      0.40500416892497
  F   1.09898755074869     -0.74237746502757      1.72110541104175
  H   -1.07585673096320      0.52910905524964      1.31047981128704
  N   1.47568282460659     -0.69192869590943     -0.57026092025420
  O   1.72967539586866      0.02141672189356     -1.53463385870909
  O   1.61362015012594     -1.90434622499431     -0.48395503988256
  C   1.41104229202010      1.33192681373039      0.75916156456734
  N   1.82038072768905      2.42041730257897      0.92655660915896
  N   -1.29678868496204     -1.29034735023261      0.36577686145542
  H   -1.05697730643902     -1.78094712105012     -0.48723788290531
  H   -1.00059040515187     -1.85206904532282      1.15381685123637
  C   -1.12056892478539      0.83497780230109     -0.81545957711077
  H   -0.80027429463865      0.34679618030888     -1.73853547908385
  H   -0.69955477512940      1.84124750496338     -0.80144065983378
  H   -2.20823526995261      0.90600485321413     -0.82613723614041
