17
Coordinates from ORCA-job run
  C   0.81537033725014     -0.53028422467619      0.18795081539143
  C   -0.70717275352766     -0.41915495257883      0.00272818428052
  Cl  1.30404137494774     -2.17259998096315      0.48958487781269
  H   -1.09750245117178     -1.01867523311231      0.83092723752216
  N   1.61419720647897      0.01634767661686     -0.99373375769747
  O   2.80437226747826     -0.25177635053659     -1.02151081203495
  O   1.00169801994638      0.71826836453351     -1.79076520085400
  N   1.20896385947013      0.34955126281849      1.37448139043182
  O   1.74824066350835      1.41830691031570      1.11712494843465
  O   0.85182296629315     -0.05775203999351      2.46947825675939
  N   -1.04084424776639     -1.09869135911383     -1.23506527902048
  H   -1.06826203498772     -0.44171511374404     -2.00330428932320
  H   -1.93769341710593     -1.55674158866859     -1.15758939452221
  C   -1.25380841349798      1.00081919067699      0.15541301279233
  H   -0.84949697814728      1.67111891617780     -0.60142612438093
  H   -1.05341533708526      1.41837821314878      1.14440914784195
  H   -2.33851106208310      0.95360030909891      0.03529698656629
