17
Coordinates from ORCA-job run
  C   0.81155102719639     -0.42432155173260      0.23663316307335
  C   -0.70459337576889     -0.39410653892137      0.00318642850179
  Cl  1.37132722548665     -2.07066799377042      0.45004890397912
  H   -1.12282424383796     -0.94686371763653      0.85393883716071
  N   1.52942738060389      0.24274270057808     -0.93116791175446
  O   2.17402436723104     -0.44174476552326     -1.70309299413255
  O   1.33900088117360      1.45237944044013     -0.98192838872294
  N   1.24663147320696      0.33127847028067      1.48515688520233
  O   0.42412657262816      0.38732040301186      2.39106931236779
  O   2.39551169218210      0.74857577546915      1.50104480413776
  N   -0.91499854272700     -1.03757845632652     -1.28666596974021
  H   -0.87203586999204     -2.04568561095953     -1.21317862901053
  H   -1.82176364061259     -0.78321645389974     -1.65503493548706
  C   -1.33109554352993      0.99400310717111     -0.02872409136358
  H   -2.41724265612505      0.86713355490722     -0.02070747081925
  H   -1.04736430168118      1.52603589663411     -0.93543308366974
  H   -1.06168244543416      1.59371574027764      0.83785514027749
