17
Coordinates from ORCA-job run
  C   0.84442533029834      0.00929833589029     -0.18759610263496
  C   -0.65627703119201     -0.09832382866989      0.07637947925227
  Cl  1.24466913284612      0.03912050884619     -1.87807379587348
  H   -0.75484645497766      0.01493239979193      1.15814885987256
  N   1.49435947364384      1.21424377656496      0.49772093021482
  O   0.77254910615311      1.92801309391234      1.18337697131537
  O   2.70002695927113      1.33061071694678      0.32958185508270
  N   1.52103743349472     -1.18076775986758      0.51545987950829
  O   1.38650883816873     -1.14416579490864      1.73223688866990
  O   2.08845019891011     -2.02347672236840     -0.14942175188741
  N   -1.01820096858355     -1.46757671127977     -0.26106829915994
  H   -1.24194546001339     -1.54866579427366     -1.24556775016281
  H   -1.82444380679222     -1.76038343776495      0.27378344796195
  C   -1.47323102622147      0.97715250152187     -0.62982827244457
  H   -1.43989310318338      0.84063284959677     -1.71247282655325
  H   -1.12945662463795      1.98298005527035     -0.38894943243081
  H   -2.51373199718446      0.88637581079141     -0.30971008073065
