17
Coordinates from ORCA-job run
  C   0.76253008521078     -0.43334246406619      0.23569788481780
  C   -0.78011036081609     -0.38302141248896      0.06718977305391
  Cl  1.36758178845923     -2.07313852616871      0.28039151264430
  H   -1.16400644303601     -0.77789476092554      1.01189915562179
  N   1.39061063210910      0.33901496448280     -0.91387141799433
  O   1.52860470988760     -0.26703041118153     -1.96820299498352
  O   1.58570775587159      1.53144807222970     -0.71366504522116
  N   1.26022686611585      0.23894537388940      1.51600903539989
  O   0.41188246469614      0.54484539426756      2.34552288527444
  O   2.47048065973114      0.37232558499746      1.61251152208432
  N   -1.28591746947415     -1.20709235639166     -1.00452711029810
  H   -0.92445010427605     -0.90946688870871     -1.90257157221295
  H   -1.05627374120121     -2.18289080472596     -0.87464818718479
  C   -1.28301054141126      1.04221159329204     -0.12740367420180
  H   -0.90607569171881      1.72937903744008      0.62710328786261
  H   -2.37124607278692      1.01563009317930     -0.07251932131876
  H   -1.00853453736092      1.42207751087894     -1.11491573334363
