17
Coordinates from ORCA-job run
  C   0.67917711596110      0.12265913064490      0.51606777780303
  C   -0.81611786121135     -0.13652737618537      0.18860033792242
  Cl  0.87240959648652      1.15593621953308      1.91002802781551
  H   -1.25984159938136     -0.37889568101647      1.15809536127791
  N   1.44043798845683     -1.15980121200544      0.83184444834867
  O   0.78654794898893     -2.05161129006759      1.35874243202947
  O   2.64050062701071     -1.16110630856823      0.59978593902469
  N   1.35890303122162      0.71719566513524     -0.70624415193101
  O   1.70191253903579      1.88769327005480     -0.68890199570469
  O   1.41705471737212     -0.05814052157969     -1.65670012631214
  N   -1.09790890881286     -1.22797003906761     -0.70666252223635
  H   -0.80600693618506     -2.11356724827705     -0.31771289344915
  H   -0.65895701810429     -1.09642443850052     -1.60827668792711
  C   -1.43859988148793      1.14431639126319     -0.35672359224901
  H   -1.23956706415255      2.01196370645622      0.27220025073631
  H   -1.06568776633290      1.35308932565169     -1.36342484797309
  H   -2.51525652886531      0.99219040652886     -0.42671775717546
