17
Coordinates from ORCA-job run
  C   0.84147953797707      0.01251217312161     -0.20074529689161
  C   -0.65417619487343     -0.10319412238654      0.08451171299261
  Cl  1.21438005785453      0.07786607186028     -1.89661537243752
  H   -0.73575973152839     -0.01528587681874      1.17005221721581
  N   1.50041852819516      1.20429702492990      0.49922684523712
  O   0.79065573672372      1.89453764787685      1.22051935401984
  O   2.70121404689473      1.33210657880806      0.30706815010664
  N   1.53182038374938     -1.19072431572414      0.46646612634415
  O   1.41457710132261     -1.18179047193578      1.68543848419354
  O   2.09478844279235     -2.01510920239033     -0.22455278943652
  N   -1.01964043656688     -1.46439035849770     -0.27943149239587
  H   -1.25349549507542     -1.52394961140386     -1.26311329510334
  H   -1.81996044768376     -1.76970191318262      0.25732372742924
  C   -1.48336590001854      0.98775279525309     -0.58321296044772
  H   -2.51842063421306      0.88864338375686     -0.24819818828647
  H   -1.46782864947804      0.87621398706117     -1.66908229831275
  H   -1.13668634607200      1.98821620967188     -0.32465492422714
