17
Coordinates from ORCA-job run
  C   0.85005557783470     -0.11912128815688     -0.17378061361244
  C   -0.67144490730891     -0.14207721657388      0.02732834551131
  Cl  1.35693465233206     -0.45321133433893     -1.79257757468705
  H   -0.81219991184527      0.03324044956936      1.10083589588910
  N   1.36350478994969      1.24329025233677      0.30196421918590
  O   1.25545366485447      1.40550937310721      1.51358709057249
  O   1.75613237240764      2.05181276651799     -0.52166861159456
  N   1.55592324113519     -1.09624118389331      0.77369434080276
  O   2.77685608769129     -1.08954615389106      0.72627631017636
  O   0.85104305315204     -1.77475348873233      1.51100109563837
  N   -1.17603116683188     -1.42403509712665     -0.41686382927359
  H   -2.11400193374967     -1.33471518593103     -0.78051895928206
  H   -1.16847052794424     -2.09585874876719      0.33699072582836
  C   -1.32158774182090      0.99025265323139     -0.75589616830289
  H   -0.93856544450770      1.96991965489580     -0.46858787736395
  H   -1.16971363945040      0.85327501298503     -1.82769961171840
  H   -2.39488816589811      0.98525953476770     -0.55208477776972
