17
Coordinates from ORCA-job run
  C   0.76147408985261      0.12968491007224      0.48647649092507
  C   -0.71861046112967     -0.12888395378579      0.18769955545393
  Cl  0.98123614296882      1.14518294052389      1.88947460344999
  H   -1.10284573114946     -0.46440954378968      1.15593777606685
  N   1.41622136414369     -1.23421569862940      0.75189481958824
  O   0.98663154496479     -1.82263401931564      1.72887311294757
  O   2.26105213275804     -1.61363031495077     -0.04267123794870
  N   1.53225827997118      0.71688932762275     -0.69367853276178
  O   2.59252798140795      1.27205951292051     -0.45508922338620
  O   1.03227539236671      0.53522035805606     -1.79948198541345
  N   -0.81245629369367     -1.26067238568327     -0.71626552665467
  H   -0.76093729040680     -0.96194349645072     -1.68036501421024
  H   -1.67567399230134     -1.76315573797429     -0.56314710732843
  C   -1.46984059960821      1.13362952974202     -0.23027872212513
  H   -1.14961438461673      1.46647417751469     -1.21793268991878
  H   -2.53563170536637      0.90033451667346     -0.27919320752070
  H   -1.33706647016155      1.95106987745394      0.48074688883643
