17
Coordinates from ORCA-job run
  C   0.78161461098562      0.02976123288781     -0.20588605183929
  C   -0.72764058074174     -0.04854840159414      0.09847633680087
  Cl  1.14155169025100      0.13220696496306     -1.90258627093287
  H   -0.79899729155680      0.07524551612215      1.18183381087732
  N   1.49703661978702      1.17576058591968      0.51707699104182
  O   2.71010001431993      1.21524798917726      0.36909247580200
  O   0.80903235421577      1.92691025803291      1.19640520618476
  N   1.42990854708074     -1.21228386078479      0.41440219244645
  O   1.38660593493847     -1.21195600027716      1.64026778154894
  O   1.84889822156819     -2.09572309889517     -0.31265887292330
  N   -1.29570663229901     -1.33423608840279     -0.24131839914109
  H   -0.95861722351644     -2.08215916835872      0.34987081547080
  H   -1.14149882977947     -1.57478714226971     -1.21234496409408
  C   -1.51184417324393      1.05481350153780     -0.59552130472433
  H   -2.52684968486148      1.04211862781934     -0.19772702766777
  H   -1.56894428373524      0.87148357905513     -1.66989415991179
  H   -1.07564929341263      2.03814550506734     -0.42548855893841
