17
Coordinates from ORCA-job run
  C   0.79376499252342      0.06094911599672      0.55176453163833
  C   -0.72709023297725      0.06312998770222      0.32503984055238
  Cl  1.18720785854010      0.02001531352642      2.24611812997244
  H   -1.07875229176514      0.81119763651300      1.04228885862423
  N   1.51276275193501     -1.08749596384532     -0.15257441420312
  O   2.67153314432724     -1.29041077532080      0.17218134116138
  O   0.88048556669349     -1.67933676566259     -1.02056679442827
  N   1.36371318784146      1.33234550425864     -0.07755862191992
  O   1.95549559945295      1.20727655815689     -1.14214783291389
  O   1.08312212086498      2.37233190052685      0.49888533889843
  N   -1.22738068616265     -1.23109887572247      0.74986633047243
  H   -2.14522988000937     -1.13824649273553      1.16121387297378
  H   -1.27831083479380     -1.86564419283687     -0.03591113759254
  C   -1.15047327873148      0.51999719490653     -1.07151901469649
  H   -0.76965233892131     -0.14435485876487     -1.84552031037564
  H   -0.82904178325717      1.54103775670902     -1.28813307920143
  H   -2.24215389556049      0.50730695659215     -1.10842703896210
