17
Coordinates from ORCA-job run
  C   0.76974425971415     -0.17880970830704     -0.20231904364171
  C   -0.73386529645767     -0.09389580901788      0.14034158829938
  Cl  1.07962125877004     -0.67369893082265     -1.83999845414218
  H   -0.75934209661434      0.07072706740862      1.22110994745561
  N   1.40383320693606      1.17628692571341      0.09896644297494
  O   1.40562523631857      1.44375161656994      1.29646721746113
  O   1.77022712198890      1.88408695002378     -0.82301112377845
  N   1.53196009777285     -1.12947913642083      0.72595806901373
  O   0.87087951419382     -1.82658523671444      1.48625919887368
  O   2.74929280439008     -1.10316502661494      0.62252114799190
  N   -1.49138112792086     -1.28568319925797     -0.14754159216160
  H   -1.50932581049353     -1.48292535688835     -1.13980330920024
  H   -1.12421917503902     -2.08371168044273      0.35175400666601
  C   -1.35987727072974      1.10172269661096     -0.56710970139714
  H   -1.24543906891187      1.02874426701714     -1.65124546199141
  H   -2.42428938690153      1.10163940261493     -0.33234107812456
  H   -0.93344426701589      2.04999515852807     -0.23800785429909
