17
Coordinates from ORCA-job run
  C   0.74989058140294      0.15762869146641      0.46814153787797
  C   -0.72433608045076     -0.13638373564383      0.15093954324830
  Cl  0.94529896934939      1.36257535504559      1.71809935341067
  H   -1.12950927359429     -0.53798699864937      1.09036688369068
  N   1.48711907691911     -1.09598386880286      0.95371505899887
  O   0.82000870887479     -2.11433439348305      1.10350739484672
  O   2.67953500778589     -0.96200742088473      1.17622147147204
  N   1.46798237293429      0.58170271308855     -0.81007239889012
  O   1.31489891338817      1.74910126415436     -1.14070381680995
  O   2.05988129945077     -0.29479264888789     -1.42018889400264
  N   -0.76260799250486     -1.07033022358748     -0.95717074844004
  H   -0.64144771970777     -2.02240299418583     -0.64263624219239
  H   -1.63396436764022     -0.99021738282993     -1.46217306857384
  C   -1.50114431478226      1.11780338667031     -0.23049472377801
  H   -2.55705717060041      0.84903367174633     -0.31513544934542
  H   -1.41303970271317      1.90597061514091      0.51402353207971
  H   -1.16050830811162      1.50162396964251     -1.19243943359255
