17
Coordinates from ORCA-job run
  C   0.76019566407485      0.01546699673950      0.46845897293744
  C   -0.78076087834903      0.13081781460799      0.32016949645435
  Cl  1.22997878345498     -0.54725886461311      2.05570327653278
  H   -1.05052015645596      0.95974395603368      0.98030785564031
  N   1.27046406170291     -0.92860958224259     -0.60807981481103
  O   1.59166205772713     -0.40714855524353     -1.66884899767080
  O   1.19654583517509     -2.12587713129845     -0.36452263425054
  N   1.49523072236031      1.33894751024017      0.25131257088178
  O   2.71338849682780      1.26907179159764      0.19396248092770
  O   0.80739888997897      2.35156309005845      0.19652010711936
  N   -1.50675250367438     -1.04081036080766      0.74935636224299
  H   -1.34218074452471     -1.25362374170471      1.72378503799360
  H   -1.25858530795464     -1.85297770181736      0.19744472396302
  C   -1.18858750547208      0.46688317231029     -1.10910273640729
  H   -0.64646478167436      1.31893310096027     -1.51362713205676
  H   -1.03647811621422     -0.39023487850369     -1.77032491500221
  H   -2.25453451698267      0.69411338368311     -1.10051465449471
