17
Coordinates from ORCA-job run
  C   0.78805401039312      0.02372417680575     -0.17001372056120
  C   -0.73418431870997     -0.04253482115774      0.06567253123428
  Cl  1.22426894691213      0.14390944460912     -1.84773461137059
  H   -0.85260747612799      0.07022207120460      1.14610957449226
  N   1.48118503163618      1.15335255397508      0.59814430872971
  O   0.77034336689497      1.90745284903493      1.25016831966164
  O   2.70043531814982      1.17876487337649      0.50925198584304
  N   1.39534272522589     -1.23231946940076      0.46227607970077
  O   1.29753038895590     -1.24651159854770      1.68494813835094
  O   1.83637818926719     -2.11162109548081     -0.25674552712029
  N   -1.29906086653735     -1.31876255890964     -0.31295783367358
  H   -1.10376904051495     -1.55093910463534     -1.27861393823735
  H   -0.99657930350172     -2.07612071167968      0.28488393400742
  C   -1.47561637755255      1.07542754496084     -0.65141959679291
  H   -1.03465746279311      2.05219316189388     -0.45756365994536
  H   -1.49078078095308      0.89930608149918     -1.72842651854162
  H   -2.50628235074448      1.07345660245180     -0.29597946577717
