17
Coordinates from ORCA-job run
  C   0.78244509263669     -0.15506967391804     -0.15292898885017
  C   -0.73964043781183     -0.11261995412343      0.10532317884906
  Cl  1.19857880455523     -0.70641664772583     -1.74865120086220
  H   -0.82985630352657      0.09678478844783      1.17486910752815
  N   1.35115757171406      1.23416261510892      0.12150977621098
  O   1.28046520225930      1.55131496357258      1.30476655086924
  O   1.73888755469394      1.91675132523609     -0.81088572754928
  N   1.52546473784925     -1.03684527462608      0.85554561997659
  O   2.74509177276879     -0.96959304344433      0.81543391360779
  O   0.84877817216225     -1.72551579515427      1.60986861633275
  N   -1.43740796426838     -1.34324961513713     -0.16914214379267
  H   -1.39646220394947     -1.58162728371638     -1.15158654596218
  H   -1.06945202208468     -2.10566750000001      0.38237448779494
  C   -1.36877290964825      1.02688591913219     -0.68673708087971
  H   -2.44322228783690      0.99819267412583     -0.50554312618076
  H   -1.19621152955338      0.90932281491563     -1.75921380914160
  H   -0.99284324996004      2.00418968730643     -0.38200262795092
