14
Coordinates from ORCA-job run
  C   -0.63805966093585     -0.41502095582996     -0.02162710102089
  C   0.71299522118703     -0.55830217522004     -0.72583854715137
  Cl  -1.80203459762601     -1.30090938318437     -1.07401649870030
  H   0.63188598084990     -0.23180292481747     -1.76067837522709
  H   1.07325748436074     -1.58733127208804     -0.67908666612888
  C   -0.65700929018234     -1.07097116174963      1.28575329351699
  N   -0.72043827582868     -1.59437009638746      2.33546089724506
  C   -1.07983165642996      1.03824264510437      0.09007963176974
  H   -0.41446904074458      1.57848560652266      0.76620735005660
  H   -2.09439929525794      1.08832345633300      0.48537208639506
  H   -1.06098507078666      1.50667959365977     -0.89598268799570
  N   1.75504518138692      0.30485401011880     -0.09133567402329
  O   1.85803595100808      0.24631775198705      1.13087056766871
  O   2.43600706899935      0.99580490555133     -0.84417827640463
