14
Coordinates from ORCA-job run
  C   -0.53820972825227     -0.35464044277862      0.20875284195589
  C   0.99486485634490     -0.42157941529068      0.20730543833564
  Cl  -1.17326595094193     -1.54829405274977     -0.97034545621081
  H   1.33103178273454     -1.43821319563789      0.40153367044662
  H   1.39042625745257      0.27647162483447      0.94675453472552
  C   -0.95859276526210     -0.77275950565604      1.54873370506987
  N   -1.27127255699421     -1.07404358091142      2.64059799550903
  C   -1.11469531664823      1.02006773910465     -0.11102868220454
  H   -0.85943285050828      1.31186189931358     -1.12793334538004
  H   -0.71061938989022      1.76246579165102      0.58067074794676
  H   -2.19963790403997      0.98705412641607     -0.00924702783800
  N   1.56181182761178     -0.01939262314636     -1.11140905735748
  O   1.57080854430817      1.18531794604899     -1.36105726419461
  O   1.97478319408525     -0.91431631119802     -1.84332810080386
