14
Coordinates from ORCA-job run
  C   -0.55642175057822     -0.32491152212192      0.20950430047235
  C   0.96871063736074     -0.49112583373316      0.17671144399280
  Cl  -1.28911002112387     -1.44142100045655     -0.98826579837239
  H   1.24124102837679     -1.53242035434192      0.33751415480048
  H   1.42159907408474      0.15909508850784      0.92684932572913
  C   -0.97948099166934     -0.75188606746713      1.54589078731881
  N   -1.29164611176769     -1.06224246084697      2.63535215591263
  C   -1.04714998363080      1.09271668827887     -0.06222671024829
  H   -2.12979101397461      1.12792069475976      0.06076204168137
  H   -0.58211761696896      1.78817384408151      0.63985379289036
  H   -0.79261618138449      1.39500114849820     -1.07624109621508
  N   1.53765237790527     -0.08971321702386     -1.14131410696816
  O   1.87742729873593     -0.98862437064926     -1.90527646224126
  O   1.62170325463452      1.11843736251460     -1.35811382875275
