14
Coordinates from ORCA-job run
  C   -0.54904508213255     -0.37027257645574      0.14347345994629
  C   0.98134380096213     -0.44063562290393      0.23059025965013
  Cl  -1.10697771547816     -1.45480148303777     -1.17171275460392
  H   1.32858505376826      0.18971840198580      1.05072130875168
  H   1.30831699830583     -1.47099642393090      0.35591632083616
  C   -1.04942838019014     -0.90209622707043      1.41393523292170
  N   -1.42681104879801     -1.29655687893098      2.45446757972696
  C   -1.10859530290814      1.02863200569190     -0.09005846004526
  H   -2.19760030156294      0.99005463267608     -0.05658028549945
  H   -0.79378447142699      1.40628174024037     -1.06100541856515
  H   -0.74801191769127      1.70761855651268      0.68571889664877
  N   1.62723334482889      0.07338493535538     -1.01076564586976
  O   1.64835553303111      1.29520895512117     -1.15347975877286
  O   2.08641948929197     -0.75554001525362     -1.79122073512530
