14
Coordinates from ORCA-job run
  C   -0.47587450129100     -0.15139814249234      0.21362726061555
  C   0.81293162521371      0.09138369823936     -0.56452794517645
  Cl  -0.96873062787983     -1.85924842044888     -0.02838399672335
  H   1.19351964742980      1.09394097364052     -0.35452131918451
  H   0.63320595959095     -0.04163397669966     -1.62975815206503
  C   -0.32508196437902      0.09499909453576      1.64849173395835
  N   -0.29252648067301      0.36921399391542      2.79038841365253
  C   -1.57241390140890      0.75810205593227     -0.33861849226627
  H   -1.72371404874447      0.55257595720152     -1.39963417795316
  H   -1.28933178917318      1.80518697036561     -0.20517842296241
  H   -2.50680046744090      0.57671147673568      0.19241021987699
  N   1.89956044328657     -0.86499539694130     -0.19806436628192
  O   2.19134316104856     -0.93847555643565      0.99101592425444
  O   2.42391294442072     -1.48536272754830     -1.11824667974475
