14
Coordinates from ORCA-job run
  C   -0.65097541988686     -0.38153935214652     -0.02482818073705
  C   0.69755676351550     -0.61087691826027     -0.71627649996711
  Cl  -1.83540621475486     -1.34314361947551     -0.97739330240482
  H   0.97784362525320     -1.66217916651901     -0.67805467039371
  H   0.64574394127831     -0.24744619901598     -1.74146119431009
  C   -0.63455411610819     -0.91193638908091      1.33881606415918
  N   -0.63457182005087     -1.30574420699898      2.44582302871117
  C   -1.08228863751896      1.07931726405880     -0.02547931177685
  H   -1.07829583194012      1.46408472081922     -1.04634531683345
  H   -0.40076035773870      1.67738743915623      0.58139341825516
  H   -2.08852947430152      1.16363396597108      0.38570264645338
  N   1.76862086028974      0.16346238003741     -0.02470056840700
  O   1.97338042833865      1.30836620491200     -0.42564907563937
  O   2.34123625362468     -0.39338612345757      0.90945296289057
