14
Coordinates from ORCA-job run
  C   -0.66341046960535     -0.36021346273407     -0.02973672004577
  C   0.66819716918054     -0.60874106470800     -0.74721953234620
  Cl  -1.89184168758466     -1.24579650668936     -1.00031250510264
  H   0.61491031781505     -0.21144130259818     -1.75966500223192
  H   0.91612824128413     -1.66879595459242     -0.74547144420737
  C   -0.64744984737820     -0.94116934952721      1.31314321860506
  N   -0.64390029459251     -1.37660253308130      2.40439239097414
  C   -1.04447674147882      1.11341821745103      0.02901143179775
  H   -2.04375751555492      1.21582484820840      0.45273633436781
  H   -0.33776129535336      1.66420374945551      0.65176364853169
  H   -1.03561139633925      1.53726638309326     -0.97625628031490
  N   1.77045819768920      0.11117062286658     -0.04557756187579
  O   2.33078898225406     -0.48801719532310      0.86972146286159
  O   2.00972633966411      1.25889354817885     -0.41852944101345
