14
Coordinates from ORCA-job run
  C   -0.47579072165663     -0.11099880658052      0.23538725434790
  C   0.80518063476403      0.00436265338344     -0.58447632244410
  Cl  -1.03196729316642     -1.81536202866007      0.17768820290658
  H   1.22483943553018      1.00812447714425     -0.48262811163339
  H   0.59880932591323     -0.22857710843559     -1.62744706839827
  C   -0.28824258962859      0.27458619482901      1.63480748682046
  N   -0.22339758844169      0.66113035879865      2.74235639422805
  C   -1.55112338608759      0.77733800962043     -0.38857401693746
  H   -2.48023801707862      0.68445313455607      0.17372967865438
  H   -1.22941196508047      1.82161039158986     -0.36662612963797
  H   -1.73080710314774      0.47173289325335     -1.42071300679886
  N   1.86296718232894     -0.95079161008623     -0.14014332440324
  O   2.18166481360671     -0.90801500251706      1.04374813580998
  O   2.33851727214464     -1.68859355689558     -0.99810917251406
