14
Coordinates from ORCA-job run
  C   -0.50313160022894     -0.15309030333707      0.13652198151800
  C   0.85261370353791      0.17702231871276     -0.47877247329821
  Cl  -1.17504312622290     -1.58403084972722     -0.71148183249444
  H   0.72701716617463      0.45427648997556     -1.52379003220899
  H   1.33311261370995      0.98081911064310      0.08437515464932
  C   -0.41798034230404     -0.45212633798014      1.56673656482555
  N   -0.42763712441893     -0.60682897828424      2.73126279491457
  C   -1.44812606852673      1.02920937396270     -0.07275251647604
  H   -1.05363026438201      1.91454772486928      0.43209862663365
  H   -2.42941052014374      0.79711912973928      0.34101306468161
  H   -1.55416481367974      1.23361207920837     -1.13944377547729
  N   1.79459696243534     -0.98139034220447     -0.46071922000433
  O   1.99820944811299     -1.50939836966595      0.62749341045633
  O   2.30157396593621     -1.29874104591197     -1.53254174771971
