14
Coordinates from ORCA-job run
  C   -0.48026398719571     -0.12349596594184      0.22200461325404
  C   0.81650113338989      0.03032151982022     -0.56562546077005
  Cl  -1.01826812040720     -1.83023153548330      0.09755763957234
  H   1.22337659606633      1.03445675171648     -0.42301250948641
  H   0.63548586173483     -0.17041214245195     -1.61997509524700
  C   -0.32675508653043      0.21860143316817      1.63687575994733
  N   -0.28851299349386      0.57032141819019      2.75713276943394
  C   -1.55072401396885      0.77416820350722     -0.39693454022822
  H   -1.24053931479000      1.82019772811029     -0.33424008211142
  H   -2.49097007043692      0.65399953734285      0.14111865520993
  H   -1.70443404151320      0.50025338983291     -1.44200174870365
  N   1.87608764304468     -0.92723105431358     -0.13032700174286
  O   2.16167798215118     -0.92866392616211      1.06255498629381
  O   2.38733841194926     -1.62128535733556     -1.00412798542177
