14
Coordinates from ORCA-job run
  C   -0.56492234167235     -0.33937889466312      0.15574566982325
  C   0.95114518405490     -0.55180496559365      0.05018450059455
  Cl  -1.36530031503166     -1.16671381600341     -1.22019930903886
  H   1.18348840358813     -1.61348339276660     -0.00578100192827
  H   1.44417713725555     -0.08106883742144      0.90218199797947
  C   -0.98124932924691     -1.00829715601172      1.39124826127052
  N   -1.29078493881806     -1.51539952531269      2.40503845746264
  C   -1.00135470011626      1.12120149239056      0.18393999652556
  H   -0.75342734109120      1.60961888405499     -0.75650594149487
  H   -0.49445586112755      1.64496281025488      0.99731673593633
  H   -2.07907505234880      1.17133003962752      0.34051732318341
  N   1.51149277879329      0.08228692757952     -1.17678707427832
  O   1.80054780328026     -0.65886845300364     -2.11185745579284
  O   1.64071857248066      1.30561488686879     -1.15304216024257
