16

C	0.0	0.0	0.0
C	-0.492431	0.181509	-1.449615
F	1.386563	0.0	0.0
H	0.413045	0.207314	-2.075266
C	-0.326995	1.19627	0.902726
H	0.134964	1.002027	1.873855
H	0.131986	2.092192	0.475235
H	-1.40597	1.280561	0.974879
C	-0.437093	-1.238105	0.65865
N	-0.528475	-2.196484	1.333756
C	-1.229611	1.421458	-1.663107
N	-1.624976	2.492326	-1.940117
N	-1.263891	-0.976689	-2.029399
O	-0.796092	-2.086766	-1.799984
O	-2.184464	-0.729297	-2.792272
F	-2.419172	0.0	0.0
