16

C	0.0	0.0	0.0
C	-0.274055	0.026753	-1.521541
F	1.386508	0.0	0.0
H	0.332328	-0.787981	-1.923206
C	-0.425177	1.225466	0.78138
H	0.053617	2.10114	0.33531
H	-1.514413	1.253146	0.740484
H	-0.049513	1.115066	1.799855
C	-0.431858	-1.280807	0.577078
N	-0.699026	-2.321592	1.048906
C	0.233973	1.27116	-2.105373
N	0.681634	2.244154	-2.588501
N	-1.652092	-0.262319	-2.051656
O	-1.927217	-1.451681	-2.124294
O	-2.271555	0.652493	-2.566588
F	-2.530332	0.0	0.0
