16

C	0.0	0.0	0.0
C	-0.461486	0.031143	-1.466472
F	1.38345	0.0	0.0
H	-0.36087	1.057611	-1.827739
C	-0.386288	1.263821	0.756361
H	0.115201	2.107633	0.271771
H	-0.01447	1.179479	1.779786
H	-1.468545	1.349378	0.733292
C	-0.419245	-1.221274	0.707519
N	-0.549923	-2.189136	1.360123
C	-1.797409	-0.482854	-1.810211
N	-2.513858	-0.922581	-2.644627
N	0.546461	-0.75209	-2.279694
O	0.642846	-1.948782	-2.031815
O	1.193448	-0.133881	-3.123621
F	-2.535454	0.0	0.0
