16

C	0.0	0.0	0.0
C	-0.48902	0.144033	-1.45619
F	1.386893	0.0	0.0
H	0.412332	0.096243	-2.086085
C	-0.328157	1.21324	0.878368
H	0.122449	1.031971	1.85711
H	-1.407712	1.303599	0.939233
H	0.141386	2.098703	0.441054
C	-0.432894	-1.224075	0.687964
N	-0.510872	-2.159532	1.39587
C	-1.160927	1.412489	-1.710356
N	-1.529242	2.488528	-2.001641
N	-1.331623	-0.986149	-1.994391
O	-2.218624	-0.706036	-2.786024
O	-0.944128	-2.114808	-1.716774
F	-2.418738	0.0	0.0
