16

C	0.0	0.0	0.0
C	-0.378688	-0.046833	-1.485628
F	1.383871	0.0	0.0
H	-0.050335	0.902015	-1.914972
C	-0.395028	1.326645	0.624318
H	-1.473439	1.407536	0.529461
H	0.146071	2.124011	0.100303
H	-0.087628	1.321939	1.675063
C	-0.443618	-1.149484	0.794918
N	-0.55636	-2.037477	1.555892
C	-1.767837	-0.308652	-1.898474
N	-2.565191	-0.484503	-2.756063
N	0.49216	-1.072252	-2.17815
O	1.135108	-0.692714	-3.153514
O	0.492919	-2.210535	-1.722145
F	-2.498758	0.0	0.0
