16

C	0.0	0.0	0.0
C	-0.417868	-0.062255	-1.474469
F	1.384331	0.0	0.0
H	-0.181416	0.90798	-1.919365
C	-0.375952	1.320639	0.66115
H	0.021266	1.314746	1.679056
H	-1.456956	1.413423	0.657682
H	0.115598	2.123551	0.103208
C	-0.430124	-1.163545	0.789346
N	-0.536262	-2.078423	1.519792
C	-1.79053	-0.454831	-1.831687
N	-2.527253	-0.829797	-2.679645
N	0.525575	-1.01535	-2.179453
O	0.500419	-2.187837	-1.823983
O	1.251288	-0.543837	-3.052469
F	-2.515001	0.0	0.0
