16

C	0.0	0.0	0.0
C	-0.621297	-0.003984	-1.398311
F	1.378614	0.0	0.0
H	-1.757996	-0.02863	-1.069949
C	-0.440702	1.215423	0.7997
H	-1.529331	1.25361	0.753405
H	-0.085563	1.098501	1.826026
H	0.023452	2.105114	0.371357
C	-0.437115	-1.248693	0.664469
N	-0.611727	-2.301562	1.161993
C	-0.128592	-1.092156	-2.208607
N	0.247838	-1.993159	-2.860723
N	-0.286309	1.292183	-2.068043
O	-1.121516	2.190717	-1.987217
O	0.809068	1.391851	-2.627712
F	-2.766393	0.0	0.0
