16

C	0.0	0.0	0.0
C	-0.528971	-0.173319	-1.45265
F	1.384826	0.0	0.0
H	-0.952813	0.766656	-1.794699
C	-0.34109	1.366249	0.582974
H	0.156102	2.118478	-0.038317
H	-1.420306	1.473216	0.593391
H	0.082218	1.420464	1.590103
C	-0.417894	-1.107686	0.870207
N	-0.520549	-2.001647	1.626487
C	-1.4895	-1.245967	-1.690744
N	-2.112228	-2.138205	-2.138978
N	0.682863	-0.446115	-2.326851
O	1.116901	0.492087	-2.994527
O	1.162503	-1.573191	-2.275539
F	-2.435034	0.0	0.0
