13

C	-0.449513	0.007338	-1.45049
C	0.0	0.0	0.0
F	-0.277417	-1.273519	-1.974106
H	1.09238	0.0	0.0
H	-1.518275	0.245462	-1.523113
H	-0.373538	-0.891016	0.515643
N	0.282985	0.928736	-2.278972
H	1.273548	0.792264	-2.080912
H	0.04921	1.86053	-1.954292
N	-0.455685	1.262174	0.618637
H	-1.131006	1.074662	1.345978
H	0.343187	1.695238	1.062876
Cl	3.548154	0.0	0.0
