13

C	-0.570221	0.089554	-1.39992
C	0.0	0.0	0.0
F	-0.133933	1.300134	-1.95374
H	1.098135	0.0	0.0
H	-0.166255	-0.703192	-2.03531
H	-0.338654	-0.951136	0.427452
N	-2.00509	0.076795	-1.443452
H	-2.345221	0.43018	-0.555889
H	-2.349819	-0.861165	-1.597144
N	-0.589289	1.093646	0.794295
H	-0.198804	1.953937	0.424005
H	-0.230102	1.015646	1.738136
Cl	3.676657	0.0	0.0
