13

C	-0.409474	-0.188314	-1.438089
C	0.0	0.0	0.0
F	-1.801766	-0.370067	-1.490252
H	1.093507	0.0	0.0
H	-0.188274	0.719287	-2.004084
H	-0.326832	-0.894156	0.55797
N	0.212175	-1.312962	-2.088893
H	1.190473	-1.077685	-2.230521
H	0.209019	-2.098447	-1.446047
N	-0.506895	1.256938	0.547942
H	-1.402115	1.110046	0.991646
H	0.142045	1.589339	1.247387
Cl	3.541375	0.0	0.0
