13

C	-0.363528	0.042432	-1.477037
C	0.0	0.0	0.0
F	-0.233521	-1.270894	-2.00447
H	1.096032	0.0	0.0
H	-1.416387	0.29951	-1.651921
H	-0.378882	-0.922308	0.444566
N	0.473559	0.974041	-2.139826
H	0.346949	0.93465	-3.142549
H	1.447294	0.787501	-1.907206
N	-0.462625	1.161744	0.757619
H	-1.429298	1.362182	0.52029
H	0.085598	1.960083	0.461466
Cl	3.576716	0.0	0.0
