13
Coordinates from ORCA-job run
  C   -0.52410298078716     -0.24883647807468     -0.09812054161083
  C   0.73290910625285      0.25236323734382      0.07353146979639
  N   -1.60376826193101      0.22445188379317      0.60152393524221
  H   -1.52230974253471      1.21490939309354      0.80070355901224
  H   -2.48656096448481     -0.05315029875534      0.19590618940723
  N   -0.80103731682583     -1.37213583652527     -0.98746980290597
  O   0.14505938837212     -2.05103184158359     -1.37969124390862
  O   -1.98637325038174     -1.55520414681171     -1.27626766956121
  N   0.85388831422451      1.31719169152925      0.99731174562466
  H   0.61614842664028      1.03004060216528      1.94081143105639
  H   1.77322531935103      1.73569563446454      0.97917370832857
  C   1.88691514726578     -0.14887470642367     -0.65247674525049
  N   2.91500681483871     -0.34541913421534     -1.19593603523057
