13
Coordinates from ORCA-job run
  C   -0.49344014820711     -0.17084930994439     -0.17466385866627
  C   0.77318245228321      0.17897018215979      0.19267783143904
  N   -1.58382361924155      0.47477240691431      0.39931155345085
  H   -1.68341252245538      0.25536041437059      1.38452714960443
  H   -2.43646430692612      0.25832091743054     -0.10077274998593
  N   -0.76477442891625     -1.15219133592790     -1.21555246840657
  O   0.18247808542689     -1.70862993687283     -1.76436311515072
  O   -1.95569633120692     -1.33961012126924     -1.48454375432427
  N   0.93171930530122      1.14928609078626      1.17603496431647
  H   1.84836956651980      1.57101477945637      1.19631193629247
  H   0.17490080494710      1.82502052811308      1.16889266869137
  C   1.96908590513779     -0.46091569010052     -0.25176076392071
  N   3.03587523733732     -0.87854892511606     -0.52509939334014
