13
Coordinates from ORCA-job run
  C   -0.45770394228059     -0.28295116940490     -0.11683097034564
  C   0.72923154710573      0.35124824061005      0.10759179000846
  N   -1.61782615519694      0.18206229085867      0.49305091866163
  H   -2.37169182695921     -0.48549057703886      0.39545646192131
  H   -1.89809906531867      1.09140775701583      0.14201692434264
  N   -0.55923440476722     -1.49581352730365     -0.91780088763743
  O   -1.68594383169397     -1.99410424254995     -1.00372573155217
  O   0.45917549059429     -1.95206484992810     -1.42995502923554
  N   0.73114408543636      1.48407472730345      0.91403577317478
  H   0.00861683134709      1.44701433930256      1.62488880760252
  H   1.64002081371430      1.73117086548966      1.27684429351666
  C   1.96822466208536      0.03202535082702     -0.52501856773195
  N   3.05308579593347     -0.10757920518178     -0.96155378272526
