13
Coordinates from ORCA-job run
  C   -0.51012311291381     -0.10564198330036     -0.17616411151710
  C   0.79158829274509      0.10744174896620      0.17285232173879
  N   -1.53158550142034      0.32578870892871      0.66347384922226
  H   -1.56056858849309     -0.19552429510910      1.53299728620227
  H   -2.42721142183115      0.28574789559215      0.19468886881711
  N   -0.89239675492883     -0.70659945837700     -1.44715031689355
  O   -2.10578971164128     -0.79940663562962     -1.65767356753490
  O   -0.00881859016174     -1.05700580740170     -2.22443640001649
  N   1.05751763959474      0.71662637510402      1.39420008291743
  H   0.32225934583018      1.36063001035562      1.66534177995041
  H   1.98421829959722      1.11019367964796      1.46609541525665
  C   1.92806498069079     -0.36261965106021     -0.55165799902653
  N   2.95484512293223     -0.67963058771667     -1.03356720911634
