13
Coordinates from ORCA-job run
  C   -0.48746220145072     -0.25657317895540      0.00511772255673
  C   0.76297498629237      0.28698473071940     -0.05089967657216
  N   -1.54501196634287      0.49458114897792      0.50743769959691
  H   -2.36045140771384     -0.08563325060902      0.65770826372097
  H   -1.77115349399881      1.28389359304085     -0.08858980677156
  N   -0.76176680061741     -1.63567223203618     -0.37171700950343
  O   0.16453114799023     -2.33296794730842     -0.77581237139021
  O   -1.92961577555133     -2.01253711890359     -0.22971180000271
  N   0.92775609083351      1.60474532655253      0.36251981165687
  H   0.27162204468064      1.85986120623255      1.09231528847902
  H   1.88292111862352      1.85581790306209      0.57074414138888
  C   1.91066994116072     -0.33826853659781     -0.62327641263434
  N   2.93598631609401     -0.72423164417493     -1.05583585052497
