13
Coordinates from ORCA-job run
  C   -0.51871310500176     -0.19048125095148     -0.19737675184226
  C   0.73499370545864      0.18233510984332      0.19171316088683
  N   -1.64485938127389      0.43364352348380      0.27707577236534
  H   -2.48942942549974     -0.09261581326432      0.10195826982010
  H   -1.53231976819435      0.74106312831251      1.23628634642591
  N   -0.75292803932788     -1.21994728779731     -1.20354204061982
  O   0.20468986163272     -1.63119175224254     -1.85284143197885
  O   -1.91891755996154     -1.60719892663515     -1.32078721283626
  N   0.79972758894610      1.22656223397735      1.14323192859368
  H   1.73736382967150      1.37730183908034      1.48666845409377
  H   0.41258034718732      2.09195512899330      0.78171251747605
  C   1.94636261173694     -0.44020537444168     -0.21399371883340
  N   3.02244933462594     -0.87122055835813     -0.43010529355108
