13
Coordinates from ORCA-job run
  C   -0.49008643786142     -0.20877348477499     -0.13782447246711
  C   0.77019944401822      0.21907520254859      0.16169898877396
  N   -1.59062941351478      0.51819077587029      0.30525076033197
  H   -1.70000785755590      0.47348784308986      1.31238348812040
  H   -2.43644474036348      0.21740520853057     -0.16028972942795
  N   -0.74458601028035     -1.36905344159219     -0.98108787301626
  O   0.21046321638057     -2.02717309888489     -1.38454327123620
  O   -1.92923091874241     -1.59385254103379     -1.24748481682632
  N   0.91458170039486      1.35600399909842      0.94750085532103
  H   0.14538218969676      2.00576436668197      0.82538767388581
  H   1.82307036289764      1.79107181913354      0.88363514129980
  C   1.97662496130896     -0.47122531569846     -0.16432591576616
  N   3.05166350362135     -0.90992133296891     -0.36130082899298
