13
Coordinates from ORCA-job run
  C   -0.50683366534978     -0.22878204968258     -0.03411221762486
  C   0.77912738156656      0.16414126920721      0.23941864044356
  N   -1.20025028330532     -1.06926050534945      0.84389817356495
  H   -1.41943505263921     -1.95800127541367      0.40917647651870
  H   -2.07260689999651     -0.64711797845345      1.13841961868475
  N   -1.19035625508461      0.25955761612015     -1.22258195423537
  O   -2.36403560208132     -0.08385934206916     -1.36942263515751
  O   -0.57412996725238      0.98986205319666     -2.01194159309660
  N   1.63280566876889      0.89535646743936     -0.52581342401305
  H   2.43803136158001      1.29194586930760     -0.07142945627239
  H   1.23086275512136      1.38401568285665     -1.31075485386971
  C   1.34771210371200     -0.33099736443272      1.46642287073884
  N   1.89810845496032     -0.66786044272660      2.44972035431870
