13
Coordinates from ORCA-job run
  C   -0.51640527414019     -0.22655277711599     -0.05142871674862
  C   0.74750507533179      0.24395104778869      0.22070735788931
  N   -1.25443402179665     -1.06345162426621      0.77250946195986
  H   -1.97781451659013     -1.54978089794436      0.26246398667650
  H   -0.69257175272011     -1.68073798419904      1.34117806971871
  N   -1.25036075528868      0.24511861159041     -1.20281273720868
  O   -0.73648639417205      1.11256881339158     -1.92110623150097
  O   -2.35761435186815     -0.26127075271879     -1.40793439075199
  N   1.54818938975737      1.07610546579918     -0.54146858173137
  H   1.04593208284718      1.64477557770336     -1.20580545461114
  H   2.26073233208657      1.55792873209807     -0.01533163492068
  C   1.35648175785564     -0.31214972558616      1.38838837529560
  N   1.82684642869740     -0.78550448654073      2.35964049593348
