13
Coordinates from ORCA-job run
  C   -0.49096842919029     -0.15673265946812     -0.15477760286475
  C   0.78055812020988      0.19115731926426      0.19238997487973
  N   -1.58801342569879      0.50918460012143      0.41648126484569
  H   -2.37695934589555     -0.11589345445763      0.54936444989252
  H   -1.90104047833471      1.25519119137241     -0.19914253447270
  N   -0.75356093395670     -1.34200777211162     -0.97173534085879
  O   -1.88978630457883     -1.81314996349486     -0.88054356488154
  O   0.14760037456550     -1.79051380260788     -1.67326045507584
  N   1.01648686515253      1.11732242843742      1.18563798682747
  H   1.85202409165009      1.66939298357496      1.08508639699244
  H   0.19425056293848      1.62484562976358      1.47716283469425
  C   1.96835578278309     -0.39406765632758     -0.35368284451764
  N   3.04305312035531     -0.75472884406638     -0.67398056546084
