13
Coordinates from ORCA-job run
  C   -0.55314462825645     -0.15537774515003     -0.05003049834445
  C   0.71246008708636      0.27791744502743      0.27248435582517
  N   -1.42801298563019     -0.81287486677548      0.79772250334748
  H   -1.97211258216355     -1.52298893990875      0.32897565339080
  H   -1.00729075192368     -1.13387380994570      1.65766422232620
  N   -1.12059143315721      0.11415581745595     -1.35299588517133
  O   -0.54560672844388      0.91495803814328     -2.10153486520514
  O   -2.14196372420253     -0.50977249736882     -1.65111156913583
  N   1.51593994787595      1.18667804802016     -0.39402174928756
  H   1.23107380535490      1.37293925156595     -1.34373254981454
  H   2.50500369206989      1.03508444782084     -0.26760412416926
  C   1.20632358832855     -0.17622564874085      1.53621706871741
  N   1.59892171306184     -0.58861954014399      2.56796743752106
