13
Coordinates from ORCA-job run
  C   -0.47093280024819     -0.28744586865373     -0.08864090846963
  C   0.66083863469224      0.37274614411864      0.33115967138642
  N   -1.20650177276937     -1.12713609740851      0.73739632725702
  H   -2.07176181486198     -1.41247281790426      0.30073508939047
  H   -0.68561018299084     -1.91123383985840      1.10252738879515
  N   -1.02146879261587     -0.04953720996331     -1.40963819570492
  O   -0.40964711770559      0.69575180308787     -2.18559344938486
  O   -2.10273876305436     -0.58430559324371     -1.66759632474258
  N   1.55621152529191      1.10623188021815     -0.41216863084380
  H   2.11494475662878      1.76148736031699      0.10964897695400
  H   1.19561568948590      1.43877292326675     -1.29569181522569
  C   1.05157529781185      0.10514863543780      1.68541771939738
  N   1.39047534033551     -0.11000731941428      2.79244415119105
