13
Coordinates from ORCA-job run
  C   -0.50702586879334     -0.23985778430469     -0.08065531199205
  C   0.73372281228021      0.25289938276511      0.25442204024454
  N   -1.23183731835729     -1.16060118245522      0.65991930404987
  H   -2.22009314611457     -1.11821847782747      0.45691529008352
  H   -1.02870673082961     -1.14811538536015      1.64869907615051
  N   -1.11579965135738      0.08470838888630     -1.35127799792005
  O   -0.47523911852186      0.76790015346016     -2.16036651558370
  O   -2.26143864806334     -0.33136326475846     -1.54524075658706
  N   1.52062094258246      1.16500962149673     -0.42815458308268
  H   2.50166202392507      1.11202341048304     -0.20177320049469
  H   1.31413113769479      1.23621755300368     -1.41243039917169
  C   1.20582646530188     -0.13695223779679      1.54621646269561
  N   1.56517710025300     -0.48365017759225      2.61372659160787
