13
Coordinates from ORCA-job run
  C   -0.49563802936189     -0.22957272542028     -0.08075041159752
  C   0.76167486105677      0.28928609638127      0.02675992374055
  N   -1.44638231667694      0.04824484461035      0.89444059544750
  H   -2.36678033339958     -0.25227930234567      0.60129843068444
  H   -1.20449217069519     -0.35531314935273      1.79288858465239
  N   -0.92513093378922     -1.01075201062197     -1.23234429440595
  O   -0.11968185390381     -1.22480397159925     -2.13407637411544
  O   -2.10102863656848     -1.38813217903955     -1.22166941061689
  N   1.06590468422796      1.05385244159890      1.14875991341846
  H   1.88555634795474      1.63317268012458      1.04188559624789
  H   0.25800679302330      1.56082141048010      1.49412239210312
  C   1.84984538593389      0.00456580133774     -0.85129843632073
  N   2.83614620219846     -0.12908993615350     -1.48101650923779
