13
Coordinates from ORCA-job run
  C   -0.50652606220300     -0.26267061069961     -0.06248260229898
  C   0.72097480447500      0.29612863778389      0.21119413100777
  N   -1.25349438293985     -1.04282558940031      0.80764649602465
  H   -0.72468794759484     -1.40204222064532      1.58935111158282
  H   -1.77630996708715     -1.76126701555164      0.32704632177157
  N   -1.20870395047057      0.05449321191022     -1.28581890181834
  O   -0.73116699221425      0.91094296884594     -2.04077627001792
  O   -2.23709662725453     -0.58532495238844     -1.51748453134407
  N   1.49202085409915      1.13923596156368     -0.56963445989013
  H   0.97437152091093      1.63010013249544     -1.28263512942606
  H   2.13728658686600      1.71012058738967     -0.04649303016713
  C   1.32439148509127     -0.15027617678023      1.42920844092706
  N   1.78894067832184     -0.53661493452330      2.44087842364875
