13
Coordinates from ORCA-job run
  C   -0.46869598071058     -0.29415163819814     -0.08044562801100
  C   0.68481338095940      0.35039308344698      0.30159818004151
  N   -1.15318184195966     -1.18937128685757      0.73137809252793
  H   -0.58838524196374     -1.95419345250351      1.07114126626974
  H   -2.00311849857618     -1.50771530274881      0.28821612743161
  N   -1.11908388851494      0.03274070808629     -1.33077161082404
  O   -2.19486235096856     -0.52460916942627     -1.56966526864059
  O   -0.58522364774229      0.86077177218449     -2.08098600204145
  N   1.51631397707518      1.15427628686707     -0.44866326188377
  H   2.10611763100292      1.76841155534830      0.09055100528850
  H   1.08365653047054      1.56388435606052     -1.26238705893403
  C   1.16562255063854      0.00692218033437      1.60647170662368
  N   1.55802738028938     -0.26735909259371      2.68256245215191
