13
Coordinates from ORCA-job run
  C   -0.46196164231633     -0.26094332218606     -0.17966284847674
  C   0.74810431463788      0.29395754224309      0.13638639299694
  N   -1.63882290839899     -0.03671732281551      0.48050892250743
  H   -1.62842918266319      0.49205711701033      1.33092464364373
  H   -2.49114900820052     -0.04991581903333     -0.05027063090372
  N   -0.61535092333674     -1.16586302413296     -1.32114872036930
  O   0.38521827591508     -1.47564689127244     -1.96367887060179
  O   -1.76813026275487     -1.52464916254560     -1.57256358714337
  N   0.85893315352249      1.37584153654945      1.01665292321473
  H   -0.00232378880308      1.82130873633454      1.28481766120832
  H   1.51575304253727      1.26740569074180      1.77340625157401
  C   1.99918389787817     -0.20024295818179     -0.33891655384022
  N   3.09997503198282     -0.53559212271154     -0.59545558381002
