13
Coordinates from ORCA-job run
  C   -0.43234479905204     -0.26357795978439     -0.28252756615842
  C   0.72612032568118      0.28927869229095      0.21296473138909
  N   -0.84182274909403     -0.24416599942800     -1.60595174951103
  H   -1.83858443861258     -0.11074662679398     -1.70429890145870
  H   -0.29896999602466      0.36961991914746     -2.19610321844889
  N   -1.33975393271270     -0.98149073039759      0.58358737895575
  O   -0.96045139059025     -1.29157633352598      1.72051747134442
  O   -2.46697813564863     -1.20789613026029      0.13730408819850
  N   1.33978392891926      0.06733462811770      1.43303453640060
  H   0.75015967559888     -0.37105883255917      2.12434007428475
  H   1.89149386074144      0.84325976334934      1.76613122862793
  C   1.45386652860264      1.10612701095670     -0.70903098473197
  N   2.01648112219148      1.79689259888725     -1.47996708889202
