13
Coordinates from ORCA-job run
  C   -0.47370350030928     -0.23517887184624     -0.23043852025444
  C   0.72507293389872      0.27966504707693      0.17993550384287
  N   -1.66317751631824     -0.08783653199554      0.43817481525162
  H   -1.61384017712563      0.25641713072195      1.37997548935382
  H   -2.47148161572169      0.21431698471703     -0.08564885693467
  N   -0.57040188093579     -1.10568335083013     -1.40911997122307
  O   0.38906197577909     -1.15002637725636     -2.17617427338212
  O   -1.65020587016558     -1.66672699785896     -1.58592626416609
  N   0.82655998458229      1.32200345034618      1.10635982121814
  H   -0.04503915344821      1.72392865946567      1.42058210891952
  H   1.48644128069793      1.16725353329045      1.85685915628674
  C   1.98589243416211     -0.18972023082231     -0.29923289867528
  N   3.07382110490426     -0.52941244500868     -0.59534611023704
