13
Coordinates from ORCA-job run
  C   -0.52863203786944     -0.17426170936645     -0.00559930112026
  C   0.76820743531066      0.18988352362856      0.25609113083305
  N   -1.26362505679196     -0.92080985033848      0.92193260793867
  H   -2.05816769429878     -0.39766312292322      1.27095366168246
  H   -1.61573562387548     -1.77407320077322      0.50487533897728
  N   -1.15146162896585      0.17631047214322     -1.27345691903308
  O   -0.51007467799399      0.85227914961724     -2.09066340284792
  O   -2.29670698938277     -0.23557841406825     -1.46278956184546
  N   1.60034103822598      0.98009731154743     -0.47336200766142
  H   1.31948097428250      1.17918350000748     -1.42086718838174
  H   2.58263113819523      0.93866922175335     -0.25991894419842
  C   1.30841332724290     -0.24756238749394      1.51747960178493
  N   1.84432979592098     -0.56747449373371      2.51432498387192
