13
Coordinates from ORCA-job run
  C   -0.51670790085120     -0.23743040681618     -0.08023722245202
  C   0.72705162991593      0.25682414397307      0.24677659597589
  N   -1.19986893718499     -1.22984132051536      0.61003270456121
  H   -2.20093579789993     -1.08146512942804      0.56774561531469
  H   -0.87180129177683     -1.35031802081753      1.55948217633662
  N   -1.16224464203458      0.16542544566026     -1.31473322669459
  O   -0.54130862143478      0.88958032706939     -2.10719257415267
  O   -2.32237213732757     -0.23388894830329     -1.49253302277063
  N   1.49665475914903      1.18846693010803     -0.43482208578730
  H   2.47971668099947      1.15421566448007     -0.20586194573011
  H   1.29995237312994      1.25021570007761     -1.41796926344351
  C   1.21257354765943     -0.19201350671652      1.51287882304625
  N   1.59729033765608     -0.57877087877151      2.55743342579618
