13
Coordinates from ORCA-job run
  C   -0.54255138035779     -0.18898959500541     -0.05166359792820
  C   0.73821009333774      0.22102192321339      0.21207898595429
  N   -1.33838130520911     -1.02320881850937      0.72199013861143
  H   -2.29480814077006     -0.69301195437449      0.77349976530735
  H   -0.95819038683223     -1.17044641822217      1.64914738914040
  N   -1.14640766013225      0.11973427018174     -1.34316255610724
  O   -2.37876107450965      0.11857186564750     -1.36686684996982
  O   -0.41559304740837      0.27092239345138     -2.32251585686421
  N   1.57623047393528      0.95204775791807     -0.62898870813575
  H   2.50807717553205      1.05743381710135     -0.25792222736243
  H   1.56631440387627      0.64373223161535     -1.58911541033856
  C   1.18473998015932     -0.03343684268322      1.54665864598731
  N   1.50112086837879     -0.27337063033415      2.65686028170543
