13
Coordinates from ORCA-job run
  C   -0.41063598600496     -0.23750654642271     -0.31025186141428
  C   0.67695846315321      0.41719767444708      0.22079531996825
  N   -1.19226052710409      0.22008871693511     -1.35857320400735
  H   -2.11406978049087     -0.19015866055763     -1.34477719984525
  H   -1.21064728062630      1.22645876388082     -1.45184754437310
  N   -0.79564420762325     -1.54720896039402      0.16891621085362
  O   -0.03377696285585     -2.14457466827111      0.94089434961689
  O   -1.88730507994784     -1.98442420484268     -0.20527538669340
  N   1.64442028978833     -0.05736468649306      1.08951646472418
  H   2.03439685542214      0.64703456105324      1.69826276927386
  H   1.40098795286916     -0.92160180600319      1.54759065022291
  C   0.88600235181109      1.73823793874054     -0.28666229114761
  N   1.00257391160922      2.83282187792761     -0.70758827717872
