13
Coordinates from ORCA-job run
  C   -0.49916397355781     -0.18902471109327     -0.13442205258924
  C   0.74783026560420      0.31296027061300      0.09823515577926
  N   -1.19231249078233     -0.82507418370739      0.89000057764116
  H   -0.76120204388092     -1.70318200323861      1.15785458028743
  H   -2.16184793750852     -0.96689815139997      0.63839754955665
  N   -1.18634698349843     -0.02113545426601     -1.40834112205347
  O   -2.32945926028870     -0.48419673902725     -1.47091471135920
  O   -0.61198517528306      0.57532044666187     -2.31495109980691
  N   1.31084141958349      0.13056957240191      1.35637995031951
  H   2.07424430688663      0.75813848031150      1.56167297695769
  H   0.60827092571525      0.09552418775215      2.08701177640966
  C   1.59679113387331      0.90377128852302     -0.88549436016997
  N   2.40533981313689      1.41222699646906     -1.57442922097256
