13
Coordinates from ORCA-job run
  C   -0.46659513501535     -0.29678556513295     -0.06187337553223
  C   0.73649177525056      0.26841437028991      0.27875896214928
  N   -1.06107496317503     -1.26303347869176      0.75737180146800
  H   -1.12506042242476     -2.15779918357607      0.28589268751710
  H   -1.99927694903437     -0.98738502010827      1.02175140254819
  N   -1.16837155507814      0.13044903007512     -1.26304573120124
  O   -2.27156493451007     -0.37602448959661     -1.47211903496208
  O   -0.63735530086112      0.97267523363583     -2.00117216367585
  N   1.50281773677905      1.14286566312793     -0.42635706379349
  H   1.06319529903279      1.59746406374085     -1.21158263635286
  H   2.22162365390692      1.63635670531276      0.07549274656079
  C   1.32545896530930     -0.18675753927269      1.51171401762778
  N   1.88171182982020     -0.48143978980404      2.50516838764662
