13
Coordinates from ORCA-job run
  C   -0.45414883447010     -0.31146077407355     -0.08012652107952
  C   0.72530561245388      0.28148211954046      0.29458917874052
  N   -1.01076862170112     -1.34316099051804      0.68387561465819
  H   -1.95947318864559     -1.11995825492440      0.95966194076077
  H   -1.03632592478408     -2.21423211351292      0.16696299325325
  N   -1.17139916606635      0.15293163531942     -1.25790867268469
  O   -2.25352910674764     -0.38425823581882     -1.49792574289079
  O   -0.67350126604269      1.05510162421874     -1.94671998044195
  N   1.45629974647914      1.22290489129256     -0.35928142312905
  H   2.15798138373131      1.71442515271175      0.16804037596753
  H   1.00151633930140      1.69960846203000     -1.12229086762471
  C   1.32814620557478     -0.21460636891819      1.50475025843699
  N   1.89089682091707     -0.53877714734702      2.48537284603346
