13
Coordinates from ORCA-job run
  C   -0.46602205531786     -0.20433509568328     -0.15829412631177
  C   0.75375740192676      0.30852534213185      0.17284469540653
  N   -1.60738630503700      0.26848135174701      0.50749993914014
  H   -2.14967160951083      0.88122837498961     -0.09270146763377
  H   -2.20816713247354     -0.50490194232964      0.76697556392844
  N   -0.62078088371077     -1.25275920672035     -1.16167975535931
  O   0.35470670884067     -1.59052461671001     -1.82866109384368
  O   -1.75149794356277     -1.73797580425432     -1.26005084222846
  N   0.85583815655003      1.33015047699942      1.08455236806795
  H   0.01952210504598      1.46146583930824      1.63948060564612
  H   1.73535578602058      1.41786291346442      1.56718139466588
  C   1.99621717136169     -0.07923378202464     -0.43020767731844
  N   3.08912859986705     -0.29798385091832     -0.80593960415963
