13
Coordinates from ORCA-job run
  C   -0.50986894508404     -0.26939466191309     -0.08346015466916
  C   0.68178122615317      0.29926154980234      0.25278701136594
  N   -1.16653481493541     -1.29206662637838      0.55232190168830
  H   -2.17192542555071     -1.22849566756269      0.47836482323779
  H   -0.82763008424376     -1.51956519208486      1.47247577271188
  N   -1.19693873332217      0.13993641591013     -1.30816314261338
  O   -2.42642062886448      0.20715391699393     -1.24160292901250
  O   -0.51458962870688      0.38118041009661     -2.30141431229180
  N   1.35504864600009      1.26048683649040     -0.53977322226329
  H   1.82998734328651      0.84173516033031     -1.33072809062818
  H   2.01926339847388      1.77682466085557      0.02365937744759
  C   1.24176674062044     -0.12852170958388      1.49346369317052
  N   1.68706090617336     -0.46853509295637      2.53206927185630
