13
Coordinates from ORCA-job run
  C   -0.56356936261429     -0.15709048314859     -0.02687179960449
  C   0.75052284749271      0.10970982345044      0.19872672550257
  N   -1.45986916389012     -0.79703796419345      0.78872100360348
  H   -1.04171025668550     -1.34243782521673      1.53058886226957
  H   -2.17813608631414     -1.29379155595842      0.28234451402732
  N   -1.19777789652965      0.37901599799555     -1.23525281349613
  O   -1.06165797776030      1.57415333213864     -1.47386553681819
  O   -1.84250595943023     -0.43117966635340     -1.90251624213054
  N   1.52386006453953      0.89098301201437     -0.69634012701990
  H   1.47493938379977      1.87977526075118     -0.48849500546332
  H   2.48670077271951      0.58730902587850     -0.70350595176602
  C   1.32242546905932     -0.45349939660047      1.38098481201159
  N   1.78777816561340     -0.94490956075763      2.34648155888406
