13
Coordinates from ORCA-job run
  C   -0.49727958046116     -0.33000174415078     -0.07507693186348
  C   0.67958224000727      0.35544635065290      0.03446967274417
  N   -1.61914525108697      0.00248648612909      0.62538037311007
  H   -2.46970500308811     -0.37546080103032      0.23670812066331
  H   -1.63937032255767      0.98358578837417      0.87953366461241
  N   -0.62575715018284     -1.54316095674471     -0.88256250315190
  O   0.39766763372239     -2.11506473795632     -1.24557418938631
  O   -1.77816721644541     -1.89481336626286     -1.14791662696502
  N   0.64082917450081      1.49635249832136      0.89128847614433
  H   0.68491384998517      1.21869269863735      1.86558376907642
  H   1.41713034496082      2.11615782690526      0.69914712419449
  C   1.87973900266383      0.07784323858950     -0.67534484763588
  N   2.93056227798186      0.00693671853536     -1.20563610154262
