13
Coordinates from ORCA-job run
  C   -0.51947255391892     -0.22924217614656     -0.10255902949772
  C   0.77402401290633      0.11664109036479      0.21439529252424
  N   -1.33697629730113     -1.07501767636046      0.62723538639504
  H   -2.30306327599667     -0.78070884736631      0.63365915011401
  H   -0.98229198593255     -1.30182879095867      1.54505837603121
  N   -1.13633798022784      0.24286386721079     -1.32293222816126
  O   -2.35807859285724      0.10150448304562     -1.41572660735668
  O   -0.42727919959431      0.78591599352049     -2.17991109179608
  N   1.74211374133669      0.69262897748368     -0.58992510517586
  H   2.41765034811215      1.24936641084297     -0.08882410340917
  H   1.38163922377343      1.11669094380802     -1.43143901158425
  C   1.21213553525160     -0.29614277945114      1.51248364615395
  N   1.53593702444846     -0.62267149599323      2.59748532576256
