13
Coordinates from ORCA-job run
  C   -0.49154606596254     -0.26000868902048     -0.03379746966742
  C   0.74811475395488      0.24464506515056      0.26805778516370
  N   -0.99222307881134     -1.37947884958334      0.64024728855618
  H   -1.23910307087319     -2.11514635142815     -0.01078649469722
  H   -1.82306858482251     -1.14833710524219      1.17249722534352
  N   -1.29206744003421      0.33496316165041     -1.09390540959059
  O   -2.36591958212935     -0.21049075920062     -1.35197260451875
  O   -0.86191233130504      1.33860724309610     -1.68016586469522
  N   1.35760614510849      1.36271292731010     -0.20950991526775
  H   0.95071042968617      1.78373704925304     -1.03023030844934
  H   2.35091582801541      1.44260312751704     -0.07067978784582
  C   1.48432229263612     -0.44734679192682      1.29441897540051
  N   2.17317070453708     -0.94746002757567      2.10582658026820
