13
Coordinates from ORCA-job run
  C   -0.54384386396039     -0.11429732063105      0.01663887914081
  C   0.81291204593270      0.03471769903796      0.15741465027554
  N   -1.28904148891336     -0.91337503688042      0.87526483488275
  H   -1.51558389241277     -0.46863539598301      1.75662482650054
  H   -2.11983808901140     -1.27294259281346      0.42940658672812
  N   -1.25408197256312      0.52823407173345     -1.08181945909938
  O   -0.62248615989750      1.26723859625867     -1.85275822313620
  O   -2.43877118524783      0.22063126800591     -1.24021662469876
  N   1.65187448951043      0.92834390854284     -0.45661989967043
  H   1.30215452864784      1.32713739586715     -1.31255559378108
  H   2.62904267473422      0.68659784733809     -0.43808575270677
  C   1.42449970128517     -0.77077703315312      1.17692002792191
  N   1.96316321189600     -1.45287340732301      1.96978574764295
