13
Coordinates from ORCA-job run
  C   -0.50107736576285     -0.24114790038272     -0.01995702630198
  C   0.75623081379228      0.23452798320836      0.25505723076741
  N   -1.06150471782915     -1.26843788203341      0.74676343787288
  H   -1.87259318663479     -0.94689144782060      1.26183198168167
  H   -1.35418815649810     -2.04117445438576      0.16116291184210
  N   -1.25926487668185      0.28560290875137     -1.14539362756838
  O   -2.35296843858814     -0.23419144557369     -1.37065431640277
  O   -0.77465201035595      1.20773963410022     -1.81679532809581
  N   1.42056106679598      1.27780686677227     -0.31099182936303
  H   1.04436594092512      1.63601036059055     -1.17505384602694
  H   2.41483627998102      1.32504914744168     -0.16366802079076
  C   1.44494656103561     -0.39065204875294      1.35451103251982
  N   2.09530808982082     -0.84424172191532      2.22318739986580
