13
Coordinates from ORCA-job run
  C   -0.55777691701864     -0.15524327194322     -0.10908317012331
  C   0.74648937487000      0.14892497498955      0.15056306323678
  N   -1.55188266939119      0.79245656992896     -0.10889163345505
  H   -1.45932665332207      1.50192975318653      0.59793420057416
  H   -2.46831634818883      0.36779013685564     -0.15810469481610
  N   -0.90622934017775     -1.50447309575490     -0.54621602872956
  O   -0.00873312809088     -2.26623551219366     -0.84965562311819
  O   -2.10940981113462     -1.80582467566261     -0.59658399904894
  N   1.10700158315084      1.45758042061849      0.46377319104275
  H   2.10836103010018      1.59299204169955      0.43171044103892
  H   0.59342302709371      2.16490266118990     -0.05552334189225
  C   1.76046726987314     -0.83539830370142      0.30200567272643
  N   2.74593258223612     -1.45940169921282      0.47607192256437
