13
Coordinates from ORCA-job run
  C   -0.51397418758886     -0.21202570303837     -0.02655196356867
  C   0.74975395940213      0.22583109496806      0.28037426093316
  N   -1.19776189634588     -1.08167002407944      0.82987033744596
  H   -1.48736065535322     -1.92053537774370      0.34192174995627
  H   -2.02752952389935     -0.64618469097625      1.21527409112369
  N   -1.15029414568690      0.18694758277739     -1.27333401061262
  O   -0.55673861625838      0.97312317605645     -2.02548130229551
  O   -2.25742094833384     -0.29713128191532     -1.51224248476464
  N   1.52517885864730      1.13209929356042     -0.37293947822535
  H   2.50649121336281      1.14523584377752     -0.15132843638270
  H   1.23841135645061      1.38205381554073     -1.30658478993287
  C   1.31074383789570     -0.26718301910472      1.51174244069740
  N   1.86150074770787     -0.62256070982278      2.48827958562588
