13
Coordinates from ORCA-job run
  C   -0.48625005280733     -0.30132734873026     -0.12837019667831
  C   0.71983347598883      0.24993553945391      0.23999333415243
  N   -1.12416728552595     -1.36282742510511      0.48921506800128
  H   -2.10403287469344     -1.22234000944560      0.68088995584856
  H   -0.61550544577638     -1.73895881044663      1.27468373904191
  N   -1.18661631967541      0.18341669087943     -1.30205858210982
  O   -2.38225048626287     -0.10355672606130     -1.37542950873173
  O   -0.57370107123899      0.86624077340566     -2.13135380662472
  N   1.55686161707650      1.06362544087444     -0.49800602340116
  H   2.17090952108894      1.65541318723876      0.03401125671965
  H   1.14194530419924      1.46083200254209     -1.32604369914195
  C   1.23994881125524     -0.19647520735638      1.49779221909478
  N   1.64202480637162     -0.55497810724899      2.54567624382907
