13
Coordinates from ORCA-job run
  C   -0.52344055166685     -0.23876495036278     -0.13635704144641
  C   0.73346646941677      0.17745307790203      0.20668052842991
  N   -1.66332261791558      0.43164433092634      0.19374556469788
  H   -2.45843666644644      0.35232429663631     -0.41662655884028
  H   -1.58142901714018      1.25384114913420      0.76515399589679
  N   -0.75282107233009     -1.50002580144055     -0.83471331853902
  O   -1.92890863580877     -1.76483776585314     -1.09610452961064
  O   0.21767771077263     -2.19666101453043     -1.11992621710551
  N   0.88018026508473      1.45416662873332      0.79583326379285
  H   0.40309718439384      2.17059359877363      0.26009677480112
  H   1.85050199468584      1.70805292927055      0.91647435168278
  C   1.89139965895584     -0.64737679221281      0.19613391903075
  N   2.93103527799827     -1.19840968697667      0.27060926720977
