18
Coordinates from ORCA-job run
  C   -0.84766198686481     -0.11971718158975     -0.06786566720385
  C   0.37950707915655      0.64965667848714      0.45347149806095
  Cl  -1.87773529163873     -0.39111554929167      1.44970646383943
  H   0.02520964855925      1.59570927982991      0.86986413488666
  C   -0.56716909880514     -1.49295052647419     -0.65177388821240
  H   -0.02540221293297     -2.12823350615204      0.04638186467737
  H   0.00908471337411     -1.38714294657964     -1.57026986303833
  H   -1.51691970648420     -1.98322124966934     -0.87793753832645
  N   -1.50183549201101      0.68211107437143     -1.03510228827035
  H   -1.71035320360720      1.61534178161038     -0.70271259719728
  H   -2.34807181102356      0.24506578117357     -1.37726579466728
  N   1.20278284302442      1.06368530605838     -0.73568315688642
  O   1.09027238833454      2.22490654004153     -1.12093310056644
  O   1.93634242520784      0.21280445308481     -1.23672423770208
  C   1.26629761397473     -0.07093919182645      1.44974782934977
  H   0.74506921949896     -0.17481596644351      2.40058958303417
  H   1.56656224136289     -1.05336393660015      1.09020847886754
  H   2.17402063087431      0.51321915996960      1.61729827935498
