18
Coordinates from ORCA-job run
  C   -0.87175935737683     -0.12727147887987      0.09525326051750
  C   0.40710708943303      0.56837447379237      0.59285250591306
  Cl  -1.71689140557642     -0.64300910698186      1.60668357799614
  H   0.10658165022644      1.27735028806331      1.36403459824056
  C   -0.65674545457230     -1.38157153205177     -0.73904848865905
  H   -1.63024585050063     -1.79750530710663     -1.00627183799239
  H   -0.10176991422167     -2.14591246766700     -0.19359964320240
  H   -0.11663599463869     -1.12489123823072     -1.65076996097938
  N   -1.71487274539411      0.88450670814295     -0.51781739763916
  H   -1.40381268523141      1.02841594438944     -1.47296288912072
  H   -2.67278047257019      0.55531296509894     -0.54485181468155
  N   0.99437926658980      1.44172468263607     -0.48081714083090
  O   1.55967419852357      2.46180559231184     -0.10183034696740
  O   0.92716687800872      1.06143776792341     -1.65069767032495
  C   1.51587360157905     -0.34811043089513      1.07985219834175
  H   2.32469223394642      0.24992690949033      1.50295580930387
  H   1.13579948369507     -1.01356534283234      1.85546161077380
  H   1.91523947808014     -0.94701842720336      0.25957362931121
