14

C	-0.018832	0.043174	-0.031962
C	-0.464049	-0.0894	-1.484151
F	1.191698	-0.757355	0.056319
H	-0.554848	-1.170009	-1.64102
H	0.340096	0.305704	-2.113469
C	0.483272	1.407813	0.28676
N	0.888377	2.478832	0.548497
N	-1.015879	-0.350052	0.834506
H	-0.720516	-0.468236	1.790034
H	-1.718253	-1.026377	0.412797
N	-1.718026	0.617195	-1.703535
H	-2.411577	-0.049855	-1.332696
H	-1.868445	0.670665	-2.705281
F	-2.70598	-1.654298	-0.572171
