13

C	0.0	0.0	0.0
C	-0.57137	0.220372	-1.394906
Cl	1.776172	0.0	0.0
H	-1.684745	0.113293	-1.253461
H	-0.340131	0.845574	0.600731
C	-0.440819	-1.229194	0.663156
N	-0.610381	-2.196814	1.306751
N	-0.127231	-0.815868	-2.381482
O	-0.00461	-0.465737	-3.552072
O	0.017962	-1.954917	-1.952612
C	-0.246137	1.547467	-1.892101
N	0.006559	2.638495	-2.246447
Cl	-3.303779	0.0	0.0
