13

C	0.0	0.0	0.0
C	-0.643394	0.083098	-1.375413
Cl	1.788494	0.0	0.0
H	-1.747937	0.096208	-1.149558
H	-0.343833	0.872876	0.557446
C	-0.427575	-1.21148	0.708557
N	-0.643979	-2.198353	1.308712
N	-0.407957	-1.125685	-2.236174
O	0.496735	-1.898999	-1.933846
O	-1.159491	-1.236112	-3.198866
C	-0.245485	1.263105	-2.120541
N	0.079582	2.2193	-2.720837
Cl	-3.406581	0.0	0.0
