13

C	0.0	0.0	0.0
C	-0.43682	-0.439664	-1.418813
Cl	1.78148	0.0	0.0
H	0.474847	-0.576804	-2.013992
H	-0.35074	1.011102	0.182798
C	-0.42445	-0.911237	1.060536
N	-0.473745	-1.6698	1.957257
N	-1.113598	0.682194	-2.180501
O	-1.789706	0.351329	-3.141747
O	-0.78589	1.821989	-1.879212
C	-1.172686	-1.692469	-1.518383
N	-1.525605	-2.797379	-1.711536
Cl	-2.934493	0.0	0.0
