13

C	0.0	0.0	0.0
C	-0.587243	-0.060324	-1.403149
Cl	1.771297	0.0	0.0
H	-1.701264	-0.111121	-1.222691
H	-0.342676	0.946566	0.42327
C	-0.441418	-1.074585	0.894004
N	-0.63702	-1.904338	1.701584
N	-0.193309	-1.284747	-2.17032
O	-0.248048	-1.211288	-3.394593
O	0.087658	-2.285742	-1.520982
C	-0.250913	1.127003	-2.17061
N	0.012855	2.117652	-2.74403
Cl	-3.320503	0.0	0.0
