13

C	0.0	0.0	0.0
C	-0.571427	-0.067941	-1.409303
Cl	1.784125	0.0	0.0
H	-1.686127	-0.122179	-1.242078
H	-0.340931	0.949596	0.417086
C	-0.438238	-1.071075	0.898277
N	-0.617355	-1.898421	1.712099
N	-0.160643	-1.295551	-2.164323
O	-0.132161	-1.212596	-3.389067
O	0.050098	-2.307985	-1.506332
C	-0.228142	1.116312	-2.178223
N	0.041413	2.102109	-2.757426
Cl	-3.295454	0.0	0.0
