15

C	-0.553659	0.044927	-1.41926
C	0.0	0.0	0.0
F	-1.913943	0.141888	-1.382791
H	1.093033	0.0	0.0
C	-0.021296	1.166455	-2.19547
N	0.316947	2.074678	-2.858365
N	-0.217805	-1.252871	-2.159562
O	0.914065	-1.321857	-2.615817
O	-1.095943	-2.105007	-2.190004
C	-0.490652	-1.200798	0.686511
N	-0.912881	-2.116683	1.290228
N	-0.396222	1.243064	0.646325
H	-1.246441	1.140165	1.181861
H	0.359002	1.543873	1.249101
Br	3.345845	0.0	0.0
