15

C	-0.567179	0.044089	-1.413472
C	0.0	0.0	0.0
F	-1.927902	0.125343	-1.361743
H	1.093145	0.0	0.0
C	-0.057447	1.175911	-2.190052
N	0.260575	2.092987	-2.850534
N	-0.224012	-1.245423	-2.163988
O	-1.089666	-2.111356	-2.183368
O	0.901619	-1.295271	-2.63874
C	-0.485449	-1.200653	0.69041
N	-0.902931	-2.116487	1.297338
N	-0.393676	1.24218	0.650877
H	-1.229394	1.133356	1.207774
H	0.37339	1.551972	1.233943
Br	3.345544	0.0	0.0
