15

C	-0.501173	0.06457	-1.445389
C	0.0	0.0	0.0
F	-1.865569	0.188009	-1.456892
H	1.094173	0.0	0.0
C	0.073209	1.195357	-2.178186
N	0.504955	2.123622	-2.75335
N	-0.167189	-1.219757	-2.203923
O	-1.044729	-2.071745	-2.236933
O	0.959763	-1.280032	-2.67222
C	-0.524933	-1.213482	0.635458
N	-0.952712	-2.172623	1.160609
N	-0.389175	1.179014	0.74956
H	-1.284752	1.551091	0.462443
H	0.338637	1.878858	0.668206
Br	3.350233	0.0	0.0
