15

C	-0.521173	0.009921	-1.439713
C	0.0	0.0	0.0
F	-0.062701	-1.069319	-2.116813
H	1.09423	0.0	0.0
C	-1.991215	0.037384	-1.496935
N	-3.165892	0.006385	-1.485193
N	0.000654	1.260948	-2.150705
O	-0.755534	2.225258	-2.192099
O	1.129605	1.170299	-2.603849
C	-0.462006	-1.235468	0.645135
N	-0.876032	-2.180756	1.208055
N	-0.422061	1.215142	0.669389
H	-1.270193	1.091407	1.207803
H	0.328671	1.530704	1.271183
Br	3.352305	0.0	0.0
