15

C	-0.422214	0.003668	-1.467159
C	0.0	0.0	0.0
F	0.185159	1.038136	-2.089849
H	1.101942	0.0	0.0
C	-0.154579	-1.249603	-2.177108
N	0.038906	-2.257021	-2.750108
N	-1.935806	0.258975	-1.558697
O	-2.634993	-0.648238	-1.127218
O	-2.301267	1.322729	-2.028299
C	-0.483925	-1.180245	0.704494
N	-0.820007	-2.117155	1.327826
N	-0.530373	1.230674	0.603257
H	0.143881	1.96319	0.396931
H	-0.525108	1.114414	1.61021
Br	3.378253	0.0	0.0
