16
Coordinates from ORCA-job run
  C   -0.94058740872170      0.26439228890569      0.08191301103583
  C   0.57218375105547      0.27461222802073      0.29302722345492
  Br  -1.79278364168438      0.99441813468992      1.67339400795616
  H   0.87458323488331      1.28303757878705      0.57646642749740
  C   -1.48952209978819     -1.05291777028499     -0.18223688871652
  N   -1.90523115873931     -2.14465873483540     -0.31801557958174
  N   -1.32027170093244      1.22513320812351     -1.06037953942009
  O   -0.61177908434293      2.21450262800574     -1.16763496531647
  O   -2.30894230264940      0.93594506143143     -1.71230821555401
  N   1.25456532849062      0.01921838227685     -1.02784717986595
  O   2.44933867769869      0.28163867967047     -1.06452987849190
  O   0.58042082508603     -0.45465070835381     -1.93960104729474
  C   1.06331154963121     -0.77015783842679      1.28046664259495
  H   2.14501814951937     -0.67792102270958      1.37954409448960
  H   0.60924594085192     -0.61461016463163      2.25878578597485
  H   0.82144993964172     -1.77598195066920      0.93095610123773
