16
Coordinates from ORCA-job run
  C   -0.80390658299041      0.44828870923677     -0.30359151987810
  C   0.48111601736264     -0.03428971323521      0.40435443141766
  Br  -0.46617773629242      1.12861723105781     -2.06877471740239
  H   0.20354925312048     -0.22931414312574      1.44318836048312
  C   -1.54711580046027      1.43886814702656      0.45942716995914
  N   -2.18452622043967      2.22931176954848      1.05322561179941
  N   -1.69688085860736     -0.82648244861316     -0.36335785914197
  O   -1.89252319509349     -1.36171866344089     -1.43780534098820
  O   -2.06975723999140     -1.19745273753133      0.74219752654859
  N   1.43034292304484      1.13571456521921      0.47187544349408
  O   1.12510969410529      2.02218173185550      1.26605518476857
  O   2.41259816604948      1.12103746437621     -0.26206797096044
  C   1.12613416725102     -1.23948193477378     -0.24113256264588
  H   2.07332709936999     -1.44839978249307      0.25664822233215
  H   0.48364654238652     -2.11357992338904     -0.12292430378587
  H   1.32506377118476     -1.07230027171832     -1.29831767599986
