16
Coordinates from ORCA-job run
  C   -0.80989110750514      0.43506965482770     -0.30598023797630
  C   0.49247530271979     -0.01492809670354      0.39093056473953
  Br  -0.52229876917726      1.00378682699089     -2.11880232706148
  H   0.24504068161056     -0.14586450672176      1.44729905406225
  C   -1.52235137179838      1.47700567015922      0.41709737260941
  N   -2.13232475993700      2.31411267122846      0.97470171089860
  N   -1.71350398619492     -0.83275467111064     -0.26038964334024
  O   -2.05786277097901     -1.13050678444614      0.87610061656373
  O   -1.94294008677585     -1.43265206916351     -1.29321567325762
  N   1.45096854030006      1.14918219529528      0.36120110492578
  O   1.17786529172113      2.08150270640154      1.11344632270571
  O   2.40796200674059      1.08509318486598     -0.40281811617494
  C   1.11069302829292     -1.26138436108609     -0.20013331501573
  H   0.46663089309955     -2.12196289109323     -0.01190204704142
  H   2.07057271681366     -1.44802379615693      0.28205531046068
  H   1.27996439106931     -1.15867573328722     -1.27059069709796
