16

C	0.0	0.0	0.0
C	-0.53347	-0.384875	-1.366995
F	1.35883	0.0	0.0
H	-1.621045	-0.515271	-1.29337
H	-0.269956	0.361932	-2.107497
N	-0.341652	1.487421	0.225794
O	-0.684894	2.168599	-0.734719
O	-0.140526	1.90716	1.360994
C	-0.513232	-0.801713	1.159112
H	-1.598526	-0.692469	1.207842
H	-0.042976	-0.439701	2.071865
H	-0.263339	-1.849242	0.996692
N	0.10235	-1.651599	-1.818766
O	-0.170695	-2.690681	-1.220657
O	0.864137	-1.578986	-2.783868
Br	-3.839838	0.0	0.0
