16

C	0.0	0.0	0.0
C	-0.318604	0.121813	-1.500977
F	1.364873	0.0	0.0
H	0.524949	-0.357434	-1.9973
H	-0.363279	1.164766	-1.787429
N	-0.345147	1.325538	0.710495
O	-0.632499	1.269535	1.898757
O	-0.191835	2.357367	0.062026
C	-0.557773	-1.164805	0.74774
H	-0.174384	-1.146218	1.767404
H	-1.65094	-1.092285	0.74685
H	-0.25317	-2.081739	0.245213
N	-1.500234	-0.548122	-2.117735
O	-2.14546	0.125716	-2.911286
O	-1.628635	-1.74977	-1.918657
Br	-3.89407	0.0	0.0
