16

C	0.0	0.0	0.0
C	-0.535643	-0.263464	-1.394149
F	1.358987	0.0	0.0
H	-0.243437	0.530201	-2.072984
H	-1.626178	-0.375077	-1.33483
N	-0.346517	1.462473	0.354569
O	-0.2654	1.759717	1.541145
O	-0.579709	2.243932	-0.562867
C	-0.512735	-0.907494	1.076538
H	-0.072506	-0.613768	2.028217
H	-0.22899	-1.930486	0.832286
H	-1.60198	-0.831294	1.112513
N	0.066466	-1.510711	-1.941756
O	0.877775	-1.38247	-2.860534
O	-0.282713	-2.587327	-1.460606
Br	-3.827573	0.0	0.0
