16

C	0.0	0.0	0.0
C	-0.49583	-0.211122	-1.427509
Cl	1.841649	0.0	0.0
H	-0.279435	-1.224125	-1.760206
H	-1.578777	-0.028314	-1.407794
C	-0.481429	1.28741	0.631681
H	-1.575926	1.258219	0.626277
H	-0.125908	2.152712	0.078223
H	-0.112619	1.343823	1.659601
N	-0.488992	-1.112036	0.728183
H	0.00335	-1.969351	0.523866
H	-0.538132	-0.944114	1.721479
N	0.133515	0.684597	-2.430625
O	-0.035719	1.896742	-2.308431
O	0.78037	0.156215	-3.336808
Br	-3.984917	0.0	0.0
