16

C	0.0	0.0	0.0
C	-0.502025	-0.16126	-1.431201
Cl	1.805804	0.0	0.0
H	-1.596844	-0.189552	-1.390086
H	-0.13502	0.652696	-2.05312
C	-0.441753	1.371208	0.499468
H	-0.048667	2.1754	-0.128149
H	-0.074393	1.517856	1.518857
H	-1.534831	1.390012	0.500478
N	-0.454093	-1.108211	0.795273
H	-1.467498	-1.169854	0.672337
H	-0.278026	-0.900783	1.772863
N	-0.036691	-1.416367	-2.0764
O	-0.641728	-2.453156	-1.815408
O	0.925246	-1.331714	-2.845261
Br	-3.838085	0.0	0.0
