16

C	0.0	0.0	0.0
C	-0.128057	0.264084	-1.536834
Cl	1.865073	0.0	0.0
H	0.171521	1.286596	-1.760379
H	0.520657	-0.443174	-2.053703
C	-0.504164	1.148978	0.836154
H	-0.056932	2.09063	0.515996
H	-0.26246	0.974023	1.887697
H	-1.591399	1.191699	0.7123
N	-0.521298	-1.227823	0.452401
H	-1.473781	-1.064987	0.775938
H	-0.584866	-1.907641	-0.2943
N	-1.449961	0.049717	-2.199813
O	-2.033766	1.035294	-2.641604
O	-1.789574	-1.123553	-2.351631
Br	-3.925235	0.0	0.0
