16

C	0.0	0.0	0.0
C	-0.467752	0.15806	-1.452902
Cl	1.798556	0.0	0.0
H	-1.559726	0.25354	-1.427903
H	-0.151627	-0.70448	-2.038492
C	-0.442527	1.136071	0.906135
H	-0.122378	0.894941	1.92078
H	-0.000237	2.080344	0.595368
H	-1.531367	1.212768	0.871389
N	-0.486669	-1.243087	0.541017
H	-0.291254	-2.001312	-0.104096
H	-1.503653	-1.141289	0.609868
N	0.085804	1.340979	-2.161565
O	0.882189	1.133055	-3.080301
O	-0.282636	2.456075	-1.794958
Br	-3.833669	0.0	0.0
