16

C	0.0	0.0	0.0
C	-0.56464	0.291858	-1.393527
Cl	1.792114	0.0	0.0
H	-1.639188	0.095727	-1.283976
H	-0.294382	-1.020062	0.257135
C	-0.513361	0.964154	1.049063
H	-0.119457	1.965211	0.861306
H	-0.2028	0.653687	2.049404
H	-1.606442	0.963373	0.998323
N	-0.061754	-0.561859	-2.457958
H	0.948322	-0.620711	-2.384165
H	-0.442478	-1.492832	-2.339064
N	-0.285764	1.675596	-1.777137
H	-0.94648	2.273202	-1.291025
H	-0.519148	1.731777	-2.762357
Cl	-3.874856	0.0	0.0
