16

C	0.0	0.0	0.0
C	-0.413122	0.055202	-1.49771
Cl	1.798097	0.0	0.0
H	0.22354	-0.686811	-1.996865
H	-0.28188	-0.982453	0.383675
C	-0.572105	1.09026	0.875853
H	-0.256846	2.077566	0.535321
H	-1.66455	1.033775	0.839456
H	-0.256719	0.962803	1.91326
N	-0.153009	1.360207	-2.1098
H	-1.029602	1.861457	-2.146728
H	0.521518	1.896351	-1.579562
N	-1.777006	-0.30737	-1.771014
H	-1.8888	-1.310165	-1.807605
H	-2.479674	0.036838	-1.11379
Cl	-4.468706	0.0	0.0
