16

C	0.0	0.0	0.0
C	-0.383754	0.147213	-1.502105
Cl	1.802267	0.0	0.0
H	0.232061	0.979	-1.871507
H	-0.312593	-0.982301	0.363525
C	-0.544667	1.102564	0.874773
H	-0.269898	2.081266	0.470889
H	-0.157437	1.02745	1.8933
H	-1.634824	1.015308	0.89952
N	-1.754477	0.473733	-1.781591
H	-2.44241	-0.023744	-1.212687
H	-1.939254	1.45525	-1.627114
N	-0.043872	-1.054804	-2.271259
H	0.635587	-1.624206	-1.782097
H	-0.897505	-1.584079	-2.396927
Cl	-4.388354	0.0	0.0
