16

C	0.0	0.0	0.0
C	-0.509415	-0.049568	-1.476848
Cl	1.793062	0.0	0.0
H	0.370982	-0.18831	-2.112475
H	-0.267948	-0.947131	0.470414
C	-0.523396	1.138603	0.847049
H	-0.122468	1.070463	1.861367
H	-0.245591	2.096216	0.408255
H	-1.613298	1.062699	0.894245
N	-1.109979	1.22219	-1.844832
H	-1.373	1.135647	-2.820949
H	-1.993218	1.296208	-1.338531
N	-1.410607	-1.162483	-1.758488
H	-2.273875	-1.021579	-1.230797
H	-0.991382	-2.034787	-1.451961
Cl	-3.986313	0.0	0.0
