16

C	0.0	0.0	0.0
C	-0.40696	-0.290264	-1.480687
Cl	1.802055	0.0	0.0
H	0.288503	-1.065062	-1.824543
H	-0.277836	-0.871982	0.596829
C	-0.585919	1.252357	0.602514
H	-0.255126	2.143156	0.066159
H	-1.677421	1.177297	0.548825
H	-0.298534	1.352955	1.650952
N	-0.236574	0.865808	-2.356885
H	0.56943	1.409243	-2.066439
H	-1.063157	1.449458	-2.280015
N	-1.736148	-0.808805	-1.658292
H	-1.794257	-1.755626	-1.309034
H	-2.472217	-0.291126	-1.174329
Cl	-4.387571	0.0	0.0
