16
Coordinates from ORCA-job run
  C   -0.61577745484939      0.21610779527866     -0.33214984111063
  C   0.85451045819974      0.53784981384729     -0.02056722615245
  F   -1.29638565465148      1.38451566600150     -0.48135431524187
  H   1.18165731494290      1.31631583315379     -0.71654218244409
  N   -0.56733824382033     -0.38628307228894     -1.74815890295663
  O   -1.05042081112777     -1.49738131386663     -1.92373706382305
  O   -0.04816677261271      0.33480437871713     -2.59475559215573
  C   -1.31072537911361     -0.70375624303520      0.62541281566915
  H   -1.39185246035124     -0.20690424520541      1.59111036250862
  H   -2.31007705509157     -0.92042250359784      0.25013961266558
  H   -0.76769431182918     -1.64292374823819      0.72926184868751
  C   1.68126120214392     -0.65272558286429     -0.15717757156406
  N   2.29882510543609     -1.64253192068174     -0.29356365772631
  N   1.05521887154722      1.12825588546067      1.37005618725372
  O   0.11023028342939      1.73101427069864      1.85994767845928
  O   2.17673490774803      1.00406498662055      1.84207784793098
