16
Coordinates from ORCA-job run
  C   -0.35568545365494      0.03283742590046     -0.45786839066672
  C   0.73109096158114      0.01670695776481      0.62320567165038
  F   0.13853789575743      0.63942038076443     -1.56410059595860
  H   0.47844791812115     -0.74306920760239      1.36766960472264
  N   -0.68678814950604     -1.41496226625522     -0.82170668950856
  O   -0.96587487698636     -2.13141727116483      0.13270043099721
  O   -0.71270413123950     -1.70434758572203     -2.00486427177426
  C   -1.64224422891269      0.69028505562389     -0.02725525008416
  H   -2.03401356334160      0.22354273861055      0.87650044692184
  H   -1.46705403030228      1.75152209483195      0.15023874255809
  H   -2.36966847667769      0.58283891248686     -0.83418507312537
  C   0.88513685961766      1.32504969920374      1.24038449089342
  N   0.93927083994537      2.38160455240157      1.75044260114137
  N   2.04608466721856     -0.43142086579351      0.00195465638370
  O   3.03198684901395      0.26740099566600      0.18087717014603
  O   1.98347691936584     -1.48699161671628     -0.61399354429702
