16
Coordinates from ORCA-job run
  C   -0.38968509608035      0.03160340949721     -0.43220914199016
  C   0.77110320989200      0.02905898580854      0.56907351979654
  F   0.00133287309041      0.68643465634162     -1.55193267338842
  H   0.60339533158966     -0.76247707139925      1.30429962169172
  N   -0.69115086657858     -1.41778887968480     -0.81473132845640
  O   -0.87973475367100     -2.16891823702620      0.13511853173856
  O   -0.78364178957846     -1.67778606341465     -2.00144117317776
  C   -1.66563769452968      0.62610221280155      0.10749334822087
  H   -1.97446295567699      0.11860889196395      1.02137299389714
  H   -1.51732418217212      1.68773883495302      0.30595262844443
  H   -2.44433085515964      0.51362675106396     -0.64934019590958
  C   0.91793842621186      1.32246899264704      1.21876378284068
  N   0.99181811752031      2.35020973852104      1.78237397393690
  N   2.05363700752628     -0.34511157069620     -0.15955262856238
  O   3.01587376288911      0.39903734116832     -0.04786300423871
  O   1.99186946472716     -1.39380799254515     -0.78737825484340
