16
Coordinates from ORCA-job run
  C   -0.41543899806710     -0.04240443057168     -0.40404109566114
  C   0.80454336233913      0.12963417870939      0.50797720661532
  F   -0.11186574505736      0.43726166762499     -1.63412593458588
  H   0.70088152100408     -0.53780532431264      1.36770960479768
  N   -0.70295281529061     -1.53813922133898     -0.53843954272174
  O   -0.80523450635938     -2.13742272456746      0.52569503423179
  O   -0.87142458022457     -1.97822949761658     -1.66191300173672
  C   -1.67117220307078      0.60722491230631      0.11968640646809
  H   -1.53970908532531      1.68915438985127      0.14199758538855
  H   -2.49153026575609      0.36509251772550     -0.55869962717759
  H   -1.90938173336093      0.24262315081988      1.11891838823048
  C   0.95851702832703      1.51254729140875      0.93257114227011
  N   1.02458808078204      2.62973104943600      1.28878487085743
  N   2.05086594062689     -0.33677783969407     -0.23097664349322
  O   3.01067943461216      0.41789203921284     -0.26879796423780
  O   1.96863456482070     -1.46138215899353     -0.70634642924539
