16
Coordinates from ORCA-job run
  C   -0.52859460242781      0.20087354575758     -0.40758369790466
  C   0.96340501795220      0.35049592384461     -0.06964249542199
  F   -0.98336148726991      1.43877996272161     -0.75204979971386
  H   1.45578383736606      0.83169606802006     -0.91677569640565
  N   -0.54212912103685     -0.62300973213729     -1.70353252710985
  O   -1.08577778979498     -1.72073505002100     -1.67846931839128
  O   0.01106592986424     -0.09341261259803     -2.66134866019099
  C   -1.40472746102704     -0.41194459283443      0.64192069395170
  H   -2.41480682707914     -0.50710416056784      0.24400416592743
  H   -1.04473858044299     -1.39694436857656      0.93350705809581
  H   -1.42088393667899      0.23933375456989      1.51522051787058
  C   1.56806992374235     -0.93237752142014      0.24977445174456
  N   2.04433422276120     -1.98024798664442      0.48372947763998
  N   1.10288855789336      1.30260927955801      1.09781206811118
  O   0.92044114919718      0.83809423830201      2.21758589248050
  O   1.35903116698116      2.46389325202597      0.80584786931649
