16
Coordinates from ORCA-job run
  C   -0.36996467090853     -0.02834892454052     -0.44676682584105
  C   0.75070487613644      0.09123098646550      0.59212791792980
  F   0.10422903184150      0.37808644694103     -1.64905992280530
  H   0.50088633506379     -0.53125813215153      1.45555766501061
  N   -0.75479800887363     -1.50329699241791     -0.56537098422905
  O   -0.83243693374302     -1.97456094934350     -1.68612450438204
  O   -1.01939932655872     -2.05036609660266      0.49896004064279
  C   -1.62247146852607      0.73147706294511     -0.09026778554927
  H   -1.41175498993669      1.80103241005941     -0.09029352716539
  H   -2.37947302024612      0.52077047986629     -0.84814130290294
  H   -1.99632538451169      0.42779419477711      0.88755579199766
  C   0.96258080302878      1.47557695210805      0.98601392146017
  N   1.07413406274495      2.60016548519929      1.30572211156339
  N   2.03191743923953     -0.49480847645680      0.01598740603748
  O   3.04593393839726      0.18451899961780      0.06620799869682
  O   1.91623731685221     -1.62801344646675     -0.43110800046374
