16
Coordinates from ORCA-job run
  C   -0.53042366066182      0.25524950661555     -0.37371357828920
  C   0.97431051662817      0.32103585583670     -0.06657618057946
  F   -0.94581831966221      1.53376020076051     -0.59758972782373
  H   1.46319608500124      0.85794129215366     -0.88165396989178
  N   -0.60756661427128     -0.45237274052748     -1.73436165468687
  O   -0.06236380267926      0.13979549317556     -2.65945336570640
  O   -1.18680479824951     -1.53081417611212     -1.78641044776618
  C   -1.40261742180934     -0.41465654440023      0.64396082333752
  H   -1.06986615407689     -1.43161867120731      0.84354661095533
  H   -1.37650810831883      0.16137662284409      1.56842100464819
  H   -2.42437315803731     -0.44342619569393      0.26597262479268
  C   1.53743713527000     -1.00583046450181      0.12210475218859
  N   1.97658982242985     -2.08793407956255      0.24728652273298
  N   1.17862167611336      1.16049147342321      1.17540255348625
  O   1.00758605074523      0.60519973455333      2.25486781784592
  O   1.46960075157859      2.33380269264281      0.97919621475615
