16
Coordinates from ORCA-job run
  C   -0.56038400456808      0.19535855449784     -0.36627920262639
  C   0.88543563302734      0.51998234391983      0.04248304741937
  F   -1.22999527842313      1.38064773308561     -0.43034870342294
  H   1.27505092043240      1.26486138642491     -0.65393324415557
  N   -0.44159187978321     -0.29499800574817     -1.81654812663016
  O   -0.77694730036252     -1.44819783857526     -2.05970578327115
  O   -0.00508742497063      0.53128943220514     -2.61039589191582
  C   -1.30297609493259     -0.78722388964705      0.48713573246073
  H   -0.76694382274464     -1.73151075934364      0.56298734719270
  H   -2.28129784423744     -0.96913576528082      0.04283566636188
  H   -1.43241945845942     -0.36486486890204      1.48313424926264
  C   1.71136922482739     -0.67584477317454      0.07376952203298
  N   2.36771036420982     -1.64984206971325      0.07001987383391
  N   0.86666731026855      1.18167897650711      1.40300288131922
  O   0.78229154351415      0.44320850206532      2.37786616420221
  O   0.90811811220194      2.40559104167901      1.39697646793641
