16
Coordinates from ORCA-job run
  C   -0.42545425019553     -0.00522453156675     -0.39544486375476
  C   0.82255439531956      0.06647507384156      0.49178312862576
  F   -0.12179140478124      0.49751464003033     -1.61644132566438
  H   0.70052484089491     -0.62251405129716      1.33187351895996
  N   -0.80136815095263     -1.47686242687518     -0.57118357447244
  O   -0.91495352046911     -2.10452367607821      0.47529930809101
  O   -1.01908959845491     -1.86889179861884     -1.70393156393731
  C   -1.62984745430289      0.69672824789875      0.17865876732343
  H   -1.86571858810425      0.31386323708388      1.17160522797598
  H   -2.47796687483638      0.52332582376834     -0.48649720341394
  H   -1.43637229056837      1.76821446233782      0.23149652694544
  C   1.06460524721498      1.42326334113165      0.95788699559959
  N   1.19210440866806      2.51951841200568      1.35956318057795
  N   2.02297655388976     -0.44409723570448     -0.29229596150306
  O   1.86721088533025     -1.54708455130056     -0.79882047001758
  O   3.02158580134776      0.25829503334315     -0.33255169133563
