16
Coordinates from ORCA-job run
  C   -0.55569746723011      0.34116913478087     -0.34773675665231
  C   0.77717406626063      0.60106945978866      0.38383909876317
  F   -0.87908283695768      1.52971440749035     -0.92437999169128
  H   0.58965389961452      1.41537259831743      1.08918196455259
  N   -0.28760357711206     -0.65241715208441     -1.46879644510325
  O   -0.51693546881132     -0.30561185234922     -2.61599608349747
  O   0.13158721744477     -1.73796486104003     -1.07871694159596
  C   -1.70750930225968     -0.16093941913805      0.47910088270191
  H   -1.51376666785202     -1.15743231090640      0.86706975658029
  H   -1.88791683325982      0.52076278069383      1.31038745253617
  H   -2.58922150575836     -0.18042853224896     -0.16515689252074
  C   1.81907665538641      0.98152716948667     -0.55965894501114
  N   2.63252409133619      1.32206454171151     -1.33521641755990
  N   1.22790892704340     -0.56719570668984      1.23957846116842
  O   0.53933256830516     -0.76031191706524      2.23520449328611
  O   2.22147623385006     -1.18737834074710      0.89329636404339
