16
Coordinates from ORCA-job run
  C   -0.54792813942883      0.22716131027505     -0.36597710024030
  C   0.90694966134385      0.47813551778845      0.06163274138683
  F   -1.16297598008817      1.44256022362747     -0.40852292782817
  H   1.33615050560122      1.21728581550461     -0.61747922659209
  N   -0.43670501852534     -0.23618397703455     -1.82592263869722
  O   -0.80466710871123     -1.37372193127249     -2.09435438322552
  O   0.02963806615278      0.59263476724924     -2.60009995955392
  C   -1.34277181109787     -0.74021182338989      0.45718206619194
  H   -0.85305417462132     -1.71079874394251      0.51109368790815
  H   -2.32530985749958     -0.86339979905448      0.00182817992800
  H   -1.45951571538658     -0.33859710350612      1.46325853429187
  C   1.67819295376272     -0.75405422380795      0.07753242777668
  N   2.29227768558636     -1.75514374362818      0.06101515396989
  N   0.90631081353836      1.11535550795206      1.43381422801001
  O   1.01758696742531      2.33460803635057      1.45172156450736
  O   0.76682115194834      0.36537016688878      2.39327765216647
