16
Coordinates from ORCA-job run
  C   -0.55528972381342      0.33828313729582     -0.35268690057453
  C   0.77931974437396      0.60448681976343      0.37309282595899
  F   -0.87465071309704      1.51836738932289     -0.94844748200967
  H   0.59532987233635      1.42866270857357      1.06778672227550
  N   -0.29212337152219     -0.67496876012252     -1.45730122745329
  O   -0.50496865335730     -0.34069573715604     -2.61139726198020
  O   0.10838354325393     -1.76056761508507     -1.04830536255737
  C   -1.70714403656946     -0.14476577546215      0.48533023726006
  H   -1.51604847963239     -1.13428703027395      0.89196521698530
  H   -2.59029156086173     -0.17370251339308     -0.15658876751275
  H   -1.88388379773234      0.55358175763550      1.30357493585858
  C   1.82172051576633      0.96810225668108     -0.57652757030570
  N   2.63800345007656      1.28895295977447     -1.35750019016504
  N   1.22620592771892     -0.55477070990505      1.24298911151830
  O   0.54386190467675     -0.72668973665676      2.24674069213290
  O   2.21057537838308     -1.18998915099213      0.89727502056889
