16
Coordinates from ORCA-job run
  C   -0.69065301237682      0.46172193792614      0.02078278971591
  C   0.72424468028091      0.01734181318427     -0.37299097232211
  H   -0.75045913365866      1.54365416119718     -0.12920981900433
  H   0.88033592557591      0.23358526574587     -1.43270923333088
  C   -0.89452442228069      0.18689709384750      1.44584796082110
  N   -1.04442092853851     -0.07706576631963      2.58050002706278
  C   -1.74595211660775     -0.24656427878462     -0.83159686631092
  H   -1.59257689934621      0.00105015964529     -1.88456621729523
  H   -2.74723737664236      0.07727983647972     -0.54321804501544
  H   -1.66840685249224     -1.32616259807352     -0.71062350440290
  N   0.95840435922595     -1.34694097444534     -0.09583865161147
  H   0.93102075462506     -1.52983868643747      0.90043580011395
  H   1.85374892738783     -1.65127909399637     -0.45319347945571
  N   1.69998741568655      0.98218611990272      0.33384626418259
  O   2.44529216043426      0.51665157385934      1.18958491476468
  O   1.64119651872677      2.15648343626891     -0.01905096791199
