16
Coordinates from ORCA-job run
  C   -0.73390158971770      0.03472924232200     -0.29508228616098
  C   0.76037546066495      0.32196064441659     -0.10259856520476
  H   -0.81236509237949     -0.79642819934961     -1.00708070892512
  H   0.91399148806401      1.17366313126762      0.56206787779039
  C   -1.34658240121998      1.21705652269495     -0.90191978514913
  N   -1.87358890676065      2.16806152769336     -1.34456608413001
  C   -1.45116971715962     -0.34168310281691      1.00520782983016
  H   -2.52246002776124     -0.43867289204392      0.82558102413665
  H   -1.29616884361882      0.42312678225334      1.76879724768228
  H   -1.08274978857459     -1.29533965115435      1.38564402464543
  N   1.40802253080919      0.52312710336651     -1.34612954805120
  H   1.38365368449169     -0.31756034652051     -1.90970167655927
  H   2.36472879134720      0.83159438958856     -1.23520061907879
  N   1.30622277334113     -0.87228824860981      0.67864992113020
  O   1.59157578425695     -0.70307984542836      1.86097538976085
  O   1.38941585421698     -1.92926705767947      0.05535595828329
