16
Coordinates from ORCA-job run
  C   -0.63982282650277      0.13244569692427     -0.33675054294223
  C   0.82915596734453      0.14375504909306      0.13203254828576
  H   -0.68460972970823     -0.50483696741464     -1.22833057965574
  H   0.93685434705045      0.74268585739900      1.03737542034031
  C   -0.97170995730700      1.50104695018619     -0.73295067598821
  N   -1.21070420209126      2.61362256205979     -1.02354768406336
  C   -1.60858278827953     -0.39476829542246      0.72505631597318
  H   -2.63814501288181     -0.31766888561666      0.37295759409021
  H   -1.40044146132807     -1.44414357266736      0.93968497875742
  H   -1.51583069294271      0.17572685147773      1.65163261438455
  N   1.81195782362129      0.53342322170317     -0.83036697021002
  H   1.87849727834040      1.53958662410525     -0.89446215023022
  H   1.61694181003262      0.14164896342411     -1.74253480601561
  N   1.13455163644172     -1.27027984570210      0.54874370694245
  O   1.30677012900860     -1.49557032142742      1.74257108546267
  O   1.15311767920176     -2.09767388812195     -0.35911085513115
