16
Coordinates from ORCA-job run
  C   -0.71091595844019      0.49460470034948      0.00928900756421
  C   0.70366058712111      0.02533194932398     -0.36474357161071
  H   -0.81009243684016      1.54783614962242     -0.26698354089399
  H   0.87009182071070      0.21643664299709     -1.43010298966044
  C   -0.87176199870254      0.39297339493065      1.46188956383561
  N   -1.00056953145300      0.31600669095399      2.62645020235250
  C   -1.75665807601317     -0.34847965918531     -0.71956633870812
  H   -2.76231243597410     -0.00668829096205     -0.46965044496345
  H   -1.62253972474459     -0.25586510537817     -1.80078398152948
  H   -1.65498655751320     -1.39517336474659     -0.43549233438862
  N   0.93587901909516     -1.33878923429255     -0.01314751409103
  H   1.60219239672988     -1.40315054615227      0.74648770685291
  H   1.28430628583903     -1.86640866347583     -0.80012309568102
  N   1.69385381740592      0.97143251300414      0.32324339251156
  O   2.59847677170537      0.48173538633845      0.99067962049444
  O   1.50037602107379      2.16819743667256      0.14055431791565
