18

C	0.0	0.0	0.0
C	-0.475109	0.138664	-1.473161
Br	1.92558	0.0	0.0
H	-1.554366	0.286494	-1.32344
N	-0.383499	1.295781	0.772719
O	-0.299555	1.256514	1.990762
O	-0.710225	2.285197	0.123381
N	-0.593953	-1.039525	0.735156
H	-0.310969	-1.929175	0.343814
H	-1.636333	-0.832073	0.562732
C	-0.244866	-1.163895	-2.227836
H	0.827089	-1.358766	-2.353315
H	-0.723786	-2.012336	-1.732649
H	-0.697754	-1.077335	-3.22385
N	0.200607	1.206324	-2.219895
H	-0.210668	2.086013	-1.933933
H	-0.009982	1.077033	-3.201352
F	-2.822604	0.0	0.0
