18

C	0.0	0.0	0.0
C	-0.497725	0.284346	-1.426157
Br	1.998847	0.0	0.0
H	-1.532118	0.594061	-1.229386
N	-0.256158	1.285736	0.900963
O	-0.359913	1.085604	2.105061
O	-0.322794	2.392465	0.373463
N	-0.616932	-1.099498	0.550862
H	-1.672945	-0.819155	0.400048
H	-0.405993	-1.140925	1.542091
C	-0.530387	-1.01194	-2.221334
H	-1.258565	-1.692962	-1.787194
H	0.455702	-1.483401	-2.240813
H	-0.829695	-0.79177	-3.253025
N	0.312849	1.265095	-2.159244
H	0.243236	2.148971	-1.669591
H	-0.143409	1.391621	-3.057256
F	-2.834925	0.0	0.0
