18

C	0.0	0.0	0.0
C	-0.469882	0.022121	-1.517315
Br	1.942137	0.0	0.0
H	0.432116	-0.076556	-2.127438
N	-0.312523	1.347421	0.714775
O	0.136662	2.369522	0.203283
O	-0.948271	1.306526	1.756173
N	-0.53504	-1.018261	0.811711
H	-1.547955	-0.752288	0.822939
H	-0.500117	-1.850015	0.227352
C	-1.218445	1.282099	-1.9637
H	-0.593599	2.174554	-1.960504
H	-1.560231	1.104164	-2.990396
H	-2.090622	1.392213	-1.316796
N	-1.274887	-1.188893	-1.70982
H	-2.158925	-0.951854	-1.219561
H	-1.451666	-1.270123	-2.705972
F	-2.886623	0.0	0.0
