18

C	0.0	0.0	0.0
C	-0.488317	0.184524	-1.478667
Br	1.934125	0.0	0.0
H	-1.517016	0.519995	-1.312241
N	-0.355078	1.295194	0.791441
O	-0.420334	2.344258	0.15369
O	-0.494232	1.206961	1.999892
N	-0.568426	-1.053226	0.729642
H	-0.334855	-1.923038	0.265828
H	-1.613757	-0.819698	0.583456
C	-0.559197	-1.177168	-2.156137
H	0.385688	-1.730948	-2.086098
H	-0.78117	-1.014263	-3.212573
H	-1.366466	-1.762141	-1.716858
N	0.220312	1.117165	-2.343281
H	0.223782	2.020125	-1.887922
H	1.185665	0.822318	-2.440692
F	-2.773656	0.0	0.0
