18

C	0.0	0.0	0.0
C	-0.458484	0.047404	-1.520674
Br	1.969121	0.0	0.0
H	0.448483	-0.024595	-2.126892
N	-0.303326	1.344726	0.722262
O	-0.959702	1.307177	1.75274
O	0.16	2.365128	0.219249
N	-0.53729	-1.019223	0.799415
H	-1.554415	-0.753099	0.799228
H	-0.484798	-1.852808	0.219504
C	-1.227905	1.303978	-1.944293
H	-0.617817	2.207009	-1.91603
H	-2.105209	1.382008	-1.299712
H	-1.560854	1.143222	-2.977019
N	-1.240958	-1.174186	-1.738971
H	-2.119466	-0.966978	-1.230664
H	-1.448148	-1.220134	-2.731107
F	-2.86594	0.0	0.0
