18

C	0.0	0.0	0.0
C	-0.513398	0.310288	-1.417724
Br	1.936968	0.0	0.0
H	-1.518165	0.682654	-1.20772
N	-0.305198	1.272895	0.907249
O	-0.222479	1.085367	2.119685
O	-0.607935	2.337764	0.384298
N	-0.60064	-1.123287	0.548574
H	-1.648815	-0.855494	0.424646
H	-0.363865	-1.175044	1.533405
C	-0.664694	-0.981461	-2.211983
H	-0.947139	-0.729621	-3.238675
H	0.26631	-1.558129	-2.232541
H	-1.451139	-1.587943	-1.770566
N	0.297875	1.320665	-2.088436
H	0.893224	0.880429	-2.781304
H	-0.317182	1.969839	-2.561611
F	-2.826307	0.0	0.0
