18

C	0.0	0.0	0.0
C	-0.472924	0.00799	-1.51812
Br	1.942153	0.0	0.0
H	0.428739	-0.088869	-2.130134
N	-0.312605	1.360004	0.691624
O	0.151766	2.371905	0.17356
O	-0.969803	1.338989	1.720148
N	-0.540851	-1.001869	0.824698
H	-1.555722	-0.736311	0.820803
H	-0.498224	-1.84686	0.259291
C	-1.236075	1.257546	-1.968753
H	-0.623791	2.1576	-1.968594
H	-2.107146	1.355665	-1.319369
H	-1.576422	1.071607	-2.993622
N	-1.266992	-1.212047	-1.698678
H	-1.442273	-1.304143	-2.69441
H	-2.152803	-0.979895	-1.213163
F	-2.890767	0.0	0.0
