19

C	-0.533792	-0.09876	-1.483295
C	-0.001771	-0.069255	-0.048716
Cl	0.021088	-1.703526	-2.200399
H	1.097746	-0.143383	-0.05903
N	-1.976045	-0.086987	-1.587071
H	-2.320156	-0.598403	-0.777054
H	-2.284447	0.875246	-1.502863
C	0.091534	0.980675	-2.343845
H	-0.144644	0.802324	-3.39453
H	1.172473	0.9898	-2.189656
H	-0.304363	1.959561	-2.057975
N	-0.661479	-1.145736	0.71651
H	-0.396048	-1.014963	1.68747
H	-0.238979	-2.023989	0.431533
C	-0.302014	1.255669	0.631874
H	0.210649	2.075042	0.129008
H	0.128738	1.222823	1.63634
H	-1.378198	1.450471	0.703637
H	2.933355	0.640439	0.426265
