19

C	-0.746371	0.156909	-1.496585
C	0.07713	0.135514	-0.191807
Cl	-0.421701	1.754983	-2.367471
H	1.123163	0.285136	-0.490353
N	-0.267194	-0.906647	-2.325589
H	-0.986847	-1.219882	-2.965561
H	-0.028617	-1.653116	-1.671464
C	-2.249441	0.12261	-1.261909
H	-2.77599	0.097418	-2.220822
H	-2.60196	0.991629	-0.704308
H	-2.486357	-0.789115	-0.706189
N	0.008999	-1.208573	0.371191
H	0.910389	-1.319463	0.935722
H	-0.740389	-1.235971	1.058883
C	-0.290647	1.221366	0.812611
H	-0.256445	2.227159	0.38545
H	-1.291562	1.048633	1.224688
H	0.427809	1.148137	1.631704
H	2.226781	-1.179543	1.765875
