16

C	0.0	0.0	0.0
C	-0.697347	-0.079458	-1.341278
Br	1.926007	0.0	0.0
H	-1.832889	-0.101186	-0.905563
N	-0.491367	1.072286	0.792288
H	-1.524702	0.950096	0.77108
H	-0.256839	1.94323	0.329995
N	-0.341883	-1.309238	0.773473
O	0.156419	-2.351336	0.363919
O	-1.116918	-1.204726	1.714521
N	-0.446571	-1.244763	-2.15071
H	-1.196855	-1.352546	-2.819675
H	0.435193	-1.172488	-2.645388
C	-0.513402	1.192302	-2.037245
N	-0.344649	2.186554	-2.647874
H	-2.947716	0.0	0.0
