14

C	-0.429662	-0.003028	-1.446579
C	0.0	0.0	0.0
Cl	-0.241169	1.631917	-2.154346
H	1.09076	0.0	0.0
H	-0.343865	-0.924958	0.473228
H	-0.402937	0.852407	0.541931
C	0.350823	-0.995049	-2.27342
H	1.410743	-0.761405	-2.149104
H	0.066171	-0.955679	-3.323181
H	0.172814	-2.002813	-1.891326
N	-1.932321	-0.282624	-1.54529
O	-2.652865	0.239246	-0.699847
O	-2.328924	-0.996894	-2.464574
Br	3.661437	0.0	0.0
