18

C	0.0	0.0	0.0
C	-0.377786	0.283288	-1.489867
Br	1.978072	0.0	0.0
H	0.392857	0.950642	-1.889618
C	-0.380502	1.190509	0.870763
H	-1.475557	1.227938	0.879958
H	0.028688	2.12053	0.46769
H	-0.003118	1.029377	1.882402
N	-0.536521	-1.180081	0.588534
H	-0.368055	-1.974281	-0.020506
H	-1.572231	-0.971652	0.542142
C	-1.63128	1.049561	-1.695687
N	-2.272835	1.866346	-2.262499
C	-0.405356	-0.982331	-2.342294
H	-1.254283	-1.604775	-2.057363
H	-0.514859	-0.717261	-3.396594
H	0.525631	-1.542657	-2.221394
H	-2.85715	0.0	0.0
