18

C	0.0	0.0	0.0
C	-0.535229	-0.030776	-1.426994
Br	2.037632	0.0	0.0
H	-1.647582	-0.071923	-1.207864
C	-0.464015	1.225894	0.745567
H	-0.056228	2.138883	0.311278
H	-0.135831	1.172151	1.787752
H	-1.566842	1.195137	0.687429
N	-0.409726	-1.169748	0.670521
H	-0.26772	-1.10808	1.667926
H	0.027459	-2.004568	0.303786
C	-0.126932	-1.263647	-2.090598
N	0.225263	-2.246442	-2.63221
C	-0.175636	1.184648	-2.278034
H	-0.671244	2.072347	-1.882939
H	-0.517076	1.040297	-3.305568
H	0.90515	1.34896	-2.29078
H	-3.22326	0.0	0.0
