18

C	0.0	0.0	0.0
C	-0.263172	0.027556	-1.555259
Br	1.967681	0.0	0.0
H	0.47331	-0.657238	-1.984721
C	-0.511674	1.227664	0.727579
H	-1.607396	1.20526	0.628807
H	-0.102755	2.156531	0.326193
H	-0.254137	1.155936	1.788877
N	-0.532409	-1.242036	0.500338
H	-0.315356	-1.30187	1.490579
H	-1.558769	-1.124419	0.440434
C	0.055916	1.35228	-2.094826
N	0.304706	2.403508	-2.557878
C	-1.642944	-0.4327	-2.035188
H	-2.462998	-0.014841	-1.435525
H	-1.755774	-0.179888	-3.094031
H	-1.706859	-1.517081	-1.923891
H	-3.528156	0.0	0.0
