18

C	0.0	0.0	0.0
C	-0.250337	-0.031376	-1.566649
Br	1.980892	0.0	0.0
H	0.486095	-0.731464	-1.976538
C	-0.538087	1.249061	0.657728
H	-0.130338	2.154956	0.209697
H	-0.294197	1.22329	1.721426
H	-1.632842	1.220019	0.543156
N	-0.524377	-1.13979	0.681176
H	-0.351022	-1.987342	0.15075
H	-1.545116	-0.996789	0.733367
C	0.069594	1.26693	-2.162792
N	0.298112	2.299357	-2.676135
C	-1.643085	-0.499776	-1.998548
H	-1.704555	-1.586645	-1.893555
H	-2.450849	-0.092906	-1.36586
H	-1.806128	-0.250922	-3.051629
H	-3.56423	0.0	0.0
