16

C	-0.364157	0.219383	-1.506591
C	0.0	0.0	0.0
Br	0.148668	2.075985	-1.927151
H	1.089361	0.0	0.0
N	0.410743	-0.644968	-2.354134
H	1.390641	-0.612784	-2.066308
H	0.079483	-1.597481	-2.242743
C	-1.846556	0.068701	-1.785164
H	-2.03617	0.276203	-2.83846
H	-2.159606	-0.956735	-1.560849
H	-2.429097	0.756679	-1.170509
C	-0.42939	-1.344596	0.386789
N	-0.771726	-2.434883	0.663858
C	-0.581899	0.979856	0.907887
N	-1.11968	1.742183	1.621872
Cl	3.188569	0.0	0.0
