14

C	-0.35568	-0.010964	-1.463879
C	0.0	0.0	0.0
Cl	0.088683	-1.523817	-2.256315
H	1.095883	0.0	0.0
H	0.158541	0.796694	-1.982607
N	-1.828428	0.211424	-1.744396
O	-2.113309	0.778295	-2.799262
O	-2.638056	-0.18911	-0.910779
N	-0.432214	-1.168524	0.737366
H	-1.334485	-1.038411	1.174007
H	0.273747	-1.365205	1.435788
C	-0.440297	1.273658	0.565511
N	-0.792956	2.286875	1.049835
F	2.523617	0.0	0.0
