14

C	-0.574453	0.008348	-1.40631
C	0.0	0.0	0.0
Cl	0.076195	1.333331	-2.379262
H	1.093372	0.0	0.0
H	-1.662348	0.065627	-1.445101
N	-0.25557	-1.307718	-2.070926
O	0.915994	-1.595148	-2.249996
O	-1.227873	-1.997246	-2.373991
N	-0.365044	-1.263022	0.643881
H	-1.133233	-1.166738	1.29725
H	0.463231	-1.57835	1.137467
C	-0.496159	1.16808	0.714125
N	-0.921535	2.078078	1.327884
F	2.516905	0.0	0.0
