11

C	0.0	0.0	0.0
C	-0.483312	-0.315019	-1.420698
Br	1.932245	0.0	0.0
H	0.072947	0.322326	-2.118823
H	-0.33898	0.985628	0.29521
H	-0.352361	-0.736175	0.711619
C	-1.942463	-0.061492	-1.702939
N	-2.665176	0.087093	-2.635829
C	-0.147642	-1.698279	-1.778608
N	0.141368	-2.799942	-2.066462
F	-2.467029	0.0	0.0
