11

C	0.0	0.0	0.0
C	-0.45736	-0.240936	-1.446156
Br	1.932135	0.0	0.0
H	0.127345	0.430443	-2.087106
H	-0.357102	-0.778286	0.661582
H	-0.345754	0.96722	0.342734
C	-1.90205	-0.00585	-1.776436
N	-2.642841	-0.023365	-2.708611
C	-0.1035	-1.598976	-1.876398
N	0.208819	-2.665823	-2.250534
F	-2.448336	0.0	0.0
