11

C	0.0	0.0	0.0
C	-0.477689	0.250142	-1.436391
Br	1.932175	0.0	0.0
H	0.078924	-0.416905	-2.106287
H	-0.33788	-0.970924	0.344249
H	-0.351649	0.771798	0.674111
C	-0.128808	1.613463	-1.859324
N	0.180148	2.69359	-2.203113
C	-1.941316	-0.003494	-1.705116
N	-2.669785	-0.176939	-2.63036
F	-2.465542	0.0	0.0
