11

C	0.0	0.0	0.0
C	-0.533586	0.437488	-1.383228
Br	1.931886	0.0	0.0
H	0.311684	0.606239	-2.067971
H	-0.343117	0.673512	0.773144
H	-0.338405	-0.998776	0.237836
C	-1.254557	1.710989	-1.286978
N	-1.632567	2.823163	-1.318877
C	-1.366133	-0.607357	-1.988356
N	-1.792658	-1.467241	-2.668359
F	-2.385377	0.0	0.0
