11

C	0.0	0.0	0.0
C	-0.532207	0.12957	-1.445481
Br	1.933002	0.0	0.0
H	0.314648	0.191995	-2.147316
H	-0.337835	-0.92273	0.450434
H	-0.338859	0.827419	0.607858
C	-1.314752	1.359168	-1.620002
N	-1.734831	2.416839	-1.916363
C	-1.308585	-1.055804	-1.830485
N	-1.711746	-2.058673	-2.294893
F	-2.380705	0.0	0.0
