11

C	0.0	0.0	0.0
C	-0.542941	0.056745	-1.442472
Br	1.929651	0.0	0.0
H	0.245489	-0.244596	-2.146304
H	-0.32391	-0.917325	0.476456
H	-0.349382	0.838193	0.587494
C	-0.905193	1.435287	-1.788158
N	-1.111713	2.550061	-2.091136
C	-1.694308	-0.856829	-1.639716
N	-2.237695	-1.72911	-2.223175
F	-2.429949	0.0	0.0
