11

C	0.0	0.0	0.0
C	-0.532095	-0.36376	-1.404457
Br	1.934077	0.0	0.0
H	0.31482	-0.539632	-2.08551
H	-0.339539	-0.717189	0.734715
H	-0.339814	0.983196	0.295267
C	-1.310787	0.737854	-1.980636
N	-1.725932	1.637963	-2.611944
C	-1.311454	-1.606117	-1.373541
N	-1.728852	-2.698435	-1.489256
F	-2.380332	0.0	0.0
