11

C	0.0	0.0	0.0
C	-0.530943	0.240268	-1.430964
Br	1.936071	0.0	0.0
H	0.316377	0.357949	-2.123379
H	-0.339846	-0.953733	0.379457
H	-0.338034	0.779041	0.669457
C	-1.311065	1.479778	-1.508377
N	-1.727295	2.559011	-1.717204
C	-1.307393	-0.90789	-1.910143
N	-1.720501	-1.860001	-2.461765
F	-2.379091	0.0	0.0
