11
Coordinates from ORCA-job run
  C   -0.79975383185731      0.03858519262858     -0.57279854559205
  C   0.51558318382095      0.14745821659218     -0.33696381916391
  H   -1.23486800583691      0.18265400793932     -1.55382098699242
  N   -1.75782089797101     -0.33474421316660      0.45706986442930
  O   -2.82243274048456     -0.78401844049021      0.03506768716358
  O   -1.43947266451293     -0.17053116539588      1.63181841312461
  C   1.43924727791074      0.50745788212809     -1.35631599224516
  N   2.20865339268056      0.80013302916143     -2.19854037536302
  N   1.13414817007806     -0.07840605268029      0.98976116905459
  O   1.50541024368702      0.93389280198889      1.56564163382988
  O   1.25130587248539     -1.24348125870550      1.33908095175460
