11
Coordinates from ORCA-job run
  C   -0.75696901946803     -0.32347469319051      0.32598292415159
  C   0.50194148506242     -0.01579471595921     -0.02190511954028
  H   -0.98176685245374     -1.00049501245802      1.13831581120947
  N   -1.91420464186334      0.27246718038108     -0.31722358447860
  O   -2.94602096074345      0.27079375683974      0.35512600770149
  O   -1.78231051108810      0.70792858577892     -1.45916086108292
  C   0.93255366824173      0.87671319279042     -1.03899925978156
  N   1.33996679624248      1.60572462015715     -1.86926661403188
  N   1.59967820911188     -0.64932391464888      0.76973410737652
  O   2.71476162713022     -0.16629386748779      0.61187250026198
  O   1.29337019982793     -1.57724513220291      1.50552408821419
