11
Coordinates from ORCA-job run
  C   -0.73892970104339     -0.42186215460006      0.24026474571941
  C   0.49750222898179      0.06092780384335      0.04732083229149
  H   -0.93056854444967     -1.31559207657281      0.81900088535709
  N   -1.91817283666794      0.17791291892785     -0.36528734021226
  O   -2.87816610150065     -0.58558756588892     -0.47531683695482
  O   -1.87089780147731      1.35644978086840     -0.70796572752487
  C   0.87990174144506      1.19507849417721     -0.71708998323398
  N   1.24546431839580      2.12314567793710     -1.34336026693720
  N   1.62789068612746     -0.68444842192861      0.68330535253170
  O   2.75247969348823     -0.33554433923084      0.34544214290167
  O   1.33449631670063     -1.57048011753267      1.47368619606176
