11
Coordinates from ORCA-job run
  C   -0.79610222177981      0.22683066457997     -0.53483777274287
  C   0.52198257608877      0.22048507668655     -0.29230720083963
  H   -1.22834005939723      0.65558283359936     -1.43045418592480
  N   -1.76139010499532     -0.38823786279846      0.36513281409079
  O   -1.49141900544584     -0.42875255220104      1.56235390683736
  O   -2.78148289479487     -0.80553669086632     -0.17988400445842
  C   1.46056354123719      0.82856239450844     -1.17023312348330
  N   2.23877035854607      1.32659185203644     -1.90033287536892
  N   1.12267093565732     -0.40079680028199      0.91088750884071
  O   1.05333049479896     -1.61855029783173      0.98786916576434
  O   1.66041638008477      0.38282138256877      1.68080576728475
