11
Coordinates from ORCA-job run
  C   -0.73750172421150     -0.41777568265918      0.25359288613908
  C   0.49971304405813      0.05346534266003      0.03644445961462
  H   -0.92825996097526     -1.30058478261063      0.84855286202132
  N   -1.91871109841599      0.17590387158633     -0.35492377532364
  O   -1.87203387110396      1.35011940559918     -0.71201715499954
  O   -2.87832895117146     -0.58936755656924     -0.45309330110435
  C   0.87616033830680      1.16718984083409     -0.76068046413179
  N   1.23323652956096      2.07025916741664     -1.42694254555595
  N   1.63078806314296     -0.66527547750534      0.69624402903191
  O   2.73817283313190     -0.16026915208573      0.55418366468678
  O   1.35776479767740     -1.68266497666617      1.31763933962156
