11
Coordinates from ORCA-job run
  C   -0.73242906970630     -0.46199215381529      0.18265830373291
  C   0.50173203208092      0.02136639054849     -0.02315594622035
  H   -0.91120828146653     -1.41872964282347      0.65495480945218
  N   -1.93328799111880      0.29209460803374     -0.14402613827154
  O   -1.86331857075917      1.17323453198215     -0.99690590509995
  O   -2.93338535153156     -0.04409972225702      0.49082176679939
  C   0.86133617039297      1.27305224139638     -0.59008286742494
  N   1.20526188082288      2.30617542771782     -1.03899316624511
  N   1.65231212733193     -0.84065512576054      0.39049415327778
  O   2.76710126891009     -0.38263725156781      0.16985245800499
  O   1.38488578504358     -1.91780930345446      0.90338253199465
